MODEL        1
REMARK 921   NORMALIZED FREE ENERGY PREDICTED BY IDOCK:   -8.53 KCAL/MOL
REMARK 922        TOTAL FREE ENERGY PREDICTED BY IDOCK:  -13.25 KCAL/MOL
REMARK 923 INTER-LIGAND FREE ENERGY PREDICTED BY IDOCK:  -12.02 KCAL/MOL
REMARK 924 INTRA-LIGAND FREE ENERGY PREDICTED BY IDOCK:   -1.23 KCAL/MOL
REMARK 927      BINDING AFFINITY PREDICTED BY RF-SCORE:    0.00 PKD
ROOT
HETATM    1  C   UNK A   0      -8.848   5.826  72.445  1.00  0.00    -0.131 C  
HETATM    2  N   UNK A   0     -10.000   6.298  71.691  1.00  0.00    -0.179 NA 
HETATM    3  C   UNK A   0     -11.064   7.039  72.428  1.00  0.00    -0.259 C  
HETATM    4  O   UNK A   0      -7.889   5.427  69.845  1.00  0.00    -0.078 OA 
HETATM    5  C   UNK A   0     -12.441   6.603  71.865  1.00  0.00    -0.287 C  
HETATM    6  C   UNK A   0     -10.265   6.285  67.543  1.00  0.00    -0.173 C  
HETATM    7  N   UNK A   0     -12.474   6.686  70.395  1.00  0.00    -0.407 NA 
HETATM    8  H   UNK A   0     -13.338   6.938  69.915  1.00  0.00     0.000 HD 
HETATM    9  H2  UNK A   0      -9.692   6.405  65.572  1.00  0.00     0.000 HD 
HETATM   10  C   UNK A   0     -11.320   6.419  69.662  1.00  0.00    -0.412 C  
HETATM   11  H   UNK A   0      -8.292   5.919  67.374  1.00  0.00     0.000 HD 
HETATM   12  C   UNK A   0     -10.136   6.176  70.281  1.00  0.00    -0.188 C  
HETATM   13  H1  UNK A   0     -11.404   6.701  65.858  1.00  0.00     0.000 HD 
HETATM   14  C   UNK A   0      -8.949   5.825  69.366  1.00  0.00    -0.116 C  
HETATM   15  N   UNK A   0     -11.373   6.434  68.299  1.00  0.00    -0.520 NA 
HETATM   16  N   UNK A   0     -10.477   6.480  66.220  1.00  0.00    -0.443 NA 
HETATM   17  N   UNK A   0      -9.093   6.005  68.001  1.00  0.00    -0.118 N  
ENDROOT
BRANCH   3  18
HETATM   18  C   UNK A   0     -10.853   8.571  72.290  1.00  0.00    -0.348 C  
BRANCH  18  19
HETATM   19  N   UNK A   0     -12.121   9.270  72.000  1.00  0.00    -0.359 NA 
HETATM   20  H   UNK A   0     -13.009   8.942  72.379  1.00  0.00     0.000 HD 
BRANCH  19  21
HETATM   21  C   UNK A   0     -12.048  10.405  71.179  1.00  0.00    -0.386 A  
HETATM   22  C   UNK A   0     -11.270  11.373  69.082  1.00  0.00    -0.335 A  
HETATM   23  C   UNK A   0     -11.880  12.583  69.412  1.00  0.00    -0.368 A  
HETATM   24  C   UNK A   0     -12.537  11.660  71.552  1.00  0.00    -0.341 A  
HETATM   25  C   UNK A   0     -11.347  10.297  69.971  1.00  0.00    -0.370 A  
HETATM   26  C   UNK A   0     -12.469  12.742  70.671  1.00  0.00    -0.328 A  
BRANCH  23  27
HETATM   27  C   UNK A   0     -11.881  13.696  68.428  1.00  0.00    -0.372 C  
ATOM     28  H   GLU A   1     -12.017  12.327  66.861  1.00  0.00     0.000 HD 
ATOM     29  N   GLU A   1     -11.927  13.315  67.096  1.00  0.00    -0.367 N  
HETATM   30  O   UNK A   0     -11.865  14.862  68.789  1.00  0.00    -0.314 OA 
BRANCH  29  31
ATOM     31  CA  GLU A   1     -11.850  14.315  66.008  1.00  0.00    -0.391 C  
ATOM     32  C   GLU A   1     -12.493  13.745  64.721  1.00  0.00    -0.349 C  
ATOM     33  O   GLU A   1     -12.893  12.457  64.830  1.00  0.00    -0.728 OA 
ATOM     34  OXT GLU A   1     -12.599  14.364  63.671  1.00  0.00    -0.817 OA 
BRANCH  31  35
ATOM     35  CB  GLU A   1     -10.383  14.714  65.768  1.00  0.00    -0.349 C  
BRANCH  35  36
ATOM     36  CG  GLU A   1     -10.056  16.146  66.207  1.00  0.00    -0.337 C  
ATOM     37  CD  GLU A   1     -10.580  17.186  65.248  1.00  0.00    -0.043 C  
ATOM     38  OE2 GLU A   1     -11.177  16.950  64.211  1.00  0.00    -1.204 OA 
ATOM     39  OE1 GLU A   1     -10.318  18.447  65.675  1.00  0.00    -0.605 OA 
ENDBRANCH  35  36
ENDBRANCH  31  35
ENDBRANCH  29  31
ENDBRANCH  23  27
ENDBRANCH  19  21
ENDBRANCH  18  19
ENDBRANCH   3  18
TORSDOF 7
ENDMDL
MODEL        2
REMARK 921   NORMALIZED FREE ENERGY PREDICTED BY IDOCK:   -8.50 KCAL/MOL
REMARK 922        TOTAL FREE ENERGY PREDICTED BY IDOCK:  -13.21 KCAL/MOL
REMARK 923 INTER-LIGAND FREE ENERGY PREDICTED BY IDOCK:  -12.65 KCAL/MOL
REMARK 924 INTRA-LIGAND FREE ENERGY PREDICTED BY IDOCK:   -0.56 KCAL/MOL
REMARK 927      BINDING AFFINITY PREDICTED BY RF-SCORE:    0.00 PKD
ROOT
HETATM    1  C   UNK A   0     -10.782  17.560  65.708  1.00  0.00    -0.106 C  
HETATM    2  N   UNK A   0     -10.424  16.177  65.986  1.00  0.00    -0.334 NA 
HETATM    3  C   UNK A   0      -9.703  15.881  67.257  1.00  0.00    -0.224 C  
HETATM    4  O   UNK A   0     -12.309  16.286  63.737  1.00  0.00    -0.828 OA 
HETATM    5  C   UNK A   0      -8.634  14.795  66.970  1.00  0.00    -0.234 C  
HETATM    6  C   UNK A   0     -11.796  12.909  63.814  1.00  0.00    -0.504 C  
HETATM    7  N   UNK A   0      -9.212  13.645  66.254  1.00  0.00    -0.478 NA 
HETATM    8  H   UNK A   0      -8.858  12.704  66.427  1.00  0.00     0.000 HD 
HETATM    9  H2  UNK A   0     -13.050  11.722  62.698  1.00  0.00     0.000 HD 
HETATM   10  C   UNK A   0     -10.244  13.847  65.341  1.00  0.00    -0.337 C  
HETATM   11  H   UNK A   0     -13.193  14.041  62.908  1.00  0.00     0.000 HD 
HETATM   12  C   UNK A   0     -10.795  15.076  65.165  1.00  0.00    -0.407 C  
HETATM   13  H1  UNK A   0     -11.775  10.850  63.543  1.00  0.00     0.000 HD 
HETATM   14  C   UNK A   0     -11.879  15.187  64.078  1.00  0.00     0.007 C  
HETATM   15  N   UNK A   0     -10.731  12.788  64.634  1.00  0.00    -0.318 NA 
HETATM   16  N   UNK A   0     -12.238  11.730  63.315  1.00  0.00    -0.912 NA 
HETATM   17  N   UNK A   0     -12.381  14.021  63.526  1.00  0.00    -1.118 N  
ENDROOT
BRANCH   3  18
HETATM   18  C   UNK A   0     -10.701  15.420  68.353  1.00  0.00    -0.256 C  
BRANCH  18  19
HETATM   19  N   UNK A   0     -11.525  14.284  67.893  1.00  0.00    -0.297 NA 
HETATM   20  H   UNK A   0     -11.954  14.277  66.968  1.00  0.00     0.000 HD 
BRANCH  19  21
HETATM   21  C   UNK A   0     -11.691  13.216  68.788  1.00  0.00    -0.324 A  
HETATM   22  C   UNK A   0     -12.384  12.491  71.009  1.00  0.00    -0.307 A  
HETATM   23  C   UNK A   0     -12.130  11.165  70.657  1.00  0.00    -0.477 A  
HETATM   24  C   UNK A   0     -11.317  11.901  68.498  1.00  0.00    -0.329 A  
HETATM   25  C   UNK A   0     -12.152  13.508  70.078  1.00  0.00    -0.411 A  
HETATM   26  C   UNK A   0     -11.547  10.876  69.419  1.00  0.00    -0.387 A  
BRANCH  23  27
HETATM   27  C   UNK A   0     -12.466  10.077  71.611  1.00  0.00    -0.418 C  
ATOM     28  H   GLU A   1     -10.582   9.229  71.326  1.00  0.00     0.000 HD 
ATOM     29  N   GLU A   1     -11.483   9.117  71.792  1.00  0.00    -0.368 N  
HETATM   30  O   UNK A   0     -13.533  10.060  72.203  1.00  0.00    -0.428 OA 
BRANCH  29  31
ATOM     31  CA  GLU A   1     -11.713   7.933  72.649  1.00  0.00    -0.341 C  
ATOM     32  C   GLU A   1     -10.397   7.530  73.356  1.00  0.00    -0.350 C  
ATOM     33  O   GLU A   1      -9.324   8.262  72.981  1.00  0.00    -0.264 OA 
ATOM     34  OXT GLU A   1     -10.297   6.604  74.150  1.00  0.00    -0.356 OA 
BRANCH  31  35
ATOM     35  CB  GLU A   1     -12.268   6.774  71.801  1.00  0.00    -0.402 C  
BRANCH  35  36
ATOM     36  CG  GLU A   1     -11.659   6.693  70.396  1.00  0.00    -0.457 C  
ATOM     37  CD  GLU A   1     -10.636   5.592  70.266  1.00  0.00    -0.300 C  
ATOM     38  OE2 GLU A   1     -10.283   4.847  71.166  1.00  0.00    -0.213 OA 
ATOM     39  OE1 GLU A   1     -10.139   5.509  69.006  1.00  0.00    -0.170 OA 
ENDBRANCH  35  36
ENDBRANCH  31  35
ENDBRANCH  29  31
ENDBRANCH  23  27
ENDBRANCH  19  21
ENDBRANCH  18  19
ENDBRANCH   3  18
TORSDOF 7
ENDMDL
MODEL        3
REMARK 921   NORMALIZED FREE ENERGY PREDICTED BY IDOCK:   -8.11 KCAL/MOL
REMARK 922        TOTAL FREE ENERGY PREDICTED BY IDOCK:  -12.67 KCAL/MOL
REMARK 923 INTER-LIGAND FREE ENERGY PREDICTED BY IDOCK:  -11.27 KCAL/MOL
REMARK 924 INTRA-LIGAND FREE ENERGY PREDICTED BY IDOCK:   -1.40 KCAL/MOL
REMARK 927      BINDING AFFINITY PREDICTED BY RF-SCORE:    0.00 PKD
ROOT
HETATM    1  C   UNK A   0      -9.203   5.782  72.690  1.00  0.00    -0.137 C  
HETATM    2  N   UNK A   0     -10.290   6.286  71.863  1.00  0.00    -0.202 NA 
HETATM    3  C   UNK A   0     -11.407   7.007  72.538  1.00  0.00    -0.263 C  
HETATM    4  O   UNK A   0      -8.041   5.466  70.163  1.00  0.00    -0.086 OA 
HETATM    5  C   UNK A   0     -12.736   6.598  71.852  1.00  0.00    -0.212 C  
HETATM    6  C   UNK A   0     -10.222   6.414  67.710  1.00  0.00    -0.162 C  
HETATM    7  N   UNK A   0     -12.651   6.731  70.388  1.00  0.00    -0.459 NA 
HETATM    8  H   UNK A   0     -13.473   7.004  69.850  1.00  0.00     0.000 HD 
HETATM    9  H2  UNK A   0      -9.493   6.598  65.796  1.00  0.00     0.000 HD 
HETATM   10  C   UNK A   0     -11.442   6.483  69.741  1.00  0.00    -0.379 C  
HETATM   11  H   UNK A   0      -8.243   6.043  67.686  1.00  0.00     0.000 HD 
HETATM   12  C   UNK A   0     -10.313   6.212  70.443  1.00  0.00    -0.213 C  
HETATM   13  H1  UNK A   0     -11.221   6.894  65.954  1.00  0.00     0.000 HD 
HETATM   14  C   UNK A   0      -9.057   5.885  69.615  1.00  0.00    -0.137 C  
HETATM   15  N   UNK A   0     -11.386   6.544  68.380  1.00  0.00    -0.566 NA 
HETATM   16  N   UNK A   0     -10.327   6.655  66.381  1.00  0.00    -0.456 NA 
HETATM   17  N   UNK A   0      -9.091   6.113  68.250  1.00  0.00    -0.114 N  
ENDROOT
BRANCH   3  18
HETATM   18  C   UNK A   0     -11.181   8.542  72.469  1.00  0.00    -0.266 C  
BRANCH  18  19
HETATM   19  N   UNK A   0     -12.422   9.258  72.113  1.00  0.00    -0.367 NA 
HETATM   20  H   UNK A   0     -13.336   8.924  72.418  1.00  0.00     0.000 HD 
BRANCH  19  21
HETATM   21  C   UNK A   0     -12.286  10.418  71.336  1.00  0.00    -0.397 A  
HETATM   22  C   UNK A   0     -11.342  11.450  69.341  1.00  0.00    -0.365 A  
HETATM   23  C   UNK A   0     -11.982  12.649  69.655  1.00  0.00    -0.352 A  
HETATM   24  C   UNK A   0     -12.810  11.660  71.705  1.00  0.00    -0.454 A  
HETATM   25  C   UNK A   0     -11.487  10.347  70.187  1.00  0.00    -0.396 A  
HETATM   26  C   UNK A   0     -12.674  12.768  70.865  1.00  0.00    -0.277 A  
BRANCH  23  27
HETATM   27  C   UNK A   0     -11.906  13.791  68.708  1.00  0.00    -0.363 C  
ATOM     28  H   GLU A   1     -12.023  12.477  67.094  1.00  0.00     0.000 HD 
ATOM     29  N   GLU A   1     -11.911  13.454  67.364  1.00  0.00    -0.372 N  
HETATM   30  O   UNK A   0     -11.867  14.944  69.108  1.00  0.00    -0.299 OA 
BRANCH  29  31
ATOM     31  CA  GLU A   1     -11.757  14.483  66.313  1.00  0.00    -0.358 C  
ATOM     32  C   GLU A   1     -12.615  14.112  65.081  1.00  0.00    -0.408 C  
ATOM     33  O   GLU A   1     -13.232  12.912  65.181  1.00  0.00    -0.702 OA 
ATOM     34  OXT GLU A   1     -12.705  14.798  64.072  1.00  0.00    -0.786 OA 
BRANCH  31  35
ATOM     35  CB  GLU A   1     -10.271  14.626  65.935  1.00  0.00    -0.344 C  
BRANCH  35  36
ATOM     36  CG  GLU A   1      -9.853  16.067  65.616  1.00  0.00    -0.309 C  
ATOM     37  CD  GLU A   1      -8.549  16.454  66.267  1.00  0.00    -0.340 C  
ATOM     38  OE2 GLU A   1      -7.885  15.737  66.997  1.00  0.00    -0.195 OA 
ATOM     39  OE1 GLU A   1      -8.174  17.716  65.939  1.00  0.00    -0.534 OA 
ENDBRANCH  35  36
ENDBRANCH  31  35
ENDBRANCH  29  31
ENDBRANCH  23  27
ENDBRANCH  19  21
ENDBRANCH  18  19
ENDBRANCH   3  18
TORSDOF 7
ENDMDL
MODEL        4
REMARK 921   NORMALIZED FREE ENERGY PREDICTED BY IDOCK:   -8.10 KCAL/MOL
REMARK 922        TOTAL FREE ENERGY PREDICTED BY IDOCK:  -12.64 KCAL/MOL
REMARK 923 INTER-LIGAND FREE ENERGY PREDICTED BY IDOCK:  -11.45 KCAL/MOL
REMARK 924 INTRA-LIGAND FREE ENERGY PREDICTED BY IDOCK:   -1.20 KCAL/MOL
REMARK 927      BINDING AFFINITY PREDICTED BY RF-SCORE:    0.00 PKD
ROOT
HETATM    1  C   UNK A   0      -8.576   6.718  72.195  1.00  0.00    -0.117 C  
HETATM    2  N   UNK A   0      -9.825   6.975  71.493  1.00  0.00    -0.173 NA 
HETATM    3  C   UNK A   0     -10.835   7.849  72.157  1.00  0.00    -0.269 C  
HETATM    4  O   UNK A   0      -7.893   5.731  69.665  1.00  0.00    -0.092 OA 
HETATM    5  C   UNK A   0     -12.243   7.264  71.880  1.00  0.00    -0.313 C  
HETATM    6  C   UNK A   0     -10.546   5.970  67.525  1.00  0.00    -0.273 C  
HETATM    7  N   UNK A   0     -12.442   6.995  70.445  1.00  0.00    -0.601 NA 
HETATM    8  H   UNK A   0     -13.365   7.108  70.026  1.00  0.00     0.000 HD 
HETATM    9  H2  UNK A   0     -10.201   5.628  65.527  1.00  0.00     0.000 HD 
HETATM   10  C   UNK A   0     -11.365   6.584  69.663  1.00  0.00    -0.380 C  
HETATM   11  H   UNK A   0      -8.589   5.613  67.214  1.00  0.00     0.000 HD 
HETATM   12  C   UNK A   0     -10.110   6.518  70.177  1.00  0.00    -0.174 C  
HETATM   13  H1  UNK A   0     -11.883   5.951  65.937  1.00  0.00     0.000 HD 
HETATM   14  C   UNK A   0      -9.016   5.982  69.236  1.00  0.00    -0.122 C  
HETATM   15  N   UNK A   0     -11.569   6.273  68.352  1.00  0.00    -0.344 NA 
HETATM   16  N   UNK A   0     -10.912   5.840  66.228  1.00  0.00    -0.737 NA 
HETATM   17  N   UNK A   0      -9.318   5.830  67.894  1.00  0.00    -0.105 N  
ENDROOT
BRANCH   3  18
HETATM   18  C   UNK A   0     -10.712   9.308  71.640  1.00  0.00    -0.323 C  
BRANCH  18  19
HETATM   19  N   UNK A   0     -11.996   9.804  71.105  1.00  0.00    -0.347 NA 
HETATM   20  H   UNK A   0     -12.873   9.318  71.290  1.00  0.00     0.000 HD 
BRANCH  19  21
HETATM   21  C   UNK A   0     -11.953  10.972  70.329  1.00  0.00    -0.365 A  
HETATM   22  C   UNK A   0     -12.229  13.392  70.249  1.00  0.00    -0.405 A  
HETATM   23  C   UNK A   0     -11.845  13.394  68.908  1.00  0.00    -0.373 A  
HETATM   24  C   UNK A   0     -11.700  10.977  68.954  1.00  0.00    -0.400 A  
HETATM   25  C   UNK A   0     -12.292  12.182  70.947  1.00  0.00    -0.370 A  
HETATM   26  C   UNK A   0     -11.631  12.179  68.247  1.00  0.00    -0.382 A  
BRANCH  23  27
HETATM   27  C   UNK A   0     -11.686  14.686  68.193  1.00  0.00    -0.330 C  
ATOM     28  H   GLU A   1     -11.014  13.679  66.496  1.00  0.00     0.000 HD 
ATOM     29  N   GLU A   1     -11.186  14.597  66.903  1.00  0.00    -0.334 N  
HETATM   30  O   UNK A   0     -12.002  15.742  68.716  1.00  0.00    -0.374 OA 
BRANCH  29  31
ATOM     31  CA  GLU A   1     -10.899  15.810  66.106  1.00  0.00    -0.240 C  
ATOM     32  C   GLU A   1     -11.522  15.674  64.696  1.00  0.00    -0.303 C  
ATOM     33  O   GLU A   1     -12.099  14.472  64.463  1.00  0.00    -0.455 OA 
ATOM     34  OXT GLU A   1     -11.469  16.539  63.833  1.00  0.00    -1.145 OA 
BRANCH  31  35
ATOM     35  CB  GLU A   1      -9.378  16.033  66.023  1.00  0.00    -0.380 C  
BRANCH  35  36
ATOM     36  CG  GLU A   1      -8.832  16.955  67.121  1.00  0.00    -0.221 C  
ATOM     37  CD  GLU A   1      -9.072  18.415  66.829  1.00  0.00    -0.292 C  
ATOM     38  OE2 GLU A   1      -9.611  18.855  65.827  1.00  0.00    -0.419 OA 
ATOM     39  OE1 GLU A   1      -8.620  19.212  67.830  1.00  0.00    -0.290 OA 
ENDBRANCH  35  36
ENDBRANCH  31  35
ENDBRANCH  29  31
ENDBRANCH  23  27
ENDBRANCH  19  21
ENDBRANCH  18  19
ENDBRANCH   3  18
TORSDOF 7
ENDMDL
MODEL        5
REMARK 921   NORMALIZED FREE ENERGY PREDICTED BY IDOCK:   -7.97 KCAL/MOL
REMARK 922        TOTAL FREE ENERGY PREDICTED BY IDOCK:  -12.46 KCAL/MOL
REMARK 923 INTER-LIGAND FREE ENERGY PREDICTED BY IDOCK:  -11.62 KCAL/MOL
REMARK 924 INTRA-LIGAND FREE ENERGY PREDICTED BY IDOCK:   -0.84 KCAL/MOL
REMARK 927      BINDING AFFINITY PREDICTED BY RF-SCORE:    0.00 PKD
ROOT
HETATM    1  C   UNK A   0      -8.883  13.986  66.899  1.00  0.00    -0.194 C  
HETATM    2  N   UNK A   0      -9.822  14.873  66.229  1.00  0.00    -0.277 NA 
HETATM    3  C   UNK A   0     -11.017  14.265  65.576  1.00  0.00    -0.319 C  
HETATM    4  O   UNK A   0      -7.958  16.447  67.863  1.00  0.00    -0.150 OA 
HETATM    5  C   UNK A   0     -11.279  15.015  64.245  1.00  0.00    -0.006 C  
HETATM    6  C   UNK A   0      -9.760  19.019  66.519  1.00  0.00    -0.357 C  
HETATM    7  N   UNK A   0     -11.305  16.474  64.443  1.00  0.00    -1.197 NA 
HETATM    8  H   UNK A   0     -11.924  17.057  63.879  1.00  0.00     0.000 HD 
HETATM    9  H2  UNK A   0      -9.502  20.895  67.321  1.00  0.00     0.000 HD 
HETATM   10  C   UNK A   0     -10.480  17.055  65.404  1.00  0.00    -0.112 C  
HETATM   11  H   UNK A   0      -8.476  18.936  68.068  1.00  0.00     0.000 HD 
HETATM   12  C   UNK A   0      -9.720  16.292  66.230  1.00  0.00    -0.304 C  
HETATM   13  H1  UNK A   0     -10.604  20.829  65.950  1.00  0.00     0.000 HD 
HETATM   14  C   UNK A   0      -8.798  17.051  67.201  1.00  0.00    -0.218 C  
HETATM   15  N   UNK A   0     -10.460  18.412  65.538  1.00  0.00    -0.571 NA 
HETATM   16  N   UNK A   0      -9.977  20.353  66.598  1.00  0.00    -0.563 NA 
HETATM   17  N   UNK A   0      -8.967  18.418  67.338  1.00  0.00    -0.259 N  
ENDROOT
BRANCH   3  18
HETATM   18  C   UNK A   0     -12.246  14.337  66.521  1.00  0.00    -0.391 C  
BRANCH  18  19
HETATM   19  N   UNK A   0     -11.841  14.559  67.923  1.00  0.00    -0.459 NA 
HETATM   20  H   UNK A   0     -11.490  15.463  68.240  1.00  0.00     0.000 HD 
BRANCH  19  21
HETATM   21  C   UNK A   0     -11.959  13.470  68.799  1.00  0.00    -0.339 A  
HETATM   22  C   UNK A   0     -12.518  12.691  71.040  1.00  0.00    -0.354 A  
HETATM   23  C   UNK A   0     -12.295  11.373  70.640  1.00  0.00    -0.466 A  
HETATM   24  C   UNK A   0     -11.611  12.161  68.454  1.00  0.00    -0.381 A  
HETATM   25  C   UNK A   0     -12.337  13.731  70.123  1.00  0.00    -0.390 A  
HETATM   26  C   UNK A   0     -11.791  11.113  69.361  1.00  0.00    -0.415 A  
BRANCH  23  27
HETATM   27  C   UNK A   0     -12.579  10.263  71.584  1.00  0.00    -0.432 C  
ATOM     28  H   GLU A   1     -10.676   9.477  71.252  1.00  0.00     0.000 HD 
ATOM     29  N   GLU A   1     -11.563   9.331  71.734  1.00  0.00    -0.385 N  
HETATM   30  O   UNK A   0     -13.633  10.206  72.197  1.00  0.00    -0.368 OA 
BRANCH  29  31
ATOM     31  CA  GLU A   1     -11.740   8.130  72.578  1.00  0.00    -0.394 C  
ATOM     32  C   GLU A   1     -10.423   7.810  73.324  1.00  0.00    -0.294 C  
ATOM     33  O   GLU A   1      -9.389   8.614  72.984  1.00  0.00    -0.213 OA 
ATOM     34  OXT GLU A   1     -10.286   6.888  74.117  1.00  0.00    -0.373 OA 
BRANCH  31  35
ATOM     35  CB  GLU A   1     -12.191   6.942  71.709  1.00  0.00    -0.396 C  
BRANCH  35  36
ATOM     36  CG  GLU A   1     -11.460   6.851  70.365  1.00  0.00    -0.387 C  
ATOM     37  CD  GLU A   1     -10.537   5.660  70.281  1.00  0.00    -0.300 C  
ATOM     38  OE2 GLU A   1     -10.346   4.853  71.176  1.00  0.00    -0.209 OA 
ATOM     39  OE1 GLU A   1      -9.932   5.573  69.070  1.00  0.00    -0.152 OA 
ENDBRANCH  35  36
ENDBRANCH  31  35
ENDBRANCH  29  31
ENDBRANCH  23  27
ENDBRANCH  19  21
ENDBRANCH  18  19
ENDBRANCH   3  18
TORSDOF 7
ENDMDL
MODEL        6
REMARK 921   NORMALIZED FREE ENERGY PREDICTED BY IDOCK:   -7.90 KCAL/MOL
REMARK 922        TOTAL FREE ENERGY PREDICTED BY IDOCK:  -12.36 KCAL/MOL
REMARK 923 INTER-LIGAND FREE ENERGY PREDICTED BY IDOCK:  -10.73 KCAL/MOL
REMARK 924 INTRA-LIGAND FREE ENERGY PREDICTED BY IDOCK:   -1.63 KCAL/MOL
REMARK 927      BINDING AFFINITY PREDICTED BY RF-SCORE:    0.00 PKD
ROOT
HETATM    1  C   UNK A   0      -9.120   5.508  72.468  1.00  0.00    -0.136 C  
HETATM    2  N   UNK A   0     -10.156   6.171  71.690  1.00  0.00    -0.185 NA 
HETATM    3  C   UNK A   0     -11.132   7.034  72.414  1.00  0.00    -0.259 C  
HETATM    4  O   UNK A   0      -8.113   5.065  69.893  1.00  0.00    -0.073 OA 
HETATM    5  C   UNK A   0     -12.531   6.826  71.780  1.00  0.00    -0.349 C  
HETATM    6  C   UNK A   0     -10.232   6.345  67.538  1.00  0.00    -0.170 C  
HETATM    7  N   UNK A   0     -12.485   6.966  70.314  1.00  0.00    -0.560 NA 
HETATM    8  H   UNK A   0     -13.282   7.359  69.812  1.00  0.00     0.000 HD 
HETATM    9  H2  UNK A   0      -9.560   6.450  65.597  1.00  0.00     0.000 HD 
HETATM   10  C   UNK A   0     -11.351   6.558  69.617  1.00  0.00    -0.380 C  
HETATM   11  H   UNK A   0      -8.328   5.699  67.431  1.00  0.00     0.000 HD 
HETATM   12  C   UNK A   0     -10.244   6.120  70.271  1.00  0.00    -0.199 C  
HETATM   13  H1  UNK A   0     -11.222   6.985  65.828  1.00  0.00     0.000 HD 
HETATM   14  C   UNK A   0      -9.081   5.631  69.390  1.00  0.00    -0.117 C  
HETATM   15  N   UNK A   0     -11.339   6.629  68.255  1.00  0.00    -0.564 NA 
HETATM   16  N   UNK A   0     -10.354   6.617  66.217  1.00  0.00    -0.437 NA 
HETATM   17  N   UNK A   0      -9.135   5.880  68.029  1.00  0.00    -0.117 N  
ENDROOT
BRANCH   3  18
HETATM   18  C   UNK A   0     -10.694   8.522  72.349  1.00  0.00    -0.306 C  
BRANCH  18  19
HETATM   19  N   UNK A   0     -11.812   9.400  71.950  1.00  0.00    -0.368 NA 
HETATM   20  H   UNK A   0     -12.713   9.366  72.427  1.00  0.00     0.000 HD 
BRANCH  19  21
HETATM   21  C   UNK A   0     -11.578  10.282  70.884  1.00  0.00    -0.365 A  
HETATM   22  C   UNK A   0     -10.266  10.794  68.896  1.00  0.00    -0.219 A  
HETATM   23  C   UNK A   0     -11.045  11.930  68.672  1.00  0.00    -0.295 A  
HETATM   24  C   UNK A   0     -12.260  11.492  70.720  1.00  0.00    -0.463 A  
HETATM   25  C   UNK A   0     -10.529   9.985  70.005  1.00  0.00    -0.337 A  
HETATM   26  C   UNK A   0     -12.007  12.307  69.614  1.00  0.00    -0.347 A  
BRANCH  23  27
HETATM   27  C   UNK A   0     -10.828  12.736  67.443  1.00  0.00    -0.240 C  
ATOM     28  H   GLU A   1     -12.034  11.428  66.356  1.00  0.00     0.000 HD 
ATOM     29  N   GLU A   1     -11.436  12.253  66.296  1.00  0.00    -0.362 N  
HETATM   30  O   UNK A   0     -10.174  13.767  67.469  1.00  0.00    -0.238 OA 
BRANCH  29  31
ATOM     31  CA  GLU A   1     -11.237  12.909  64.985  1.00  0.00    -0.293 C  
ATOM     32  C   GLU A   1     -12.380  13.917  64.720  1.00  0.00    -0.400 C  
ATOM     33  O   GLU A   1     -13.344  13.917  65.670  1.00  0.00    -0.620 OA 
ATOM     34  OXT GLU A   1     -12.457  14.626  63.726  1.00  0.00    -0.799 OA 
BRANCH  31  35
ATOM     35  CB  GLU A   1     -11.163  11.845  63.874  1.00  0.00    -0.497 C  
BRANCH  35  36
ATOM     36  CG  GLU A   1      -9.761  11.677  63.277  1.00  0.00    -0.390 C  
ATOM     37  CD  GLU A   1      -9.062  10.434  63.769  1.00  0.00    -0.247 C  
ATOM     38  OE2 GLU A   1      -9.519   9.642  64.576  1.00  0.00    -0.253 OA 
ATOM     39  OE1 GLU A   1      -7.841  10.280  63.197  1.00  0.00    -0.149 OA 
ENDBRANCH  35  36
ENDBRANCH  31  35
ENDBRANCH  29  31
ENDBRANCH  23  27
ENDBRANCH  19  21
ENDBRANCH  18  19
ENDBRANCH   3  18
TORSDOF 7
ENDMDL
MODEL        7
REMARK 921   NORMALIZED FREE ENERGY PREDICTED BY IDOCK:   -7.66 KCAL/MOL
REMARK 922        TOTAL FREE ENERGY PREDICTED BY IDOCK:  -12.03 KCAL/MOL
REMARK 923 INTER-LIGAND FREE ENERGY PREDICTED BY IDOCK:  -10.66 KCAL/MOL
REMARK 924 INTRA-LIGAND FREE ENERGY PREDICTED BY IDOCK:   -1.37 KCAL/MOL
REMARK 927      BINDING AFFINITY PREDICTED BY RF-SCORE:    0.00 PKD
ROOT
HETATM    1  C   UNK A   0      -7.041  16.100  69.434  1.00  0.00    -0.215 C  
HETATM    2  N   UNK A   0      -8.200  16.133  68.554  1.00  0.00    -0.176 NA 
HETATM    3  C   UNK A   0      -9.144  14.980  68.596  1.00  0.00    -0.191 C  
HETATM    4  O   UNK A   0      -6.924  18.777  68.622  1.00  0.00    -0.263 OA 
HETATM    5  C   UNK A   0      -9.611  14.680  67.148  1.00  0.00    -0.233 C  
HETATM    6  C   UNK A   0      -9.415  19.466  66.388  1.00  0.00    -0.373 C  
HETATM    7  N   UNK A   0     -10.085  15.900  66.471  1.00  0.00    -0.270 NA 
HETATM    8  H   UNK A   0     -10.847  15.847  65.795  1.00  0.00     0.000 HD 
HETATM    9  H2  UNK A   0      -9.752  21.435  65.903  1.00  0.00     0.000 HD 
HETATM   10  C   UNK A   0      -9.488  17.125  66.757  1.00  0.00    -0.267 C  
HETATM   11  H   UNK A   0      -8.182  20.657  67.444  1.00  0.00     0.000 HD 
HETATM   12  C   UNK A   0      -8.538  17.235  67.721  1.00  0.00    -0.225 C  
HETATM   13  H1  UNK A   0     -10.768  20.283  65.041  1.00  0.00     0.000 HD 
HETATM   14  C   UNK A   0      -7.903  18.626  67.895  1.00  0.00    -0.257 C  
HETATM   15  N   UNK A   0      -9.886  18.239  66.079  1.00  0.00    -0.534 NA 
HETATM   16  N   UNK A   0     -10.031  20.470  65.721  1.00  0.00    -0.519 NA 
HETATM   17  N   UNK A   0      -8.484  19.702  67.247  1.00  0.00    -0.296 N  
ENDROOT
BRANCH   3  18
HETATM   18  C   UNK A   0     -10.346  15.297  69.527  1.00  0.00    -0.262 C  
BRANCH  18  19
HETATM   19  N   UNK A   0     -11.570  14.597  69.091  1.00  0.00    -0.284 NA 
HETATM   20  H   UNK A   0     -12.128  14.937  68.308  1.00  0.00     0.000 HD 
BRANCH  19  21
HETATM   21  C   UNK A   0     -11.931  13.442  69.802  1.00  0.00    -0.330 A  
HETATM   22  C   UNK A   0     -11.959  11.007  69.881  1.00  0.00    -0.427 A  
HETATM   23  C   UNK A   0     -12.543  11.052  71.147  1.00  0.00    -0.522 A  
HETATM   24  C   UNK A   0     -12.635  13.469  71.009  1.00  0.00    -0.438 A  
HETATM   25  C   UNK A   0     -11.668  12.200  69.212  1.00  0.00    -0.386 A  
HETATM   26  C   UNK A   0     -12.929  12.283  71.688  1.00  0.00    -0.416 A  
BRANCH  23  27
HETATM   27  C   UNK A   0     -12.765   9.790  71.897  1.00  0.00    -0.410 C  
ATOM     28  H   GLU A   1     -10.792   9.217  71.542  1.00  0.00     0.000 HD 
ATOM     29  N   GLU A   1     -11.680   8.929  71.952  1.00  0.00    -0.350 N  
HETATM   30  O   UNK A   0     -13.831   9.556  72.443  1.00  0.00    -0.424 OA 
BRANCH  29  31
ATOM     31  CA  GLU A   1     -11.784   7.601  72.595  1.00  0.00    -0.270 C  
ATOM     32  C   GLU A   1     -10.462   7.261  73.321  1.00  0.00    -0.370 C  
ATOM     33  O   GLU A   1      -9.483   8.178  73.141  1.00  0.00    -0.267 OA 
ATOM     34  OXT GLU A   1     -10.272   6.238  73.966  1.00  0.00    -0.255 OA 
BRANCH  31  35
ATOM     35  CB  GLU A   1     -12.131   6.535  71.540  1.00  0.00    -0.363 C  
BRANCH  35  36
ATOM     36  CG  GLU A   1     -11.378   6.713  70.216  1.00  0.00    -0.431 C  
ATOM     37  CD  GLU A   1     -10.407   5.591  69.941  1.00  0.00    -0.298 C  
ATOM     38  OE2 GLU A   1     -10.196   4.645  70.682  1.00  0.00    -0.217 OA 
ATOM     39  OE1 GLU A   1      -9.782   5.743  68.747  1.00  0.00    -0.122 OA 
ENDBRANCH  35  36
ENDBRANCH  31  35
ENDBRANCH  29  31
ENDBRANCH  23  27
ENDBRANCH  19  21
ENDBRANCH  18  19
ENDBRANCH   3  18
TORSDOF 7
ENDMDL
MODEL        8
REMARK 921   NORMALIZED FREE ENERGY PREDICTED BY IDOCK:   -7.65 KCAL/MOL
REMARK 922        TOTAL FREE ENERGY PREDICTED BY IDOCK:  -12.02 KCAL/MOL
REMARK 923 INTER-LIGAND FREE ENERGY PREDICTED BY IDOCK:  -10.90 KCAL/MOL
REMARK 924 INTRA-LIGAND FREE ENERGY PREDICTED BY IDOCK:   -1.12 KCAL/MOL
REMARK 927      BINDING AFFINITY PREDICTED BY RF-SCORE:    0.00 PKD
ROOT
HETATM    1  C   UNK A   0      -9.052   9.536  70.204  1.00  0.00    -0.240 C  
HETATM    2  N   UNK A   0      -9.983   8.418  70.169  1.00  0.00    -0.185 NA 
HETATM    3  C   UNK A   0     -10.887   8.222  71.339  1.00  0.00    -0.239 C  
HETATM    4  O   UNK A   0      -8.813   8.825  67.507  1.00  0.00    -0.133 OA 
HETATM    5  C   UNK A   0     -11.008   6.701  71.612  1.00  0.00    -0.241 C  
HETATM    6  C   UNK A   0     -10.748   6.097  66.807  1.00  0.00    -0.299 C  
HETATM    7  N   UNK A   0     -11.342   5.957  70.385  1.00  0.00    -0.244 NA 
HETATM    8  H   UNK A   0     -11.930   5.125  70.435  1.00  0.00     0.000 HD 
HETATM    9  H2  UNK A   0     -11.010   5.587  64.833  1.00  0.00     0.000 HD 
HETATM   10  C   UNK A   0     -10.852   6.395  69.157  1.00  0.00    -0.322 C  
HETATM   11  H   UNK A   0      -9.813   7.428  65.621  1.00  0.00     0.000 HD 
HETATM   12  C   UNK A   0     -10.147   7.551  69.054  1.00  0.00    -0.192 C  
HETATM   13  H1  UNK A   0     -11.779   4.495  65.980  1.00  0.00     0.000 HD 
HETATM   14  C   UNK A   0      -9.598   7.892  67.658  1.00  0.00    -0.150 C  
HETATM   15  N   UNK A   0     -11.110   5.666  68.034  1.00  0.00    -0.053 NA 
HETATM   16  N   UNK A   0     -11.219   5.328  65.797  1.00  0.00    -0.773 NA 
HETATM   17  N   UNK A   0     -10.041   7.150  66.576  1.00  0.00    -0.442 N  
ENDROOT
BRANCH   3  18
HETATM   18  C   UNK A   0     -12.275   8.862  71.065  1.00  0.00    -0.203 C  
BRANCH  18  19
HETATM   19  N   UNK A   0     -12.363  10.225  71.626  1.00  0.00    -0.384 NA 
HETATM   20  H   UNK A   0     -12.511  10.382  72.623  1.00  0.00     0.000 HD 
BRANCH  19  21
HETATM   21  C   UNK A   0     -12.236  11.293  70.725  1.00  0.00    -0.380 A  
HETATM   22  C   UNK A   0     -12.256  13.707  70.389  1.00  0.00    -0.434 A  
HETATM   23  C   UNK A   0     -11.945  13.524  69.042  1.00  0.00    -0.376 A  
HETATM   24  C   UNK A   0     -12.058  11.124  69.349  1.00  0.00    -0.396 A  
HETATM   25  C   UNK A   0     -12.411  12.592  71.219  1.00  0.00    -0.276 A  
HETATM   26  C   UNK A   0     -11.898  12.231  68.511  1.00  0.00    -0.359 A  
BRANCH  23  27
HETATM   27  C   UNK A   0     -11.686  14.707  68.183  1.00  0.00    -0.330 C  
ATOM     28  H   GLU A   1     -11.533  13.475  66.508  1.00  0.00     0.000 HD 
ATOM     29  N   GLU A   1     -11.457  14.435  66.843  1.00  0.00    -0.351 N  
HETATM   30  O   UNK A   0     -11.703  15.839  68.641  1.00  0.00    -0.375 OA 
BRANCH  29  31
ATOM     31  CA  GLU A   1     -11.104  15.509  65.889  1.00  0.00    -0.205 C  
ATOM     32  C   GLU A   1     -12.032  15.444  64.654  1.00  0.00    -0.176 C  
ATOM     33  O   GLU A   1     -12.882  14.391  64.659  1.00  0.00    -0.643 OA 
ATOM     34  OXT GLU A   1     -11.989  16.230  63.717  1.00  0.00    -0.973 OA 
BRANCH  31  35
ATOM     35  CB  GLU A   1      -9.625  15.383  65.483  1.00  0.00    -0.253 C  
BRANCH  35  36
ATOM     36  CG  GLU A   1      -8.646  15.637  66.636  1.00  0.00    -0.330 C  
ATOM     37  CD  GLU A   1      -8.011  17.003  66.572  1.00  0.00    -0.295 C  
ATOM     38  OE2 GLU A   1      -8.207  17.832  65.698  1.00  0.00    -0.490 OA 
ATOM     39  OE1 GLU A   1      -7.181  17.226  67.623  1.00  0.00    -0.157 OA 
ENDBRANCH  35  36
ENDBRANCH  31  35
ENDBRANCH  29  31
ENDBRANCH  23  27
ENDBRANCH  19  21
ENDBRANCH  18  19
ENDBRANCH   3  18
TORSDOF 7
ENDMDL
MODEL        9
REMARK 921   NORMALIZED FREE ENERGY PREDICTED BY IDOCK:   -7.65 KCAL/MOL
REMARK 922        TOTAL FREE ENERGY PREDICTED BY IDOCK:  -12.01 KCAL/MOL
REMARK 923 INTER-LIGAND FREE ENERGY PREDICTED BY IDOCK:  -10.80 KCAL/MOL
REMARK 924 INTRA-LIGAND FREE ENERGY PREDICTED BY IDOCK:   -1.21 KCAL/MOL
REMARK 927      BINDING AFFINITY PREDICTED BY RF-SCORE:    0.00 PKD
ROOT
HETATM    1  C   UNK A   0      -9.039   8.894  65.516  1.00  0.00    -0.190 C  
HETATM    2  N   UNK A   0      -9.839   9.963  66.095  1.00  0.00    -0.241 NA 
HETATM    3  C   UNK A   0      -9.805  10.140  67.576  1.00  0.00    -0.177 C  
HETATM    4  O   UNK A   0      -9.699  10.291  63.181  1.00  0.00    -0.301 OA 
HETATM    5  C   UNK A   0     -11.234  10.497  68.057  1.00  0.00    -0.294 C  
HETATM    6  C   UNK A   0     -11.725  12.946  63.901  1.00  0.00    -0.460 C  
HETATM    7  N   UNK A   0     -11.808  11.604  67.272  1.00  0.00    -0.626 NA 
HETATM    8  H   UNK A   0     -12.435  12.275  67.715  1.00  0.00     0.000 HD 
HETATM    9  H2  UNK A   0     -12.072  14.321  62.412  1.00  0.00     0.000 HD 
HETATM   10  C   UNK A   0     -11.490  11.729  65.921  1.00  0.00    -0.207 C  
HETATM   11  H   UNK A   0     -10.683  12.453  62.250  1.00  0.00     0.000 HD 
HETATM   12  C   UNK A   0     -10.584  10.905  65.334  1.00  0.00    -0.173 C  
HETATM   13  H1  UNK A   0     -12.932  14.636  63.915  1.00  0.00     0.000 HD 
HETATM   14  C   UNK A   0     -10.369  11.097  63.822  1.00  0.00    -0.386 C  
HETATM   15  N   UNK A   0     -12.074  12.716  65.184  1.00  0.00    -0.433 NA 
HETATM   16  N   UNK A   0     -12.291  14.057  63.372  1.00  0.00    -1.154 NA 
HETATM   17  N   UNK A   0     -10.915  12.215  63.215  1.00  0.00    -0.673 N  
ENDROOT
BRANCH   3  18
HETATM   18  C   UNK A   0      -8.781  11.241  67.966  1.00  0.00    -0.144 C  
BRANCH  18  19
HETATM   19  N   UNK A   0      -9.456  12.494  68.361  1.00  0.00    -0.320 NA 
HETATM   20  H   UNK A   0     -10.303  12.487  68.929  1.00  0.00     0.000 HD 
BRANCH  19  21
HETATM   21  C   UNK A   0      -8.879  13.693  67.918  1.00  0.00    -0.188 A  
HETATM   22  C   UNK A   0      -9.234  15.967  67.116  1.00  0.00    -0.222 A  
HETATM   23  C   UNK A   0      -7.854  16.169  67.072  1.00  0.00    -0.258 A  
HETATM   24  C   UNK A   0      -7.503  13.868  67.741  1.00  0.00    -0.174 A  
HETATM   25  C   UNK A   0      -9.737  14.728  67.526  1.00  0.00    -0.213 A  
HETATM   26  C   UNK A   0      -6.988  15.102  67.334  1.00  0.00    -0.195 A  
BRANCH  23  27
HETATM   27  C   UNK A   0      -7.321  17.512  66.728  1.00  0.00    -0.215 C  
ATOM     28  H   GLU A   1      -7.117  17.963  68.754  1.00  0.00     0.000 HD 
ATOM     29  N   GLU A   1      -7.020  18.329  67.806  1.00  0.00    -0.209 N  
HETATM   30  O   UNK A   0      -7.145  17.846  65.567  1.00  0.00    -0.487 OA 
BRANCH  29  31
ATOM     31  CA  GLU A   1      -6.559  19.721  67.611  1.00  0.00    -0.231 C  
ATOM     32  C   GLU A   1      -5.762  20.193  68.850  1.00  0.00    -0.264 C  
ATOM     33  O   GLU A   1      -5.736  19.294  69.861  1.00  0.00    -0.228 OA 
ATOM     34  OXT GLU A   1      -5.235  21.292  68.953  1.00  0.00    -0.294 OA 
BRANCH  31  35
ATOM     35  CB  GLU A   1      -7.767  20.638  67.343  1.00  0.00    -0.355 C  
BRANCH  35  36
ATOM     36  CG  GLU A   1      -9.079  20.119  67.944  1.00  0.00    -0.352 C  
ATOM     37  CD  GLU A   1     -10.112  19.793  66.894  1.00  0.00    -0.437 C  
ATOM     38  OE2 GLU A   1      -9.967  19.941  65.692  1.00  0.00    -0.354 OA 
ATOM     39  OE1 GLU A   1     -11.250  19.295  67.442  1.00  0.00    -0.344 OA 
ENDBRANCH  35  36
ENDBRANCH  31  35
ENDBRANCH  29  31
ENDBRANCH  23  27
ENDBRANCH  19  21
ENDBRANCH  18  19
ENDBRANCH   3  18
TORSDOF 7
ENDMDL
MODEL       10
REMARK 921   NORMALIZED FREE ENERGY PREDICTED BY IDOCK:   -7.58 KCAL/MOL
REMARK 922        TOTAL FREE ENERGY PREDICTED BY IDOCK:  -11.92 KCAL/MOL
REMARK 923 INTER-LIGAND FREE ENERGY PREDICTED BY IDOCK:  -10.87 KCAL/MOL
REMARK 924 INTRA-LIGAND FREE ENERGY PREDICTED BY IDOCK:   -1.05 KCAL/MOL
REMARK 927      BINDING AFFINITY PREDICTED BY RF-SCORE:    0.00 PKD
ROOT
HETATM    1  C   UNK A   0      -9.586   6.515  69.078  1.00  0.00    -0.132 C  
HETATM    2  N   UNK A   0     -10.075   7.835  69.448  1.00  0.00    -0.190 NA 
HETATM    3  C   UNK A   0      -9.705   8.989  68.578  1.00  0.00    -0.159 C  
HETATM    4  O   UNK A   0     -11.464   5.781  71.021  1.00  0.00    -0.167 OA 
HETATM    5  C   UNK A   0      -9.411  10.210  69.487  1.00  0.00    -0.210 C  
HETATM    6  C   UNK A   0     -12.927   8.550  72.385  1.00  0.00    -0.307 C  
HETATM    7  N   UNK A   0     -10.496  10.434  70.457  1.00  0.00    -0.374 NA 
HETATM    8  H   UNK A   0     -10.736  11.382  70.747  1.00  0.00     0.000 HD 
HETATM    9  H2  UNK A   0     -14.573   8.273  73.586  1.00  0.00     0.000 HD 
HETATM   10  C   UNK A   0     -11.193   9.346  70.978  1.00  0.00    -0.342 C  
HETATM   11  H   UNK A   0     -13.407   6.596  72.458  1.00  0.00     0.000 HD 
HETATM   12  C   UNK A   0     -10.955   8.084  70.537  1.00  0.00    -0.247 C  
HETATM   13  H1  UNK A   0     -14.044   9.947  73.441  1.00  0.00     0.000 HD 
HETATM   14  C   UNK A   0     -11.737   6.959  71.238  1.00  0.00    -0.328 C  
HETATM   15  N   UNK A   0     -12.152   9.555  71.924  1.00  0.00    -0.365 NA 
HETATM   16  N   UNK A   0     -13.925   8.962  73.202  1.00  0.00    -1.215 NA 
HETATM   17  N   UNK A   0     -12.777   7.306  72.083  1.00  0.00    -0.514 N  
ENDROOT
BRANCH   3  18
HETATM   18  C   UNK A   0     -10.843   9.293  67.568  1.00  0.00    -0.112 C  
BRANCH  18  19
HETATM   19  N   UNK A   0     -10.371  10.145  66.458  1.00  0.00    -0.223 NA 
HETATM   20  H   UNK A   0     -10.013   9.742  65.592  1.00  0.00     0.000 HD 
BRANCH  19  21
HETATM   21  C   UNK A   0     -10.436  11.533  66.651  1.00  0.00    -0.238 A  
HETATM   22  C   UNK A   0     -11.811  13.462  67.222  1.00  0.00    -0.422 A  
HETATM   23  C   UNK A   0     -10.693  14.291  67.126  1.00  0.00    -0.282 A  
HETATM   24  C   UNK A   0      -9.358  12.394  66.428  1.00  0.00    -0.219 A  
HETATM   25  C   UNK A   0     -11.679  12.093  66.973  1.00  0.00    -0.373 A  
HETATM   26  C   UNK A   0      -9.477  13.764  66.677  1.00  0.00    -0.289 A  
BRANCH  23  27
HETATM   27  C   UNK A   0     -10.812  15.727  67.483  1.00  0.00    -0.315 C  
ATOM     28  H   GLU A   1      -9.571  16.240  65.888  1.00  0.00     0.000 HD 
ATOM     29  N   GLU A   1     -10.087  16.602  66.690  1.00  0.00    -0.290 N  
HETATM   30  O   UNK A   0     -11.526  16.094  68.403  1.00  0.00    -0.369 OA 
BRANCH  29  31
ATOM     31  CA  GLU A   1     -10.047  18.052  66.982  1.00  0.00    -0.346 C  
ATOM     32  C   GLU A   1     -10.644  18.846  65.796  1.00  0.00    -0.296 C  
ATOM     33  O   GLU A   1     -10.977  18.079  64.733  1.00  0.00    -0.706 OA 
ATOM     34  OXT GLU A   1     -10.767  20.063  65.774  1.00  0.00    -0.432 OA 
BRANCH  31  35
ATOM     35  CB  GLU A   1      -8.600  18.487  67.273  1.00  0.00    -0.268 C  
BRANCH  35  36
ATOM     36  CG  GLU A   1      -7.577  17.927  66.277  1.00  0.00    -0.315 C  
ATOM     37  CD  GLU A   1      -6.872  19.006  65.495  1.00  0.00    -0.239 C  
ATOM     38  OE2 GLU A   1      -7.085  20.203  65.595  1.00  0.00    -0.294 OA 
ATOM     39  OE1 GLU A   1      -5.941  18.494  64.650  1.00  0.00    -0.291 OA 
ENDBRANCH  35  36
ENDBRANCH  31  35
ENDBRANCH  29  31
ENDBRANCH  23  27
ENDBRANCH  19  21
ENDBRANCH  18  19
ENDBRANCH   3  18
TORSDOF 7
ENDMDL
MODEL       11
REMARK 921   NORMALIZED FREE ENERGY PREDICTED BY IDOCK:   -7.52 KCAL/MOL
REMARK 922        TOTAL FREE ENERGY PREDICTED BY IDOCK:  -11.83 KCAL/MOL
REMARK 923 INTER-LIGAND FREE ENERGY PREDICTED BY IDOCK:  -10.48 KCAL/MOL
REMARK 924 INTRA-LIGAND FREE ENERGY PREDICTED BY IDOCK:   -1.35 KCAL/MOL
REMARK 927      BINDING AFFINITY PREDICTED BY RF-SCORE:    0.00 PKD
ROOT
HETATM    1  C   UNK A   0      -8.941   9.750  70.176  1.00  0.00    -0.195 C  
HETATM    2  N   UNK A   0     -10.092   8.864  70.090  1.00  0.00    -0.183 NA 
HETATM    3  C   UNK A   0     -11.205   9.063  71.062  1.00  0.00    -0.295 C  
HETATM    4  O   UNK A   0      -8.417   8.559  67.697  1.00  0.00    -0.127 OA 
HETATM    5  C   UNK A   0     -11.732   7.670  71.492  1.00  0.00    -0.281 C  
HETATM    6  C   UNK A   0     -10.800   6.224  66.958  1.00  0.00    -0.383 C  
HETATM    7  N   UNK A   0     -12.019   6.818  70.325  1.00  0.00    -0.609 NA 
HETATM    8  H   UNK A   0     -12.789   6.150  70.355  1.00  0.00     0.000 HD 
HETATM    9  H2  UNK A   0     -10.832   5.455  65.052  1.00  0.00     0.000 HD 
HETATM   10  C   UNK A   0     -11.233   6.929  69.180  1.00  0.00    -0.108 C  
HETATM   11  H   UNK A   0      -9.382   7.107  65.834  1.00  0.00     0.000 HD 
HETATM   12  C   UNK A   0     -10.265   7.876  69.082  1.00  0.00    -0.216 C  
HETATM   13  H1  UNK A   0     -12.026   4.760  66.143  1.00  0.00     0.000 HD 
HETATM   14  C   UNK A   0      -9.418   7.852  67.797  1.00  0.00    -0.144 C  
HETATM   15  N   UNK A   0     -11.461   6.092  68.127  1.00  0.00    -0.345 NA 
HETATM   16  N   UNK A   0     -11.260   5.412  65.977  1.00  0.00    -0.774 NA 
HETATM   17  N   UNK A   0      -9.832   7.048  66.749  1.00  0.00    -0.210 N  
ENDROOT
BRANCH   3  18
HETATM   18  C   UNK A   0     -12.329   9.927  70.430  1.00  0.00    -0.076 C  
BRANCH  18  19
HETATM   19  N   UNK A   0     -12.151  11.360  70.738  1.00  0.00    -0.361 NA 
HETATM   20  H   UNK A   0     -12.212  11.711  71.694  1.00  0.00     0.000 HD 
BRANCH  19  21
HETATM   21  C   UNK A   0     -11.896  12.216  69.656  1.00  0.00    -0.322 A  
HETATM   22  C   UNK A   0     -11.723  14.510  68.853  1.00  0.00    -0.354 A  
HETATM   23  C   UNK A   0     -11.348  14.043  67.593  1.00  0.00    -0.336 A  
HETATM   24  C   UNK A   0     -11.650  11.764  68.357  1.00  0.00    -0.380 A  
HETATM   25  C   UNK A   0     -12.006  13.596  69.872  1.00  0.00    -0.415 A  
HETATM   26  C   UNK A   0     -11.362  12.669  67.331  1.00  0.00    -0.367 A  
BRANCH  23  27
HETATM   27  C   UNK A   0     -10.955  15.012  66.539  1.00  0.00    -0.327 C  
ATOM     28  H   GLU A   1      -9.470  15.783  67.783  1.00  0.00     0.000 HD 
ATOM     29  N   GLU A   1      -9.932  15.883  66.879  1.00  0.00    -0.243 N  
HETATM   30  O   UNK A   0     -11.494  15.010  65.443  1.00  0.00    -0.343 OA 
BRANCH  29  31
ATOM     31  CA  GLU A   1      -9.496  16.954  65.957  1.00  0.00    -0.195 C  
ATOM     32  C   GLU A   1      -8.017  17.318  66.231  1.00  0.00    -0.295 C  
ATOM     33  O   GLU A   1      -7.478  16.668  67.289  1.00  0.00    -0.142 OA 
ATOM     34  OXT GLU A   1      -7.383  18.151  65.598  1.00  0.00    -0.528 OA 
BRANCH  31  35
ATOM     35  CB  GLU A   1     -10.410  18.183  66.113  1.00  0.00    -0.394 C  
BRANCH  35  36
ATOM     36  CG  GLU A   1     -10.707  18.547  67.573  1.00  0.00    -0.419 C  
ATOM     37  CD  GLU A   1     -10.076  19.852  67.989  1.00  0.00    -0.440 C  
ATOM     38  OE2 GLU A   1      -9.374  20.554  67.280  1.00  0.00    -0.395 OA 
ATOM     39  OE1 GLU A   1     -10.385  20.178  69.270  1.00  0.00    -0.281 OA 
ENDBRANCH  35  36
ENDBRANCH  31  35
ENDBRANCH  29  31
ENDBRANCH  23  27
ENDBRANCH  19  21
ENDBRANCH  18  19
ENDBRANCH   3  18
TORSDOF 7
ENDMDL
MODEL       12
REMARK 921   NORMALIZED FREE ENERGY PREDICTED BY IDOCK:   -7.52 KCAL/MOL
REMARK 922        TOTAL FREE ENERGY PREDICTED BY IDOCK:  -11.82 KCAL/MOL
REMARK 923 INTER-LIGAND FREE ENERGY PREDICTED BY IDOCK:  -10.87 KCAL/MOL
REMARK 924 INTRA-LIGAND FREE ENERGY PREDICTED BY IDOCK:   -0.95 KCAL/MOL
REMARK 927      BINDING AFFINITY PREDICTED BY RF-SCORE:    0.00 PKD
ROOT
HETATM    1  C   UNK A   0     -10.563  16.835  69.631  1.00  0.00    -0.242 C  
HETATM    2  N   UNK A   0      -9.737  16.565  68.463  1.00  0.00    -0.231 NA 
HETATM    3  C   UNK A   0      -9.670  15.163  67.960  1.00  0.00    -0.209 C  
HETATM    4  O   UNK A   0     -10.082  19.463  68.792  1.00  0.00    -0.432 OA 
HETATM    5  C   UNK A   0      -8.215  14.874  67.511  1.00  0.00    -0.182 C  
HETATM    6  C   UNK A   0      -8.041  19.495  66.052  1.00  0.00    -0.291 C  
HETATM    7  N   UNK A   0      -7.710  15.925  66.611  1.00  0.00    -0.213 NA 
HETATM    8  H   UNK A   0      -7.061  15.687  65.861  1.00  0.00     0.000 HD 
HETATM    9  H2  UNK A   0      -7.813  21.274  65.046  1.00  0.00     0.000 HD 
HETATM   10  C   UNK A   0      -8.122  17.243  66.788  1.00  0.00    -0.246 C  
HETATM   11  H   UNK A   0      -9.190  20.918  66.896  1.00  0.00     0.000 HD 
HETATM   12  C   UNK A   0      -9.057  17.567  67.717  1.00  0.00    -0.249 C  
HETATM   13  H1  UNK A   0      -6.855  19.942  64.407  1.00  0.00     0.000 HD 
HETATM   14  C   UNK A   0      -9.378  19.065  67.867  1.00  0.00    -0.308 C  
HETATM   15  N   UNK A   0      -7.601  18.221  65.993  1.00  0.00    -0.454 NA 
HETATM   16  N   UNK A   0      -7.525  20.296  65.090  1.00  0.00    -0.447 NA 
HETATM   17  N   UNK A   0      -8.888  19.943  66.915  1.00  0.00    -0.327 N  
ENDROOT
BRANCH   3  18
HETATM   18  C   UNK A   0     -10.677  14.956  66.796  1.00  0.00    -0.312 C  
BRANCH  18  19
HETATM   19  N   UNK A   0     -11.999  14.527  67.291  1.00  0.00    -0.511 NA 
HETATM   20  H   UNK A   0     -12.860  14.955  66.951  1.00  0.00     0.000 HD 
BRANCH  19  21
HETATM   21  C   UNK A   0     -12.018  13.504  68.250  1.00  0.00    -0.342 A  
HETATM   22  C   UNK A   0     -12.355  12.885  70.583  1.00  0.00    -0.385 A  
HETATM   23  C   UNK A   0     -12.147  11.543  70.260  1.00  0.00    -0.444 A  
HETATM   24  C   UNK A   0     -11.680  12.176  67.969  1.00  0.00    -0.409 A  
HETATM   25  C   UNK A   0     -12.278  13.856  69.581  1.00  0.00    -0.374 A  
HETATM   26  C   UNK A   0     -11.758  11.196  68.962  1.00  0.00    -0.408 A  
BRANCH  23  27
HETATM   27  C   UNK A   0     -12.323  10.502  71.304  1.00  0.00    -0.397 C  
ATOM     28  H   GLU A   1     -10.789   9.374  70.455  1.00  0.00     0.000 HD 
ATOM     29  N   GLU A   1     -11.497   9.395  71.189  1.00  0.00    -0.321 N  
HETATM   30  O   UNK A   0     -13.131  10.642  72.208  1.00  0.00    -0.392 OA 
BRANCH  29  31
ATOM     31  CA  GLU A   1     -11.620   8.245  72.111  1.00  0.00    -0.364 C  
ATOM     32  C   GLU A   1     -10.278   8.008  72.843  1.00  0.00    -0.314 C  
ATOM     33  O   GLU A   1      -9.276   8.817  72.429  1.00  0.00    -0.361 OA 
ATOM     34  OXT GLU A   1     -10.097   7.142  73.688  1.00  0.00    -0.282 OA 
BRANCH  31  35
ATOM     35  CB  GLU A   1     -12.057   6.993  71.329  1.00  0.00    -0.403 C  
BRANCH  35  36
ATOM     36  CG  GLU A   1     -11.280   6.781  70.024  1.00  0.00    -0.380 C  
ATOM     37  CD  GLU A   1     -10.445   5.525  70.038  1.00  0.00    -0.303 C  
ATOM     38  OE2 GLU A   1     -10.350   4.753  70.977  1.00  0.00    -0.199 OA 
ATOM     39  OE1 GLU A   1      -9.800   5.333  68.860  1.00  0.00    -0.140 OA 
ENDBRANCH  35  36
ENDBRANCH  31  35
ENDBRANCH  29  31
ENDBRANCH  23  27
ENDBRANCH  19  21
ENDBRANCH  18  19
ENDBRANCH   3  18
TORSDOF 7
ENDMDL
MODEL       13
REMARK 921   NORMALIZED FREE ENERGY PREDICTED BY IDOCK:   -7.43 KCAL/MOL
REMARK 922        TOTAL FREE ENERGY PREDICTED BY IDOCK:  -11.70 KCAL/MOL
REMARK 923 INTER-LIGAND FREE ENERGY PREDICTED BY IDOCK:  -11.14 KCAL/MOL
REMARK 924 INTRA-LIGAND FREE ENERGY PREDICTED BY IDOCK:   -0.56 KCAL/MOL
REMARK 927      BINDING AFFINITY PREDICTED BY RF-SCORE:    0.00 PKD
ROOT
HETATM    1  C   UNK A   0      -8.806   9.583  69.872  1.00  0.00    -0.211 C  
HETATM    2  N   UNK A   0     -10.095  10.255  69.937  1.00  0.00    -0.389 NA 
HETATM    3  C   UNK A   0     -10.404  11.281  68.899  1.00  0.00    -0.195 C  
HETATM    4  O   UNK A   0     -10.087   7.940  71.743  1.00  0.00    -0.175 OA 
HETATM    5  C   UNK A   0     -11.158  12.452  69.580  1.00  0.00    -0.016 C  
HETATM    6  C   UNK A   0     -13.227   9.106  72.415  1.00  0.00    -0.444 C  
HETATM    7  N   UNK A   0     -12.290  11.966  70.388  1.00  0.00    -0.286 NA 
HETATM    8  H   UNK A   0     -13.139  12.526  70.467  1.00  0.00     0.000 HD 
HETATM    9  H2  UNK A   0     -14.491   7.894  73.494  1.00  0.00     0.000 HD 
HETATM   10  C   UNK A   0     -12.196  10.740  71.042  1.00  0.00    -0.380 C  
HETATM   11  H   UNK A   0     -12.325   7.351  72.817  1.00  0.00     0.000 HD 
HETATM   12  C   UNK A   0     -11.116   9.936  70.874  1.00  0.00    -0.348 C  
HETATM   13  H1  UNK A   0     -15.161   9.468  73.079  1.00  0.00     0.000 HD 
HETATM   14  C   UNK A   0     -11.096   8.640  71.705  1.00  0.00    -0.305 C  
HETATM   15  N   UNK A   0     -13.221  10.327  71.841  1.00  0.00    -0.455 NA 
HETATM   16  N   UNK A   0     -14.388   8.804  73.045  1.00  0.00    -1.133 NA 
HETATM   17  N   UNK A   0     -12.250   8.267  72.371  1.00  0.00    -0.467 N  
ENDROOT
BRANCH   3  18
HETATM   18  C   UNK A   0     -11.241  10.656  67.751  1.00  0.00    -0.313 C  
BRANCH  18  19
HETATM   19  N   UNK A   0     -10.849  11.199  66.435  1.00  0.00    -0.256 NA 
HETATM   20  H   UNK A   0     -10.634  10.587  65.648  1.00  0.00     0.000 HD 
BRANCH  19  21
HETATM   21  C   UNK A   0     -10.785  12.596  66.318  1.00  0.00    -0.256 A  
HETATM   22  C   UNK A   0      -9.392  14.595  66.349  1.00  0.00    -0.313 A  
HETATM   23  C   UNK A   0     -10.506  15.378  66.045  1.00  0.00    -0.333 A  
HETATM   24  C   UNK A   0     -11.910  13.408  66.146  1.00  0.00    -0.427 A  
HETATM   25  C   UNK A   0      -9.540  13.212  66.495  1.00  0.00    -0.268 A  
HETATM   26  C   UNK A   0     -11.774  14.790  65.995  1.00  0.00    -0.248 A  
BRANCH  23  27
HETATM   27  C   UNK A   0     -10.333  16.832  65.796  1.00  0.00    -0.305 C  
ATOM     28  H   GLU A   1      -8.607  16.841  66.966  1.00  0.00     0.000 HD 
ATOM     29  N   GLU A   1      -9.249  17.422  66.427  1.00  0.00    -0.262 N  
HETATM   30  O   UNK A   0     -11.093  17.444  65.061  1.00  0.00    -0.662 OA 
BRANCH  29  31
ATOM     31  CA  GLU A   1      -9.004  18.878  66.334  1.00  0.00    -0.310 C  
ATOM     32  C   GLU A   1      -7.645  19.142  65.645  1.00  0.00    -0.002 C  
ATOM     33  O   GLU A   1      -6.942  18.019  65.367  1.00  0.00    -0.481 OA 
ATOM     34  OXT GLU A   1      -7.198  20.255  65.406  1.00  0.00    -0.303 OA 
BRANCH  31  35
ATOM     35  CB  GLU A   1      -9.048  19.506  67.739  1.00  0.00    -0.384 C  
BRANCH  35  36
ATOM     36  CG  GLU A   1      -8.229  18.737  68.782  1.00  0.00    -0.329 C  
ATOM     37  CD  GLU A   1      -6.924  19.416  69.117  1.00  0.00    -0.355 C  
ATOM     38  OE2 GLU A   1      -6.518  20.450  68.612  1.00  0.00    -0.306 OA 
ATOM     39  OE1 GLU A   1      -6.233  18.744  70.072  1.00  0.00    -0.221 OA 
ENDBRANCH  35  36
ENDBRANCH  31  35
ENDBRANCH  29  31
ENDBRANCH  23  27
ENDBRANCH  19  21
ENDBRANCH  18  19
ENDBRANCH   3  18
TORSDOF 7
ENDMDL
MODEL       14
REMARK 921   NORMALIZED FREE ENERGY PREDICTED BY IDOCK:   -7.33 KCAL/MOL
REMARK 922        TOTAL FREE ENERGY PREDICTED BY IDOCK:  -11.57 KCAL/MOL
REMARK 923 INTER-LIGAND FREE ENERGY PREDICTED BY IDOCK:  -10.55 KCAL/MOL
REMARK 924 INTRA-LIGAND FREE ENERGY PREDICTED BY IDOCK:   -1.01 KCAL/MOL
REMARK 927      BINDING AFFINITY PREDICTED BY RF-SCORE:    0.00 PKD
ROOT
HETATM    1  C   UNK A   0      -7.202   7.493  67.570  1.00  0.00    -0.090 C  
HETATM    2  N   UNK A   0      -8.633   7.231  67.529  1.00  0.00    -0.122 NA 
HETATM    3  C   UNK A   0      -9.536   8.147  68.285  1.00  0.00    -0.141 C  
HETATM    4  O   UNK A   0      -7.265   5.617  65.493  1.00  0.00    -0.065 OA 
HETATM    5  C   UNK A   0     -10.660   7.298  68.932  1.00  0.00    -0.191 C  
HETATM    6  C   UNK A   0     -10.454   4.506  64.972  1.00  0.00    -0.063 C  
HETATM    7  N   UNK A   0     -11.297   6.406  67.948  1.00  0.00    -0.625 NA 
HETATM    8  H   UNK A   0     -12.290   6.188  68.022  1.00  0.00     0.000 HD 
HETATM    9  H2  UNK A   0     -10.817   3.385  63.287  1.00  0.00     0.000 HD 
HETATM   10  C   UNK A   0     -10.536   5.860  66.916  1.00  0.00    -0.286 C  
HETATM   11  H   UNK A   0      -8.773   4.343  63.876  1.00  0.00     0.000 HD 
HETATM   12  C   UNK A   0      -9.235   6.210  66.742  1.00  0.00    -0.135 C  
HETATM   13  H1  UNK A   0     -12.212   3.601  64.339  1.00  0.00     0.000 HD 
HETATM   14  C   UNK A   0      -8.481   5.487  65.613  1.00  0.00    -0.141 C  
HETATM   15  N   UNK A   0     -11.115   4.983  66.048  1.00  0.00    -0.776 NA 
HETATM   16  N   UNK A   0     -11.228   3.773  64.137  1.00  0.00    -0.592 NA 
HETATM   17  N   UNK A   0      -9.209   4.724  64.717  1.00  0.00    -0.259 N  
ENDROOT
BRANCH   3  18
HETATM   18  C   UNK A   0     -10.116   9.236  67.342  1.00  0.00    -0.223 C  
BRANCH  18  19
HETATM   19  N   UNK A   0     -11.379   9.791  67.867  1.00  0.00    -0.496 NA 
HETATM   20  H   UNK A   0     -12.158   9.187  68.130  1.00  0.00     0.000 HD 
BRANCH  19  21
HETATM   21  C   UNK A   0     -11.460  11.186  67.986  1.00  0.00    -0.293 A  
HETATM   22  C   UNK A   0     -11.798  13.103  69.452  1.00  0.00    -0.383 A  
HETATM   23  C   UNK A   0     -11.585  13.966  68.377  1.00  0.00    -0.368 A  
HETATM   24  C   UNK A   0     -11.382  12.059  66.897  1.00  0.00    -0.400 A  
HETATM   25  C   UNK A   0     -11.746  11.721  69.249  1.00  0.00    -0.398 A  
HETATM   26  C   UNK A   0     -11.430  13.443  67.089  1.00  0.00    -0.373 A  
BRANCH  23  27
HETATM   27  C   UNK A   0     -11.546  15.432  68.610  1.00  0.00    -0.359 C  
ATOM     28  H   GLU A   1     -10.599  15.712  66.774  1.00  0.00     0.000 HD 
ATOM     29  N   GLU A   1     -10.931  16.179  67.618  1.00  0.00    -0.305 N  
HETATM   30  O   UNK A   0     -12.049  15.929  69.606  1.00  0.00    -0.327 OA 
BRANCH  29  31
ATOM     31  CA  GLU A   1     -10.747  17.640  67.758  1.00  0.00    -0.332 C  
ATOM     32  C   GLU A   1     -10.522  18.279  66.367  1.00  0.00    -0.366 C  
ATOM     33  O   GLU A   1     -10.447  17.384  65.356  1.00  0.00    -0.648 OA 
ATOM     34  OXT GLU A   1     -10.372  19.479  66.176  1.00  0.00    -0.445 OA 
BRANCH  31  35
ATOM     35  CB  GLU A   1      -9.567  17.931  68.703  1.00  0.00    -0.331 C  
BRANCH  35  36
ATOM     36  CG  GLU A   1      -8.197  17.619  68.089  1.00  0.00    -0.257 C  
ATOM     37  CD  GLU A   1      -7.192  18.720  68.314  1.00  0.00    -0.260 C  
ATOM     38  OE2 GLU A   1      -7.415  19.772  68.891  1.00  0.00    -0.332 OA 
ATOM     39  OE1 GLU A   1      -5.975  18.408  67.802  1.00  0.00    -0.171 OA 
ENDBRANCH  35  36
ENDBRANCH  31  35
ENDBRANCH  29  31
ENDBRANCH  23  27
ENDBRANCH  19  21
ENDBRANCH  18  19
ENDBRANCH   3  18
TORSDOF 7
ENDMDL
MODEL       15
REMARK 921   NORMALIZED FREE ENERGY PREDICTED BY IDOCK:   -7.30 KCAL/MOL
REMARK 922        TOTAL FREE ENERGY PREDICTED BY IDOCK:  -11.52 KCAL/MOL
REMARK 923 INTER-LIGAND FREE ENERGY PREDICTED BY IDOCK:   -9.64 KCAL/MOL
REMARK 924 INTRA-LIGAND FREE ENERGY PREDICTED BY IDOCK:   -1.88 KCAL/MOL
REMARK 927      BINDING AFFINITY PREDICTED BY RF-SCORE:    0.00 PKD
ROOT
HETATM    1  C   UNK A   0     -10.242  17.068  65.834  1.00  0.00    -0.296 C  
HETATM    2  N   UNK A   0     -10.904  15.795  66.076  1.00  0.00    -0.294 NA 
HETATM    3  C   UNK A   0     -11.070  14.861  64.926  1.00  0.00    -0.414 C  
HETATM    4  O   UNK A   0     -10.249  17.081  68.634  1.00  0.00    -0.279 OA 
HETATM    5  C   UNK A   0     -12.463  14.190  65.039  1.00  0.00    -0.419 C  
HETATM    6  C   UNK A   0     -11.819  14.298  69.844  1.00  0.00    -0.322 C  
HETATM    7  N   UNK A   0     -12.684  13.630  66.384  1.00  0.00    -0.295 NA 
HETATM    8  H   UNK A   0     -13.234  12.779  66.499  1.00  0.00     0.000 HD 
HETATM    9  H2  UNK A   0     -11.659  13.904  71.856  1.00  0.00     0.000 HD 
HETATM   10  C   UNK A   0     -12.140  14.268  67.496  1.00  0.00    -0.312 C  
HETATM   11  H   UNK A   0     -10.644  15.675  70.726  1.00  0.00     0.000 HD 
HETATM   12  C   UNK A   0     -11.327  15.347  67.358  1.00  0.00    -0.243 C  
HETATM   13  H1  UNK A   0     -12.669  12.770  70.965  1.00  0.00     0.000 HD 
HETATM   14  C   UNK A   0     -10.845  16.007  68.662  1.00  0.00    -0.301 C  
HETATM   15  N   UNK A   0     -12.403  13.782  68.743  1.00  0.00    -0.394 NA 
HETATM   16  N   UNK A   0     -12.073  13.598  70.975  1.00  0.00    -0.461 NA 
HETATM   17  N   UNK A   0     -11.066  15.344  69.858  1.00  0.00    -0.269 N  
ENDROOT
BRANCH   3  18
HETATM   18  C   UNK A   0      -9.930  13.807  64.916  1.00  0.00    -0.145 C  
BRANCH  18  19
HETATM   19  N   UNK A   0     -10.458  12.437  64.756  1.00  0.00    -0.293 NA 
HETATM   20  H   UNK A   0     -11.042  12.181  63.960  1.00  0.00     0.000 HD 
BRANCH  19  21
HETATM   21  C   UNK A   0     -10.121  11.506  65.749  1.00  0.00    -0.237 A  
HETATM   22  C   UNK A   0      -9.171  11.118  67.959  1.00  0.00    -0.159 A  
HETATM   23  C   UNK A   0      -9.452   9.756  67.844  1.00  0.00    -0.146 A  
HETATM   24  C   UNK A   0     -10.274  10.125  65.596  1.00  0.00    -0.288 A  
HETATM   25  C   UNK A   0      -9.495  11.981  66.909  1.00  0.00    -0.206 A  
HETATM   26  C   UNK A   0      -9.956   9.253  66.640  1.00  0.00    -0.333 A  
BRANCH  23  27
HETATM   27  C   UNK A   0      -9.196   8.855  68.996  1.00  0.00    -0.140 C  
ATOM     28  H   GLU A   1     -11.227   8.398  69.108  1.00  0.00     0.000 HD 
ATOM     29  N   GLU A   1     -10.316   8.250  69.543  1.00  0.00    -0.215 N  
HETATM   30  O   UNK A   0      -8.063   8.654  69.404  1.00  0.00    -0.106 OA 
BRANCH  29  31
ATOM     31  CA  GLU A   1     -10.219   7.393  70.745  1.00  0.00    -0.197 C  
ATOM     32  C   GLU A   1     -10.628   5.943  70.394  1.00  0.00    -0.286 C  
ATOM     33  O   GLU A   1     -11.070   5.788  69.125  1.00  0.00    -0.316 OA 
ATOM     34  OXT GLU A   1     -10.613   5.012  71.188  1.00  0.00    -0.179 OA 
BRANCH  31  35
ATOM     35  CB  GLU A   1     -11.101   7.966  71.869  1.00  0.00    -0.317 C  
BRANCH  35  36
ATOM     36  CG  GLU A   1     -11.550   9.412  71.622  1.00  0.00    -0.466 C  
ATOM     37  CD  GLU A   1     -12.916   9.704  72.190  1.00  0.00    -0.406 C  
ATOM     38  OE2 GLU A   1     -13.629   8.897  72.764  1.00  0.00    -0.405 OA 
ATOM     39  OE1 GLU A   1     -13.277  10.998  72.000  1.00  0.00    -0.499 OA 
ENDBRANCH  35  36
ENDBRANCH  31  35
ENDBRANCH  29  31
ENDBRANCH  23  27
ENDBRANCH  19  21
ENDBRANCH  18  19
ENDBRANCH   3  18
TORSDOF 7
ENDMDL
MODEL       16
REMARK 921   NORMALIZED FREE ENERGY PREDICTED BY IDOCK:   -7.27 KCAL/MOL
REMARK 922        TOTAL FREE ENERGY PREDICTED BY IDOCK:  -11.47 KCAL/MOL
REMARK 923 INTER-LIGAND FREE ENERGY PREDICTED BY IDOCK:  -10.05 KCAL/MOL
REMARK 924 INTRA-LIGAND FREE ENERGY PREDICTED BY IDOCK:   -1.43 KCAL/MOL
REMARK 927      BINDING AFFINITY PREDICTED BY RF-SCORE:    0.00 PKD
ROOT
HETATM    1  C   UNK A   0     -12.634  14.969  65.061  1.00  0.00     0.142 C  
HETATM    2  N   UNK A   0     -11.529  14.147  65.532  1.00  0.00    -0.317 NA 
HETATM    3  C   UNK A   0     -11.059  14.340  66.934  1.00  0.00    -0.312 C  
HETATM    4  O   UNK A   0     -12.539  13.096  62.982  1.00  0.00    -0.572 OA 
HETATM    5  C   UNK A   0      -9.513  14.233  66.949  1.00  0.00    -0.263 C  
HETATM    6  C   UNK A   0      -9.987  10.879  63.479  1.00  0.00    -0.363 C  
HETATM    7  N   UNK A   0      -9.050  13.017  66.257  1.00  0.00    -0.454 NA 
HETATM    8  H   UNK A   0      -8.214  12.531  66.581  1.00  0.00     0.000 HD 
HETATM    9  H2  UNK A   0      -9.918   9.211  62.278  1.00  0.00     0.000 HD 
HETATM   10  C   UNK A   0      -9.758  12.535  65.159  1.00  0.00    -0.023 C  
HETATM   11  H   UNK A   0     -11.568  10.860  62.232  1.00  0.00     0.000 HD 
HETATM   12  C   UNK A   0     -10.925  13.110  64.769  1.00  0.00    -0.336 C  
HETATM   13  H1  UNK A   0      -8.583   9.351  63.417  1.00  0.00     0.000 HD 
HETATM   14  C   UNK A   0     -11.578  12.533  63.500  1.00  0.00    -0.508 C  
HETATM   15  N   UNK A   0      -9.289  11.448  64.483  1.00  0.00    -0.397 NA 
HETATM   16  N   UNK A   0      -9.448   9.722  63.026  1.00  0.00    -0.541 NA 
HETATM   17  N   UNK A   0     -11.081  11.348  62.984  1.00  0.00    -0.840 N  
ENDROOT
BRANCH   3  18
HETATM   18  C   UNK A   0     -11.712  13.290  67.874  1.00  0.00    -0.357 C  
BRANCH  18  19
HETATM   19  N   UNK A   0     -10.780  12.857  68.934  1.00  0.00    -0.374 NA 
HETATM   20  H   UNK A   0     -10.026  13.461  69.260  1.00  0.00     0.000 HD 
BRANCH  19  21
HETATM   21  C   UNK A   0     -10.979  11.577  69.470  1.00  0.00    -0.125 A  
HETATM   22  C   UNK A   0     -12.256  10.167  70.993  1.00  0.00    -0.474 A  
HETATM   23  C   UNK A   0     -11.523   9.053  70.581  1.00  0.00    -0.291 A  
HETATM   24  C   UNK A   0     -10.168  10.479  69.168  1.00  0.00    -0.241 A  
HETATM   25  C   UNK A   0     -11.972  11.421  70.445  1.00  0.00    -0.465 A  
HETATM   26  C   UNK A   0     -10.444   9.219  69.707  1.00  0.00    -0.235 A  
BRANCH  23  27
HETATM   27  C   UNK A   0     -11.888   7.707  71.090  1.00  0.00    -0.293 C  
ATOM     28  H   GLU A   1      -9.896   7.341  71.586  1.00  0.00     0.000 HD 
ATOM     29  N   GLU A   1     -10.833   6.939  71.558  1.00  0.00    -0.228 N  
HETATM   30  O   UNK A   0     -13.048   7.329  71.109  1.00  0.00    -0.341 OA 
BRANCH  29  31
ATOM     31  CA  GLU A   1     -11.038   5.548  72.017  1.00  0.00    -0.184 C  
ATOM     32  C   GLU A   1     -10.859   5.467  73.551  1.00  0.00    -0.293 C  
ATOM     33  O   GLU A   1     -10.470   6.630  74.122  1.00  0.00    -0.353 OA 
ATOM     34  OXT GLU A   1     -11.002   4.445  74.209  1.00  0.00    -0.254 OA 
BRANCH  31  35
ATOM     35  CB  GLU A   1     -10.058   4.608  71.291  1.00  0.00    -0.245 C  
BRANCH  35  36
ATOM     36  CG  GLU A   1      -8.916   5.341  70.578  1.00  0.00    -0.162 C  
ATOM     37  CD  GLU A   1      -8.988   5.214  69.077  1.00  0.00    -0.100 C  
ATOM     38  OE2 GLU A   1      -9.830   4.581  68.462  1.00  0.00    -0.150 OA 
ATOM     39  OE1 GLU A   1      -7.994   5.904  68.463  1.00  0.00    -0.100 OA 
ENDBRANCH  35  36
ENDBRANCH  31  35
ENDBRANCH  29  31
ENDBRANCH  23  27
ENDBRANCH  19  21
ENDBRANCH  18  19
ENDBRANCH   3  18
TORSDOF 7
ENDMDL
MODEL       17
REMARK 921   NORMALIZED FREE ENERGY PREDICTED BY IDOCK:   -7.26 KCAL/MOL
REMARK 922        TOTAL FREE ENERGY PREDICTED BY IDOCK:  -11.46 KCAL/MOL
REMARK 923 INTER-LIGAND FREE ENERGY PREDICTED BY IDOCK:  -11.04 KCAL/MOL
REMARK 924 INTRA-LIGAND FREE ENERGY PREDICTED BY IDOCK:   -0.43 KCAL/MOL
REMARK 927      BINDING AFFINITY PREDICTED BY RF-SCORE:    0.00 PKD
ROOT
HETATM    1  C   UNK A   0      -8.625   9.359  70.056  1.00  0.00    -0.203 C  
HETATM    2  N   UNK A   0      -9.944   9.970  69.989  1.00  0.00    -0.341 NA 
HETATM    3  C   UNK A   0     -10.260  10.829  68.811  1.00  0.00    -0.193 C  
HETATM    4  O   UNK A   0      -9.899   7.925  72.096  1.00  0.00    -0.178 OA 
HETATM    5  C   UNK A   0     -11.090  12.042  69.301  1.00  0.00    -0.185 C  
HETATM    6  C   UNK A   0     -13.111   9.015  72.506  1.00  0.00    -0.385 C  
HETATM    7  N   UNK A   0     -12.229  11.616  70.133  1.00  0.00    -0.306 NA 
HETATM    8  H   UNK A   0     -13.104  12.139  70.110  1.00  0.00     0.000 HD 
HETATM    9  H2  UNK A   0     -14.357   7.901  73.703  1.00  0.00     0.000 HD 
HETATM   10  C   UNK A   0     -12.104  10.497  70.953  1.00  0.00    -0.383 C  
HETATM   11  H   UNK A   0     -12.146   7.378  73.172  1.00  0.00     0.000 HD 
HETATM   12  C   UNK A   0     -10.983   9.731  70.930  1.00  0.00    -0.341 C  
HETATM   13  H1  UNK A   0     -15.082   9.369  73.055  1.00  0.00     0.000 HD 
HETATM   14  C   UNK A   0     -10.936   8.563  71.931  1.00  0.00    -0.324 C  
HETATM   15  N   UNK A   0     -13.138  10.146  71.770  1.00  0.00    -0.436 NA 
HETATM   16  N   UNK A   0     -14.279   8.746  73.136  1.00  0.00    -1.172 NA 
HETATM   17  N   UNK A   0     -12.096   8.227  72.608  1.00  0.00    -0.553 N  
ENDROOT
BRANCH   3  18
HETATM   18  C   UNK A   0     -11.026  10.012  67.735  1.00  0.00    -0.249 C  
BRANCH  18  19
HETATM   19  N   UNK A   0     -10.602  10.381  66.370  1.00  0.00    -0.172 NA 
HETATM   20  H   UNK A   0     -10.328   9.674  65.688  1.00  0.00     0.000 HD 
BRANCH  19  21
HETATM   21  C   UNK A   0     -10.590  11.748  66.055  1.00  0.00    -0.260 A  
HETATM   22  C   UNK A   0     -11.885  13.733  65.489  1.00  0.00    -0.378 A  
HETATM   23  C   UNK A   0     -10.716  14.494  65.472  1.00  0.00    -0.350 A  
HETATM   24  C   UNK A   0      -9.418  12.495  65.903  1.00  0.00    -0.111 A  
HETATM   25  C   UNK A   0     -11.814  12.365  65.768  1.00  0.00    -0.467 A  
HETATM   26  C   UNK A   0      -9.477  13.864  65.627  1.00  0.00     0.049 A  
BRANCH  23  27
HETATM   27  C   UNK A   0     -10.800  15.963  65.271  1.00  0.00    -0.387 C  
ATOM     28  H   GLU A   1      -9.649  16.277  66.981  1.00  0.00     0.000 HD 
ATOM     29  N   GLU A   1     -10.173  16.736  66.236  1.00  0.00    -0.322 N  
HETATM   30  O   UNK A   0     -11.369  16.438  64.301  1.00  0.00    -0.892 OA 
BRANCH  29  31
ATOM     31  CA  GLU A   1     -10.248  18.213  66.206  1.00  0.00    -0.395 C  
ATOM     32  C   GLU A   1      -8.839  18.808  65.973  1.00  0.00     0.011 C  
ATOM     33  O   GLU A   1      -7.850  17.885  65.943  1.00  0.00    -0.515 OA 
ATOM     34  OXT GLU A   1      -8.605  20.005  65.872  1.00  0.00    -0.310 OA 
BRANCH  31  35
ATOM     35  CB  GLU A   1     -10.862  18.732  67.519  1.00  0.00    -0.396 C  
BRANCH  35  36
ATOM     36  CG  GLU A   1     -10.220  18.134  68.777  1.00  0.00    -0.353 C  
ATOM     37  CD  GLU A   1     -10.869  16.841  69.205  1.00  0.00    -0.287 C  
ATOM     38  OE2 GLU A   1     -11.821  16.313  68.654  1.00  0.00    -0.255 OA 
ATOM     39  OE1 GLU A   1     -10.260  16.306  70.294  1.00  0.00     0.002 OA 
ENDBRANCH  35  36
ENDBRANCH  31  35
ENDBRANCH  29  31
ENDBRANCH  23  27
ENDBRANCH  19  21
ENDBRANCH  18  19
ENDBRANCH   3  18
TORSDOF 7
ENDMDL
MODEL       18
REMARK 921   NORMALIZED FREE ENERGY PREDICTED BY IDOCK:   -7.26 KCAL/MOL
REMARK 922        TOTAL FREE ENERGY PREDICTED BY IDOCK:  -11.46 KCAL/MOL
REMARK 923 INTER-LIGAND FREE ENERGY PREDICTED BY IDOCK:  -10.02 KCAL/MOL
REMARK 924 INTRA-LIGAND FREE ENERGY PREDICTED BY IDOCK:   -1.44 KCAL/MOL
REMARK 927      BINDING AFFINITY PREDICTED BY RF-SCORE:    0.00 PKD
ROOT
HETATM    1  C   UNK A   0     -12.389  14.536  66.169  1.00  0.00    -0.209 C  
HETATM    2  N   UNK A   0     -11.018  14.270  66.579  1.00  0.00    -0.311 NA 
HETATM    3  C   UNK A   0     -10.340  15.273  67.449  1.00  0.00    -0.256 C  
HETATM    4  O   UNK A   0     -12.192  11.853  65.394  1.00  0.00    -0.377 OA 
HETATM    5  C   UNK A   0      -8.863  15.395  66.993  1.00  0.00    -0.228 C  
HETATM    6  C   UNK A   0      -9.058  10.647  66.026  1.00  0.00    -0.180 C  
HETATM    7  N   UNK A   0      -8.222  14.073  66.882  1.00  0.00    -0.396 NA 
HETATM    8  H   UNK A   0      -7.231  13.965  67.100  1.00  0.00     0.000 HD 
HETATM    9  H2  UNK A   0      -8.758   8.619  65.863  1.00  0.00     0.000 HD 
HETATM   10  C   UNK A   0      -8.974  12.972  66.479  1.00  0.00    -0.065 C  
HETATM   11  H   UNK A   0     -10.790   9.728  65.569  1.00  0.00     0.000 HD 
HETATM   12  C   UNK A   0     -10.313  13.073  66.276  1.00  0.00    -0.285 C  
HETATM   13  H1  UNK A   0      -7.313   9.544  66.257  1.00  0.00     0.000 HD 
HETATM   14  C   UNK A   0     -11.020  11.806  65.763  1.00  0.00    -0.301 C  
HETATM   15  N   UNK A   0      -8.360  11.766  66.314  1.00  0.00    -0.378 NA 
HETATM   16  N   UNK A   0      -8.312   9.517  66.052  1.00  0.00    -0.118 NA 
HETATM   17  N   UNK A   0     -10.320  10.612  65.766  1.00  0.00    -0.244 N  
ENDROOT
BRANCH   3  18
HETATM   18  C   UNK A   0     -10.441  14.853  68.941  1.00  0.00    -0.242 C  
BRANCH  18  19
HETATM   19  N   UNK A   0     -11.846  14.678  69.361  1.00  0.00    -0.312 NA 
HETATM   20  H   UNK A   0     -12.551  15.390  69.173  1.00  0.00     0.000 HD 
BRANCH  19  21
HETATM   21  C   UNK A   0     -12.165  13.487  70.030  1.00  0.00    -0.312 A  
HETATM   22  C   UNK A   0     -12.082  11.051  70.035  1.00  0.00    -0.441 A  
HETATM   23  C   UNK A   0     -12.691  11.031  71.290  1.00  0.00    -0.537 A  
HETATM   24  C   UNK A   0     -12.894  13.443  71.222  1.00  0.00    -0.407 A  
HETATM   25  C   UNK A   0     -11.834  12.276  69.408  1.00  0.00    -0.370 A  
HETATM   26  C   UNK A   0     -13.145  12.225  71.859  1.00  0.00    -0.469 A  
BRANCH  23  27
HETATM   27  C   UNK A   0     -12.868   9.737  71.998  1.00  0.00    -0.401 C  
ATOM     28  H   GLU A   1     -10.834   9.329  71.788  1.00  0.00     0.000 HD 
ATOM     29  N   GLU A   1     -11.725   8.963  72.122  1.00  0.00    -0.362 N  
HETATM   30  O   UNK A   0     -13.951   9.407  72.453  1.00  0.00    -0.426 OA 
BRANCH  29  31
ATOM     31  CA  GLU A   1     -11.772   7.615  72.730  1.00  0.00    -0.223 C  
ATOM     32  C   GLU A   1     -10.417   7.292  73.402  1.00  0.00    -0.377 C  
ATOM     33  O   GLU A   1      -9.470   8.241  73.215  1.00  0.00    -0.246 OA 
ATOM     34  OXT GLU A   1     -10.178   6.258  74.011  1.00  0.00    -0.255 OA 
BRANCH  31  35
ATOM     35  CB  GLU A   1     -12.126   6.569  71.658  1.00  0.00    -0.381 C  
BRANCH  35  36
ATOM     36  CG  GLU A   1     -11.679   6.962  70.244  1.00  0.00    -0.344 C  
ATOM     37  CD  GLU A   1     -10.448   6.215  69.793  1.00  0.00    -0.239 C  
ATOM     38  OE2 GLU A   1      -9.832   5.402  70.462  1.00  0.00    -0.178 OA 
ATOM     39  OE1 GLU A   1     -10.093   6.545  68.525  1.00  0.00    -0.146 OA 
ENDBRANCH  35  36
ENDBRANCH  31  35
ENDBRANCH  29  31
ENDBRANCH  23  27
ENDBRANCH  19  21
ENDBRANCH  18  19
ENDBRANCH   3  18
TORSDOF 7
ENDMDL
MODEL       19
REMARK 921   NORMALIZED FREE ENERGY PREDICTED BY IDOCK:   -7.20 KCAL/MOL
REMARK 922        TOTAL FREE ENERGY PREDICTED BY IDOCK:  -11.38 KCAL/MOL
REMARK 923 INTER-LIGAND FREE ENERGY PREDICTED BY IDOCK:  -10.40 KCAL/MOL
REMARK 924 INTRA-LIGAND FREE ENERGY PREDICTED BY IDOCK:   -0.97 KCAL/MOL
REMARK 927      BINDING AFFINITY PREDICTED BY RF-SCORE:    0.00 PKD
ROOT
HETATM    1  C   UNK A   0      -8.918   5.877  72.354  1.00  0.00    -0.137 C  
HETATM    2  N   UNK A   0     -10.085   6.345  71.622  1.00  0.00    -0.186 NA 
HETATM    3  C   UNK A   0     -11.055   7.224  72.337  1.00  0.00    -0.275 C  
HETATM    4  O   UNK A   0      -8.151   5.158  69.758  1.00  0.00    -0.080 OA 
HETATM    5  C   UNK A   0     -12.488   6.824  71.902  1.00  0.00    -0.312 C  
HETATM    6  C   UNK A   0     -10.612   5.935  67.520  1.00  0.00    -0.273 C  
HETATM    7  N   UNK A   0     -12.608   6.762  70.435  1.00  0.00    -0.459 NA 
HETATM    8  H   UNK A   0     -13.485   7.021  69.982  1.00  0.00     0.000 HD 
HETATM    9  H2  UNK A   0     -10.159   5.819  65.517  1.00  0.00     0.000 HD 
HETATM   10  C   UNK A   0     -11.521   6.349  69.669  1.00  0.00    -0.378 C  
HETATM   11  H   UNK A   0      -8.679   5.426  67.277  1.00  0.00     0.000 HD 
HETATM   12  C   UNK A   0     -10.317   6.091  70.242  1.00  0.00    -0.222 C  
HETATM   13  H1  UNK A   0     -11.829   6.254  65.868  1.00  0.00     0.000 HD 
HETATM   14  C   UNK A   0      -9.213   5.574  69.302  1.00  0.00    -0.113 C  
HETATM   15  N   UNK A   0     -11.659   6.231  68.318  1.00  0.00    -0.348 NA 
HETATM   16  N   UNK A   0     -10.895   6.010  66.198  1.00  0.00    -0.552 NA 
HETATM   17  N   UNK A   0      -9.432   5.626  67.936  1.00  0.00    -0.111 N  
ENDROOT
BRANCH   3  18
HETATM   18  C   UNK A   0     -10.762   8.718  72.029  1.00  0.00    -0.347 C  
BRANCH  18  19
HETATM   19  N   UNK A   0     -11.999   9.460  71.716  1.00  0.00    -0.379 NA 
HETATM   20  H   UNK A   0     -12.905   9.163  72.081  1.00  0.00     0.000 HD 
BRANCH  19  21
HETATM   21  C   UNK A   0     -11.873  10.590  70.895  1.00  0.00    -0.355 A  
HETATM   22  C   UNK A   0     -11.056  11.518  68.795  1.00  0.00    -0.288 A  
HETATM   23  C   UNK A   0     -11.603  12.758  69.127  1.00  0.00    -0.373 A  
HETATM   24  C   UNK A   0     -12.297  11.868  71.271  1.00  0.00    -0.212 A  
HETATM   25  C   UNK A   0     -11.183  10.447  69.684  1.00  0.00    -0.333 A  
HETATM   26  C   UNK A   0     -12.178  12.945  70.389  1.00  0.00    -0.381 A  
BRANCH  23  27
HETATM   27  C   UNK A   0     -11.552  13.869  68.144  1.00  0.00    -0.335 C  
ATOM     28  H   GLU A   1     -10.148  14.864  69.321  1.00  0.00     0.000 HD 
ATOM     29  N   GLU A   1     -10.716  14.923  68.476  1.00  0.00    -0.239 N  
HETATM   30  O   UNK A   0     -12.192  13.826  67.105  1.00  0.00    -0.391 OA 
BRANCH  29  31
ATOM     31  CA  GLU A   1     -10.630  16.133  67.629  1.00  0.00    -0.315 C  
ATOM     32  C   GLU A   1      -9.543  15.943  66.545  1.00  0.00    -0.268 C  
ATOM     33  O   GLU A   1      -8.853  14.784  66.656  1.00  0.00    -0.255 OA 
ATOM     34  OXT GLU A   1      -9.275  16.770  65.685  1.00  0.00    -0.503 OA 
BRANCH  31  35
ATOM     35  CB  GLU A   1     -10.335  17.364  68.505  1.00  0.00    -0.378 C  
BRANCH  35  36
ATOM     36  CG  GLU A   1     -10.608  18.699  67.801  1.00  0.00    -0.433 C  
ATOM     37  CD  GLU A   1      -9.466  19.675  67.938  1.00  0.00    -0.349 C  
ATOM     38  OE2 GLU A   1      -8.435  19.472  68.557  1.00  0.00    -0.346 OA 
ATOM     39  OE1 GLU A   1      -9.708  20.834  67.273  1.00  0.00    -0.479 OA 
ENDBRANCH  35  36
ENDBRANCH  31  35
ENDBRANCH  29  31
ENDBRANCH  23  27
ENDBRANCH  19  21
ENDBRANCH  18  19
ENDBRANCH   3  18
TORSDOF 7
ENDMDL
MODEL       20
REMARK 921   NORMALIZED FREE ENERGY PREDICTED BY IDOCK:   -7.19 KCAL/MOL
REMARK 922        TOTAL FREE ENERGY PREDICTED BY IDOCK:  -11.36 KCAL/MOL
REMARK 923 INTER-LIGAND FREE ENERGY PREDICTED BY IDOCK:  -10.26 KCAL/MOL
REMARK 924 INTRA-LIGAND FREE ENERGY PREDICTED BY IDOCK:   -1.10 KCAL/MOL
REMARK 927      BINDING AFFINITY PREDICTED BY RF-SCORE:    0.00 PKD
ROOT
HETATM    1  C   UNK A   0      -8.989   5.693  70.080  1.00  0.00    -0.137 C  
HETATM    2  N   UNK A   0      -9.289   6.533  71.230  1.00  0.00    -0.156 NA 
HETATM    3  C   UNK A   0      -8.146   7.068  72.025  1.00  0.00    -0.097 C  
HETATM    4  O   UNK A   0     -11.708   6.167  69.605  1.00  0.00    -0.331 OA 
HETATM    5  C   UNK A   0      -8.532   7.024  73.525  1.00  0.00    -0.130 C  
HETATM    6  C   UNK A   0     -13.051   8.066  72.108  1.00  0.00    -0.202 C  
HETATM    7  N   UNK A   0      -9.849   7.641  73.761  1.00  0.00    -0.356 NA 
HETATM    8  H   UNK A   0     -10.029   8.146  74.629  1.00  0.00     0.000 HD 
HETATM    9  H2  UNK A   0     -14.938   8.833  71.823  1.00  0.00     0.000 HD 
HETATM   10  C   UNK A   0     -10.846   7.534  72.795  1.00  0.00    -0.346 C  
HETATM   11  H   UNK A   0     -13.730   7.569  70.278  1.00  0.00     0.000 HD 
HETATM   12  C   UNK A   0     -10.599   6.950  71.593  1.00  0.00    -0.209 C  
HETATM   13  H1  UNK A   0     -14.229   9.193  73.394  1.00  0.00     0.000 HD 
HETATM   14  C   UNK A   0     -11.798   6.828  70.637  1.00  0.00    -0.387 C  
HETATM   15  N   UNK A   0     -12.082   8.051  73.047  1.00  0.00    -0.642 NA 
HETATM   16  N   UNK A   0     -14.158   8.753  72.477  1.00  0.00    -0.693 NA 
HETATM   17  N   UNK A   0     -12.962   7.509  70.948  1.00  0.00    -0.585 N  
ENDROOT
BRANCH   3  18
HETATM   18  C   UNK A   0      -7.796   8.511  71.569  1.00  0.00    -0.125 C  
BRANCH  18  19
HETATM   19  N   UNK A   0      -7.535   8.573  70.118  1.00  0.00    -0.058 NA 
HETATM   20  H   UNK A   0      -6.774   8.046  69.690  1.00  0.00     0.000 HD 
BRANCH  19  21
HETATM   21  C   UNK A   0      -8.381   9.391  69.354  1.00  0.00    -0.125 A  
HETATM   22  C   UNK A   0     -10.403  10.749  69.281  1.00  0.00    -0.228 A  
HETATM   23  C   UNK A   0     -10.126  11.094  67.958  1.00  0.00    -0.191 A  
HETATM   24  C   UNK A   0      -8.190   9.640  67.992  1.00  0.00    -0.110 A  
HETATM   25  C   UNK A   0      -9.537   9.892  69.966  1.00  0.00    -0.260 A  
HETATM   26  C   UNK A   0      -9.047  10.497  67.297  1.00  0.00    -0.152 A  
BRANCH  23  27
HETATM   27  C   UNK A   0     -10.993  12.079  67.261  1.00  0.00    -0.262 C  
ATOM     28  H   GLU A   1      -9.775  11.974  65.571  1.00  0.00     0.000 HD 
ATOM     29  N   GLU A   1     -10.587  12.433  65.984  1.00  0.00    -0.250 N  
HETATM   30  O   UNK A   0     -12.004  12.517  67.786  1.00  0.00    -0.386 OA 
BRANCH  29  31
ATOM     31  CA  GLU A   1     -11.309  13.464  65.207  1.00  0.00    -0.296 C  
ATOM     32  C   GLU A   1     -11.911  12.836  63.927  1.00  0.00    -0.468 C  
ATOM     33  O   GLU A   1     -11.580  11.537  63.744  1.00  0.00    -0.383 OA 
ATOM     34  OXT GLU A   1     -12.586  13.448  63.111  1.00  0.00    -0.710 OA 
BRANCH  31  35
ATOM     35  CB  GLU A   1     -10.355  14.623  64.863  1.00  0.00    -0.382 C  
BRANCH  35  36
ATOM     36  CG  GLU A   1      -9.797  15.346  66.095  1.00  0.00    -0.337 C  
ATOM     37  CD  GLU A   1     -10.063  16.831  66.070  1.00  0.00    -0.332 C  
ATOM     38  OE2 GLU A   1     -10.631  17.431  65.172  1.00  0.00    -0.681 OA 
ATOM     39  OE1 GLU A   1      -9.600  17.447  67.187  1.00  0.00    -0.253 OA 
ENDBRANCH  35  36
ENDBRANCH  31  35
ENDBRANCH  29  31
ENDBRANCH  23  27
ENDBRANCH  19  21
ENDBRANCH  18  19
ENDBRANCH   3  18
TORSDOF 7
ENDMDL
MODEL       21
REMARK 921   NORMALIZED FREE ENERGY PREDICTED BY IDOCK:   -7.19 KCAL/MOL
REMARK 922        TOTAL FREE ENERGY PREDICTED BY IDOCK:  -11.36 KCAL/MOL
REMARK 923 INTER-LIGAND FREE ENERGY PREDICTED BY IDOCK:  -10.30 KCAL/MOL
REMARK 924 INTRA-LIGAND FREE ENERGY PREDICTED BY IDOCK:   -1.06 KCAL/MOL
REMARK 927      BINDING AFFINITY PREDICTED BY RF-SCORE:    0.00 PKD
ROOT
HETATM    1  C   UNK A   0      -8.968   3.884  70.476  1.00  0.00    -0.096 C  
HETATM    2  N   UNK A   0      -9.634   4.840  69.603  1.00  0.00    -0.164 NA 
HETATM    3  C   UNK A   0     -10.195   6.077  70.216  1.00  0.00    -0.208 C  
HETATM    4  O   UNK A   0      -8.174   2.866  67.991  1.00  0.00    -0.075 OA 
HETATM    5  C   UNK A   0     -11.547   6.394  69.527  1.00  0.00    -0.233 C  
HETATM    6  C   UNK A   0      -9.551   4.686  65.450  1.00  0.00    -0.168 C  
HETATM    7  N   UNK A   0     -11.419   6.382  68.059  1.00  0.00    -0.583 NA 
HETATM    8  H   UNK A   0     -11.980   7.018  67.491  1.00  0.00     0.000 HD 
HETATM    9  H2  UNK A   0      -8.856   4.353  63.544  1.00  0.00     0.000 HD 
HETATM   10  C   UNK A   0     -10.531   5.499  67.450  1.00  0.00    -0.219 C  
HETATM   11  H   UNK A   0      -8.066   3.327  65.485  1.00  0.00     0.000 HD 
HETATM   12  C   UNK A   0      -9.707   4.711  68.188  1.00  0.00    -0.138 C  
HETATM   13  H1  UNK A   0     -10.166   5.525  63.652  1.00  0.00     0.000 HD 
HETATM   14  C   UNK A   0      -8.822   3.728  67.403  1.00  0.00    -0.122 C  
HETATM   15  N   UNK A   0     -10.465   5.447  66.089  1.00  0.00    -0.457 NA 
HETATM   16  N   UNK A   0      -9.527   4.874  64.109  1.00  0.00    -0.352 NA 
HETATM   17  N   UNK A   0      -8.744   3.864  66.027  1.00  0.00    -0.112 N  
ENDROOT
BRANCH   3  18
HETATM   18  C   UNK A   0      -9.194   7.255  70.073  1.00  0.00    -0.148 C  
BRANCH  18  19
HETATM   19  N   UNK A   0      -9.565   8.391  70.940  1.00  0.00    -0.168 NA 
HETATM   20  H   UNK A   0      -9.458   8.345  71.954  1.00  0.00     0.000 HD 
BRANCH  19  21
HETATM   21  C   UNK A   0     -10.073   9.535  70.307  1.00  0.00    -0.262 A  
HETATM   22  C   UNK A   0      -9.713  11.302  68.668  1.00  0.00    -0.200 A  
HETATM   23  C   UNK A   0     -10.992  11.799  68.919  1.00  0.00    -0.288 A  
HETATM   24  C   UNK A   0     -11.296  10.124  70.641  1.00  0.00    -0.433 A  
HETATM   25  C   UNK A   0      -9.257  10.183  69.370  1.00  0.00    -0.229 A  
HETATM   26  C   UNK A   0     -11.763  11.241  69.944  1.00  0.00    -0.430 A  
BRANCH  23  27
HETATM   27  C   UNK A   0     -11.512  12.928  68.107  1.00  0.00    -0.315 C  
ATOM     28  H   GLU A   1     -10.500  12.207  66.432  1.00  0.00     0.000 HD 
ATOM     29  N   GLU A   1     -11.084  12.964  66.789  1.00  0.00    -0.273 N  
HETATM   30  O   UNK A   0     -12.284  13.747  68.580  1.00  0.00    -0.347 OA 
BRANCH  29  31
ATOM     31  CA  GLU A   1     -11.457  14.077  65.889  1.00  0.00    -0.330 C  
ATOM     32  C   GLU A   1     -12.243  13.532  64.674  1.00  0.00    -0.406 C  
ATOM     33  O   GLU A   1     -12.339  12.183  64.640  1.00  0.00    -0.372 OA 
ATOM     34  OXT GLU A   1     -12.705  14.231  63.781  1.00  0.00    -0.779 OA 
BRANCH  31  35
ATOM     35  CB  GLU A   1     -10.193  14.833  65.441  1.00  0.00    -0.415 C  
BRANCH  35  36
ATOM     36  CG  GLU A   1     -10.028  16.204  66.109  1.00  0.00    -0.357 C  
ATOM     37  CD  GLU A   1     -10.766  17.300  65.381  1.00  0.00    -0.066 C  
ATOM     38  OE2 GLU A   1     -11.409  17.155  64.354  1.00  0.00    -1.115 OA 
ATOM     39  OE1 GLU A   1     -10.643  18.496  66.009  1.00  0.00    -0.438 OA 
ENDBRANCH  35  36
ENDBRANCH  31  35
ENDBRANCH  29  31
ENDBRANCH  23  27
ENDBRANCH  19  21
ENDBRANCH  18  19
ENDBRANCH   3  18
TORSDOF 7
ENDMDL
MODEL       22
REMARK 921   NORMALIZED FREE ENERGY PREDICTED BY IDOCK:   -7.18 KCAL/MOL
REMARK 922        TOTAL FREE ENERGY PREDICTED BY IDOCK:  -11.35 KCAL/MOL
REMARK 923 INTER-LIGAND FREE ENERGY PREDICTED BY IDOCK:  -10.34 KCAL/MOL
REMARK 924 INTRA-LIGAND FREE ENERGY PREDICTED BY IDOCK:   -1.01 KCAL/MOL
REMARK 927      BINDING AFFINITY PREDICTED BY RF-SCORE:    0.00 PKD
ROOT
HETATM    1  C   UNK A   0      -9.016   5.888  69.914  1.00  0.00    -0.139 C  
HETATM    2  N   UNK A   0      -9.337   6.681  71.091  1.00  0.00    -0.163 NA 
HETATM    3  C   UNK A   0      -8.208   7.250  71.882  1.00  0.00    -0.103 C  
HETATM    4  O   UNK A   0     -11.762   6.240  69.495  1.00  0.00    -0.360 OA 
HETATM    5  C   UNK A   0      -8.566   7.147  73.387  1.00  0.00    -0.134 C  
HETATM    6  C   UNK A   0     -13.155   8.001  72.070  1.00  0.00    -0.265 C  
HETATM    7  N   UNK A   0      -9.907   7.692  73.661  1.00  0.00    -0.314 NA 
HETATM    8  H   UNK A   0     -10.097   8.163  74.545  1.00  0.00     0.000 HD 
HETATM    9  H2  UNK A   0     -15.081   8.681  71.837  1.00  0.00     0.000 HD 
HETATM   10  C   UNK A   0     -10.914   7.561  72.707  1.00  0.00    -0.359 C  
HETATM   11  H   UNK A   0     -13.839   7.521  70.238  1.00  0.00     0.000 HD 
HETATM   12  C   UNK A   0     -10.660   7.023  71.487  1.00  0.00    -0.212 C  
HETATM   13  H1  UNK A   0     -14.364   9.034  73.406  1.00  0.00     0.000 HD 
HETATM   14  C   UNK A   0     -11.868   6.867  70.546  1.00  0.00    -0.333 C  
HETATM   15  N   UNK A   0     -12.170   8.009  72.993  1.00  0.00    -0.645 NA 
HETATM   16  N   UNK A   0     -14.287   8.623  72.476  1.00  0.00    -0.795 NA 
HETATM   17  N   UNK A   0     -13.059   7.481  70.895  1.00  0.00    -0.589 N  
ENDROOT
BRANCH   3  18
HETATM   18  C   UNK A   0      -7.938   8.720  71.462  1.00  0.00    -0.112 C  
BRANCH  18  19
HETATM   19  N   UNK A   0      -8.035   8.893  69.999  1.00  0.00    -0.100 NA 
HETATM   20  H   UNK A   0      -7.552   8.267  69.355  1.00  0.00     0.000 HD 
BRANCH  19  21
HETATM   21  C   UNK A   0      -8.823   9.957  69.535  1.00  0.00    -0.197 A  
HETATM   22  C   UNK A   0      -8.917  12.045  68.281  1.00  0.00    -0.186 A  
HETATM   23  C   UNK A   0     -10.294  12.113  68.494  1.00  0.00    -0.233 A  
HETATM   24  C   UNK A   0     -10.176  10.111  69.851  1.00  0.00    -0.284 A  
HETATM   25  C   UNK A   0      -8.189  10.976  68.812  1.00  0.00    -0.146 A  
HETATM   26  C   UNK A   0     -10.914  11.173  69.324  1.00  0.00    -0.300 A  
BRANCH  23  27
HETATM   27  C   UNK A   0     -11.081  13.196  67.851  1.00  0.00    -0.262 C  
ATOM     28  H   GLU A   1      -9.693  13.302  66.299  1.00  0.00     0.000 HD 
ATOM     29  N   GLU A   1     -10.543  13.714  66.683  1.00  0.00    -0.276 N  
HETATM   30  O   UNK A   0     -12.142  13.573  68.322  1.00  0.00    -0.354 OA 
BRANCH  29  31
ATOM     31  CA  GLU A   1     -11.178  14.851  65.983  1.00  0.00    -0.327 C  
ATOM     32  C   GLU A   1     -12.001  14.337  64.778  1.00  0.00    -0.440 C  
ATOM     33  O   GLU A   1     -11.892  13.005  64.566  1.00  0.00    -0.341 OA 
ATOM     34  OXT GLU A   1     -12.659  15.053  64.036  1.00  0.00    -0.817 OA 
BRANCH  31  35
ATOM     35  CB  GLU A   1     -10.102  15.856  65.534  1.00  0.00    -0.353 C  
BRANCH  35  36
ATOM     36  CG  GLU A   1      -9.194  16.335  66.674  1.00  0.00    -0.271 C  
ATOM     37  CD  GLU A   1      -8.905  17.814  66.608  1.00  0.00    -0.264 C  
ATOM     38  OE2 GLU A   1      -9.307  18.573  65.742  1.00  0.00    -0.429 OA 
ATOM     39  OE1 GLU A   1      -8.136  18.226  67.648  1.00  0.00    -0.240 OA 
ENDBRANCH  35  36
ENDBRANCH  31  35
ENDBRANCH  29  31
ENDBRANCH  23  27
ENDBRANCH  19  21
ENDBRANCH  18  19
ENDBRANCH   3  18
TORSDOF 7
ENDMDL
MODEL       23
REMARK 921   NORMALIZED FREE ENERGY PREDICTED BY IDOCK:   -7.18 KCAL/MOL
REMARK 922        TOTAL FREE ENERGY PREDICTED BY IDOCK:  -11.35 KCAL/MOL
REMARK 923 INTER-LIGAND FREE ENERGY PREDICTED BY IDOCK:  -10.48 KCAL/MOL
REMARK 924 INTRA-LIGAND FREE ENERGY PREDICTED BY IDOCK:   -0.87 KCAL/MOL
REMARK 927      BINDING AFFINITY PREDICTED BY RF-SCORE:    0.00 PKD
ROOT
HETATM    1  C   UNK A   0      -9.071   5.645  70.197  1.00  0.00    -0.138 C  
HETATM    2  N   UNK A   0      -9.542   7.022  70.194  1.00  0.00    -0.165 NA 
HETATM    3  C   UNK A   0      -8.992   7.949  69.164  1.00  0.00    -0.145 C  
HETATM    4  O   UNK A   0     -11.247   5.389  71.941  1.00  0.00    -0.179 OA 
HETATM    5  C   UNK A   0      -8.773   9.336  69.822  1.00  0.00    -0.162 C  
HETATM    6  C   UNK A   0     -12.753   8.416  72.436  1.00  0.00    -0.296 C  
HETATM    7  N   UNK A   0      -9.977   9.787  70.543  1.00  0.00    -0.340 NA 
HETATM    8  H   UNK A   0     -10.209  10.779  70.581  1.00  0.00     0.000 HD 
HETATM    9  H2  UNK A   0     -14.568   8.438  73.401  1.00  0.00     0.000 HD 
HETATM   10  C   UNK A   0     -10.795   8.852  71.172  1.00  0.00    -0.281 C  
HETATM   11  H   UNK A   0     -13.336   6.534  72.853  1.00  0.00     0.000 HD 
HETATM   12  C   UNK A   0     -10.559   7.520  71.055  1.00  0.00    -0.221 C  
HETATM   13  H1  UNK A   0     -13.941  10.029  72.982  1.00  0.00     0.000 HD 
HETATM   14  C   UNK A   0     -11.490   6.591  71.854  1.00  0.00    -0.301 C  
HETATM   15  N   UNK A   0     -11.871   9.281  71.893  1.00  0.00    -0.370 NA 
HETATM   16  N   UNK A   0     -13.838   9.014  72.981  1.00  0.00    -1.108 NA 
HETATM   17  N   UNK A   0     -12.623   7.133  72.436  1.00  0.00    -0.503 N  
ENDROOT
BRANCH   3  18
HETATM   18  C   UNK A   0      -9.955   8.042  67.949  1.00  0.00    -0.180 C  
BRANCH  18  19
HETATM   19  N   UNK A   0      -9.429   8.948  66.908  1.00  0.00    -0.165 NA 
HETATM   20  H   UNK A   0      -8.840   8.603  66.150  1.00  0.00     0.000 HD 
BRANCH  19  21
HETATM   21  C   UNK A   0      -9.778  10.303  67.009  1.00  0.00    -0.176 A  
HETATM   22  C   UNK A   0     -11.528  11.944  67.435  1.00  0.00    -0.393 A  
HETATM   23  C   UNK A   0     -10.597  12.975  67.301  1.00  0.00    -0.247 A  
HETATM   24  C   UNK A   0      -8.889  11.349  66.748  1.00  0.00    -0.179 A  
HETATM   25  C   UNK A   0     -11.116  10.618  67.276  1.00  0.00    -0.313 A  
HETATM   26  C   UNK A   0      -9.288  12.679  66.906  1.00  0.00    -0.228 A  
BRANCH  23  27
HETATM   27  C   UNK A   0     -11.012  14.376  67.563  1.00  0.00    -0.293 C  
ATOM     28  H   GLU A   1     -10.201  14.272  69.481  1.00  0.00     0.000 HD 
ATOM     29  N   GLU A   1     -10.722  14.859  68.830  1.00  0.00    -0.244 N  
HETATM   30  O   UNK A   0     -11.551  15.049  66.699  1.00  0.00    -0.311 OA 
BRANCH  29  31
ATOM     31  CA  GLU A   1     -11.152  16.209  69.255  1.00  0.00    -0.327 C  
ATOM     32  C   GLU A   1     -10.040  17.239  68.948  1.00  0.00    -0.331 C  
ATOM     33  O   GLU A   1      -8.903  16.692  68.458  1.00  0.00    -0.217 OA 
ATOM     34  OXT GLU A   1     -10.132  18.439  69.165  1.00  0.00    -0.346 OA 
BRANCH  31  35
ATOM     35  CB  GLU A   1     -11.502  16.198  70.754  1.00  0.00    -0.408 C  
BRANCH  35  36
ATOM     36  CG  GLU A   1     -12.368  15.004  71.174  1.00  0.00    -0.391 C  
ATOM     37  CD  GLU A   1     -12.854  15.107  72.598  1.00  0.00    -0.386 C  
ATOM     38  OE2 GLU A   1     -12.585  16.012  73.371  1.00  0.00    -0.462 OA 
ATOM     39  OE1 GLU A   1     -13.653  14.064  72.938  1.00  0.00    -0.676 OA 
ENDBRANCH  35  36
ENDBRANCH  31  35
ENDBRANCH  29  31
ENDBRANCH  23  27
ENDBRANCH  19  21
ENDBRANCH  18  19
ENDBRANCH   3  18
TORSDOF 7
ENDMDL
MODEL       24
REMARK 921   NORMALIZED FREE ENERGY PREDICTED BY IDOCK:   -7.16 KCAL/MOL
REMARK 922        TOTAL FREE ENERGY PREDICTED BY IDOCK:  -11.33 KCAL/MOL
REMARK 923 INTER-LIGAND FREE ENERGY PREDICTED BY IDOCK:   -9.97 KCAL/MOL
REMARK 924 INTRA-LIGAND FREE ENERGY PREDICTED BY IDOCK:   -1.35 KCAL/MOL
REMARK 927      BINDING AFFINITY PREDICTED BY RF-SCORE:    0.00 PKD
ROOT
HETATM    1  C   UNK A   0      -9.834   4.723  72.538  1.00  0.00    -0.156 C  
HETATM    2  N   UNK A   0     -10.595   5.607  71.668  1.00  0.00    -0.234 NA 
HETATM    3  C   UNK A   0     -11.382   6.705  72.299  1.00  0.00    -0.275 C  
HETATM    4  O   UNK A   0      -8.747   3.980  70.067  1.00  0.00    -0.066 OA 
HETATM    5  C   UNK A   0     -12.726   6.840  71.539  1.00  0.00    -0.290 C  
HETATM    6  C   UNK A   0     -10.255   5.695  67.526  1.00  0.00    -0.202 C  
HETATM    7  N   UNK A   0     -12.516   6.929  70.083  1.00  0.00    -0.465 NA 
HETATM    8  H   UNK A   0     -13.139   7.498  69.510  1.00  0.00     0.000 HD 
HETATM    9  H2  UNK A   0      -9.409   5.581  65.656  1.00  0.00     0.000 HD 
HETATM   10  C   UNK A   0     -11.464   6.232  69.493  1.00  0.00    -0.317 C  
HETATM   11  H   UNK A   0      -8.575   4.588  67.596  1.00  0.00     0.000 HD 
HETATM   12  C   UNK A   0     -10.567   5.546  70.247  1.00  0.00    -0.287 C  
HETATM   13  H1  UNK A   0     -10.895   6.523  65.732  1.00  0.00     0.000 HD 
HETATM   14  C   UNK A   0      -9.492   4.759  69.477  1.00  0.00    -0.157 C  
HETATM   15  N   UNK A   0     -11.314   6.266  68.139  1.00  0.00    -0.514 NA 
HETATM   16  N   UNK A   0     -10.186   5.957  66.199  1.00  0.00    -0.415 NA 
HETATM   17  N   UNK A   0      -9.360   4.980  68.117  1.00  0.00    -0.120 N  
ENDROOT
BRANCH   3  18
HETATM   18  C   UNK A   0     -10.578   8.033  72.273  1.00  0.00    -0.291 C  
BRANCH  18  19
HETATM   19  N   UNK A   0     -11.460   9.198  72.062  1.00  0.00    -0.344 NA 
HETATM   20  H   UNK A   0     -12.257   9.380  72.671  1.00  0.00     0.000 HD 
BRANCH  19  21
HETATM   21  C   UNK A   0     -11.151  10.042  70.985  1.00  0.00    -0.271 A  
HETATM   22  C   UNK A   0      -9.643  10.542  69.138  1.00  0.00    -0.214 A  
HETATM   23  C   UNK A   0     -10.452  11.615  68.764  1.00  0.00    -0.226 A  
HETATM   24  C   UNK A   0     -11.876  11.197  70.678  1.00  0.00    -0.403 A  
HETATM   25  C   UNK A   0      -9.990   9.770  70.251  1.00  0.00    -0.309 A  
HETATM   26  C   UNK A   0     -11.540  11.974  69.566  1.00  0.00    -0.389 A  
BRANCH  23  27
HETATM   27  C   UNK A   0     -10.137  12.375  67.528  1.00  0.00    -0.202 C  
ATOM     28  H   GLU A   1     -11.018  14.082  68.337  1.00  0.00     0.000 HD 
ATOM     29  N   GLU A   1     -10.571  13.691  67.508  1.00  0.00    -0.240 N  
HETATM   30  O   UNK A   0      -9.514  11.863  66.611  1.00  0.00    -0.198 OA 
BRANCH  29  31
ATOM     31  CA  GLU A   1     -10.398  14.539  66.309  1.00  0.00    -0.294 C  
ATOM     32  C   GLU A   1      -9.851  15.927  66.718  1.00  0.00    -0.244 C  
ATOM     33  O   GLU A   1      -9.739  16.102  68.055  1.00  0.00    -0.225 OA 
ATOM     34  OXT GLU A   1      -9.582  16.823  65.929  1.00  0.00    -0.458 OA 
BRANCH  31  35
ATOM     35  CB  GLU A   1     -11.738  14.667  65.561  1.00  0.00    -0.316 C  
BRANCH  35  36
ATOM     36  CG  GLU A   1     -12.424  13.322  65.294  1.00  0.00    -0.543 C  
ATOM     37  CD  GLU A   1     -12.618  13.048  63.824  1.00  0.00    -0.206 C  
ATOM     38  OE2 GLU A   1     -12.304  13.802  62.918  1.00  0.00    -0.528 OA 
ATOM     39  OE1 GLU A   1     -13.187  11.835  63.606  1.00  0.00    -0.573 OA 
ENDBRANCH  35  36
ENDBRANCH  31  35
ENDBRANCH  29  31
ENDBRANCH  23  27
ENDBRANCH  19  21
ENDBRANCH  18  19
ENDBRANCH   3  18
TORSDOF 7
ENDMDL
MODEL       25
REMARK 921   NORMALIZED FREE ENERGY PREDICTED BY IDOCK:   -7.16 KCAL/MOL
REMARK 922        TOTAL FREE ENERGY PREDICTED BY IDOCK:  -11.32 KCAL/MOL
REMARK 923 INTER-LIGAND FREE ENERGY PREDICTED BY IDOCK:  -10.08 KCAL/MOL
REMARK 924 INTRA-LIGAND FREE ENERGY PREDICTED BY IDOCK:   -1.25 KCAL/MOL
REMARK 927      BINDING AFFINITY PREDICTED BY RF-SCORE:    0.00 PKD
ROOT
HETATM    1  C   UNK A   0      -9.968   7.514  73.534  1.00  0.00    -0.315 C  
HETATM    2  N   UNK A   0     -10.757   7.524  72.311  1.00  0.00    -0.235 NA 
HETATM    3  C   UNK A   0     -11.931   8.442  72.242  1.00  0.00    -0.389 C  
HETATM    4  O   UNK A   0      -8.246   6.069  71.864  1.00  0.00    -0.113 OA 
HETATM    5  C   UNK A   0     -13.079   7.710  71.502  1.00  0.00    -0.338 C  
HETATM    6  C   UNK A   0      -9.639   5.656  68.771  1.00  0.00    -0.131 C  
HETATM    7  N   UNK A   0     -12.617   7.131  70.229  1.00  0.00    -0.409 NA 
HETATM    8  H   UNK A   0     -13.248   7.085  69.428  1.00  0.00     0.000 HD 
HETATM    9  H2  UNK A   0      -8.440   4.928  67.268  1.00  0.00     0.000 HD 
HETATM   10  C   UNK A   0     -11.316   6.645  70.123  1.00  0.00    -0.382 C  
HETATM   11  H   UNK A   0      -7.764   5.386  69.453  1.00  0.00     0.000 HD 
HETATM   12  C   UNK A   0     -10.431   6.780  71.144  1.00  0.00    -0.214 C  
HETATM   13  H1  UNK A   0     -10.114   5.205  66.801  1.00  0.00     0.000 HD 
HETATM   14  C   UNK A   0      -9.047   6.141  70.934  1.00  0.00    -0.150 C  
HETATM   15  N   UNK A   0     -10.915   6.050  68.963  1.00  0.00    -0.344 NA 
HETATM   16  N   UNK A   0      -9.383   5.230  67.511  1.00  0.00    -0.114 NA 
HETATM   17  N   UNK A   0      -8.715   5.687  69.669  1.00  0.00    -0.109 N  
ENDROOT
BRANCH   3  18
HETATM   18  C   UNK A   0     -11.544   9.764  71.527  1.00  0.00    -0.353 C  
BRANCH  18  19
HETATM   19  N   UNK A   0     -12.428  10.037  70.376  1.00  0.00    -0.501 NA 
HETATM   20  H   UNK A   0     -13.301   9.527  70.242  1.00  0.00     0.000 HD 
BRANCH  19  21
HETATM   21  C   UNK A   0     -12.012  11.029  69.476  1.00  0.00    -0.342 A  
HETATM   22  C   UNK A   0     -10.945  11.552  67.348  1.00  0.00    -0.317 A  
HETATM   23  C   UNK A   0     -11.184  12.910  67.559  1.00  0.00    -0.329 A  
HETATM   24  C   UNK A   0     -12.123  12.399  69.732  1.00  0.00    -0.292 A  
HETATM   25  C   UNK A   0     -11.349  10.622  68.311  1.00  0.00    -0.357 A  
HETATM   26  C   UNK A   0     -11.726  13.337  68.776  1.00  0.00    -0.366 A  
BRANCH  23  27
HETATM   27  C   UNK A   0     -10.841  13.888  66.495  1.00  0.00    -0.295 C  
ATOM     28  H   GLU A   1      -9.508  14.842  67.784  1.00  0.00     0.000 HD 
ATOM     29  N   GLU A   1      -9.932  14.870  66.856  1.00  0.00    -0.239 N  
HETATM   30  O   UNK A   0     -11.322  13.801  65.376  1.00  0.00    -0.303 OA 
BRANCH  29  31
ATOM     31  CA  GLU A   1      -9.564  15.957  65.923  1.00  0.00    -0.343 C  
ATOM     32  C   GLU A   1      -8.179  16.532  66.303  1.00  0.00    -0.325 C  
ATOM     33  O   GLU A   1      -7.654  16.002  67.432  1.00  0.00    -0.140 OA 
ATOM     34  OXT GLU A   1      -7.608  17.421  65.686  1.00  0.00    -0.434 OA 
BRANCH  31  35
ATOM     35  CB  GLU A   1     -10.646  17.052  65.943  1.00  0.00    -0.221 C  
BRANCH  35  36
ATOM     36  CG  GLU A   1     -10.661  17.879  67.234  1.00  0.00    -0.341 C  
ATOM     37  CD  GLU A   1     -10.556  19.362  66.979  1.00  0.00    -0.478 C  
ATOM     38  OE2 GLU A   1     -10.440  19.882  65.881  1.00  0.00    -0.503 OA 
ATOM     39  OE1 GLU A   1     -10.613  20.079  68.129  1.00  0.00    -0.353 OA 
ENDBRANCH  35  36
ENDBRANCH  31  35
ENDBRANCH  29  31
ENDBRANCH  23  27
ENDBRANCH  19  21
ENDBRANCH  18  19
ENDBRANCH   3  18
TORSDOF 7
ENDMDL
MODEL       26
REMARK 921   NORMALIZED FREE ENERGY PREDICTED BY IDOCK:   -7.12 KCAL/MOL
REMARK 922        TOTAL FREE ENERGY PREDICTED BY IDOCK:  -11.26 KCAL/MOL
REMARK 923 INTER-LIGAND FREE ENERGY PREDICTED BY IDOCK:  -10.21 KCAL/MOL
REMARK 924 INTRA-LIGAND FREE ENERGY PREDICTED BY IDOCK:   -1.05 KCAL/MOL
REMARK 927      BINDING AFFINITY PREDICTED BY RF-SCORE:    0.00 PKD
ROOT
HETATM    1  C   UNK A   0      -9.743   7.830  73.602  1.00  0.00    -0.185 C  
HETATM    2  N   UNK A   0      -9.928   7.288  72.264  1.00  0.00    -0.167 NA 
HETATM    3  C   UNK A   0     -11.209   6.585  71.964  1.00  0.00    -0.273 C  
HETATM    4  O   UNK A   0      -7.596   9.072  72.302  1.00  0.00    -0.344 OA 
HETATM    5  C   UNK A   0     -10.894   5.359  71.069  1.00  0.00    -0.119 C  
HETATM    6  C   UNK A   0      -7.431   8.080  69.037  1.00  0.00    -0.093 C  
HETATM    7  N   UNK A   0     -10.058   5.734  69.915  1.00  0.00    -0.191 NA 
HETATM    8  H   UNK A   0     -10.174   5.255  69.022  1.00  0.00     0.000 HD 
HETATM    9  H2  UNK A   0      -6.158   9.101  67.787  1.00  0.00     0.000 HD 
HETATM   10  C   UNK A   0      -9.110   6.746  70.048  1.00  0.00    -0.148 C  
HETATM   11  H   UNK A   0      -6.544   9.587  70.036  1.00  0.00     0.000 HD 
HETATM   12  C   UNK A   0      -9.003   7.461  71.198  1.00  0.00    -0.143 C  
HETATM   13  H1  UNK A   0      -6.998   7.749  67.033  1.00  0.00     0.000 HD 
HETATM   14  C   UNK A   0      -7.872   8.502  71.249  1.00  0.00    -0.118 C  
HETATM   15  N   UNK A   0      -8.295   7.043  68.996  1.00  0.00    -0.125 NA 
HETATM   16  N   UNK A   0      -6.816   8.324  67.856  1.00  0.00    -0.065 NA 
HETATM   17  N   UNK A   0      -7.202   8.807  70.077  1.00  0.00    -0.050 N  
ENDROOT
BRANCH   3  18
HETATM   18  C   UNK A   0     -12.209   7.552  71.273  1.00  0.00    -0.329 C  
BRANCH  18  19
HETATM   19  N   UNK A   0     -12.369   8.804  72.038  1.00  0.00    -0.351 NA 
HETATM   20  H   UNK A   0     -12.547   8.796  73.042  1.00  0.00     0.000 HD 
BRANCH  19  21
HETATM   21  C   UNK A   0     -12.265  10.005  71.320  1.00  0.00    -0.402 A  
HETATM   22  C   UNK A   0     -11.290  11.183  69.423  1.00  0.00    -0.352 A  
HETATM   23  C   UNK A   0     -12.015  12.327  69.757  1.00  0.00    -0.365 A  
HETATM   24  C   UNK A   0     -12.879  11.197  71.717  1.00  0.00    -0.479 A  
HETATM   25  C   UNK A   0     -11.410  10.035  70.211  1.00  0.00    -0.376 A  
HETATM   26  C   UNK A   0     -12.769  12.349  70.935  1.00  0.00    -0.273 A  
BRANCH  23  27
HETATM   27  C   UNK A   0     -11.962  13.514  68.867  1.00  0.00    -0.341 C  
ATOM     28  H   GLU A   1     -12.120  12.282  67.192  1.00  0.00     0.000 HD 
ATOM     29  N   GLU A   1     -12.000  13.245  67.508  1.00  0.00    -0.350 N  
HETATM   30  O   UNK A   0     -11.912  14.646  69.322  1.00  0.00    -0.303 OA 
BRANCH  29  31
ATOM     31  CA  GLU A   1     -11.872  14.325  66.506  1.00  0.00    -0.415 C  
ATOM     32  C   GLU A   1     -12.570  13.910  65.190  1.00  0.00    -0.434 C  
ATOM     33  O   GLU A   1     -13.053  12.646  65.198  1.00  0.00    -0.726 OA 
ATOM     34  OXT GLU A   1     -12.648  14.621  64.197  1.00  0.00    -0.766 OA 
BRANCH  31  35
ATOM     35  CB  GLU A   1     -10.384  14.646  66.271  1.00  0.00    -0.301 C  
BRANCH  35  36
ATOM     36  CG  GLU A   1      -9.946  15.994  66.857  1.00  0.00    -0.255 C  
ATOM     37  CD  GLU A   1     -10.292  17.159  65.964  1.00  0.00    -0.309 C  
ATOM     38  OE2 GLU A   1     -10.835  17.075  64.874  1.00  0.00    -0.717 OA 
ATOM     39  OE1 GLU A   1      -9.935  18.345  66.518  1.00  0.00    -0.337 OA 
ENDBRANCH  35  36
ENDBRANCH  31  35
ENDBRANCH  29  31
ENDBRANCH  23  27
ENDBRANCH  19  21
ENDBRANCH  18  19
ENDBRANCH   3  18
TORSDOF 7
ENDMDL
MODEL       27
REMARK 921   NORMALIZED FREE ENERGY PREDICTED BY IDOCK:   -7.09 KCAL/MOL
REMARK 922        TOTAL FREE ENERGY PREDICTED BY IDOCK:  -11.23 KCAL/MOL
REMARK 923 INTER-LIGAND FREE ENERGY PREDICTED BY IDOCK:   -9.94 KCAL/MOL
REMARK 924 INTRA-LIGAND FREE ENERGY PREDICTED BY IDOCK:   -1.29 KCAL/MOL
REMARK 927      BINDING AFFINITY PREDICTED BY RF-SCORE:    0.00 PKD
ROOT
HETATM    1  C   UNK A   0     -11.880  14.876  66.783  1.00  0.00    -0.174 C  
HETATM    2  N   UNK A   0     -10.817  15.508  67.550  1.00  0.00    -0.302 NA 
HETATM    3  C   UNK A   0     -11.195  16.550  68.547  1.00  0.00    -0.296 C  
HETATM    4  O   UNK A   0      -9.770  13.149  66.149  1.00  0.00    -0.276 OA 
HETATM    5  C   UNK A   0     -10.135  17.680  68.498  1.00  0.00    -0.375 C  
HETATM    6  C   UNK A   0      -6.872  14.202  67.620  1.00  0.00    -0.179 C  
HETATM    7  N   UNK A   0      -8.767  17.141  68.592  1.00  0.00    -0.271 NA 
HETATM    8  H   UNK A   0      -8.038  17.672  69.068  1.00  0.00     0.000 HD 
HETATM    9  H2  UNK A   0      -5.260  12.926  67.588  1.00  0.00     0.000 HD 
HETATM   10  C   UNK A   0      -8.473  15.902  68.027  1.00  0.00    -0.162 C  
HETATM   11  H   UNK A   0      -7.384  12.466  66.739  1.00  0.00     0.000 HD 
HETATM   12  C   UNK A   0      -9.447  15.134  67.472  1.00  0.00    -0.206 C  
HETATM   13  H1  UNK A   0      -4.942  14.489  68.333  1.00  0.00     0.000 HD 
HETATM   14  C   UNK A   0      -8.987  13.819  66.818  1.00  0.00    -0.185 C  
HETATM   15  N   UNK A   0      -7.192  15.437  68.059  1.00  0.00    -0.115 NA 
HETATM   16  N   UNK A   0      -5.588  13.850  67.869  1.00  0.00    -0.210 NA 
HETATM   17  N   UNK A   0      -7.688  13.394  67.035  1.00  0.00    -0.371 N  
ENDROOT
BRANCH   3  18
HETATM   18  C   UNK A   0     -11.300  15.930  69.966  1.00  0.00    -0.358 C  
BRANCH  18  19
HETATM   19  N   UNK A   0     -12.627  15.324  70.197  1.00  0.00    -0.575 NA 
HETATM   20  H   UNK A   0     -13.486  15.861  70.078  1.00  0.00     0.000 HD 
BRANCH  19  21
HETATM   21  C   UNK A   0     -12.651  13.977  70.588  1.00  0.00    -0.344 A  
HETATM   22  C   UNK A   0     -12.007  11.682  70.081  1.00  0.00    -0.441 A  
HETATM   23  C   UNK A   0     -12.574  11.255  71.282  1.00  0.00    -0.487 A  
HETATM   24  C   UNK A   0     -13.329  13.514  71.719  1.00  0.00    -0.480 A  
HETATM   25  C   UNK A   0     -12.059  13.036  69.736  1.00  0.00    -0.325 A  
HETATM   26  C   UNK A   0     -13.281  12.164  72.076  1.00  0.00    -0.496 A  
BRANCH  23  27
HETATM   27  C   UNK A   0     -12.435   9.835  71.694  1.00  0.00    -0.410 C  
ATOM     28  H   GLU A   1     -10.680   9.671  70.580  1.00  0.00     0.000 HD 
ATOM     29  N   GLU A   1     -11.347   9.162  71.162  1.00  0.00    -0.294 N  
HETATM   30  O   UNK A   0     -13.225   9.320  72.469  1.00  0.00    -0.437 OA 
BRANCH  29  31
ATOM     31  CA  GLU A   1     -11.132   7.722  71.420  1.00  0.00    -0.238 C  
ATOM     32  C   GLU A   1      -9.911   7.529  72.350  1.00  0.00    -0.184 C  
ATOM     33  O   GLU A   1      -9.258   8.676  72.646  1.00  0.00    -0.299 OA 
ATOM     34  OXT GLU A   1      -9.519   6.443  72.757  1.00  0.00    -0.145 OA 
BRANCH  31  35
ATOM     35  CB  GLU A   1     -10.941   6.974  70.088  1.00  0.00    -0.306 C  
BRANCH  35  36
ATOM     36  CG  GLU A   1     -10.530   7.886  68.925  1.00  0.00    -0.205 C  
ATOM     37  CD  GLU A   1     -10.584   7.187  67.589  1.00  0.00    -0.248 C  
ATOM     38  OE2 GLU A   1     -10.887   6.018  67.416  1.00  0.00    -0.280 OA 
ATOM     39  OE1 GLU A   1     -10.258   8.021  66.569  1.00  0.00    -0.264 OA 
ENDBRANCH  35  36
ENDBRANCH  31  35
ENDBRANCH  29  31
ENDBRANCH  23  27
ENDBRANCH  19  21
ENDBRANCH  18  19
ENDBRANCH   3  18
TORSDOF 7
ENDMDL
MODEL       28
REMARK 921   NORMALIZED FREE ENERGY PREDICTED BY IDOCK:   -7.05 KCAL/MOL
REMARK 922        TOTAL FREE ENERGY PREDICTED BY IDOCK:  -11.16 KCAL/MOL
REMARK 923 INTER-LIGAND FREE ENERGY PREDICTED BY IDOCK:   -9.86 KCAL/MOL
REMARK 924 INTRA-LIGAND FREE ENERGY PREDICTED BY IDOCK:   -1.30 KCAL/MOL
REMARK 927      BINDING AFFINITY PREDICTED BY RF-SCORE:    0.00 PKD
ROOT
HETATM    1  C   UNK A   0      -9.271  16.963  66.383  1.00  0.00    -0.279 C  
HETATM    2  N   UNK A   0     -10.223  15.904  66.681  1.00  0.00    -0.280 NA 
HETATM    3  C   UNK A   0     -10.339  14.773  65.716  1.00  0.00    -0.340 C  
HETATM    4  O   UNK A   0      -9.857  17.610  69.043  1.00  0.00    -0.297 OA 
HETATM    5  C   UNK A   0     -11.835  14.382  65.601  1.00  0.00    -0.355 C  
HETATM    6  C   UNK A   0     -12.197  15.469  70.313  1.00  0.00    -0.400 C  
HETATM    7  N   UNK A   0     -12.444  14.185  66.928  1.00  0.00    -0.549 NA 
HETATM    8  H   UNK A   0     -13.173  13.483  67.057  1.00  0.00     0.000 HD 
HETATM    9  H2  UNK A   0     -12.546  15.520  72.339  1.00  0.00     0.000 HD 
HETATM   10  C   UNK A   0     -12.021  14.960  68.004  1.00  0.00    -0.185 C  
HETATM   11  H   UNK A   0     -10.966  16.798  71.192  1.00  0.00     0.000 HD 
HETATM   12  C   UNK A   0     -10.988  15.832  67.878  1.00  0.00    -0.324 C  
HETATM   13  H1  UNK A   0     -13.565  14.394  71.447  1.00  0.00     0.000 HD 
HETATM   14  C   UNK A   0     -10.659  16.683  69.118  1.00  0.00    -0.340 C  
HETATM   15  N   UNK A   0     -12.634  14.819  69.214  1.00  0.00    -0.562 NA 
HETATM   16  N   UNK A   0     -12.822  15.094  71.454  1.00  0.00    -0.351 NA 
HETATM   17  N   UNK A   0     -11.259  16.353  70.321  1.00  0.00    -0.460 N  
ENDROOT
BRANCH   3  18
HETATM   18  C   UNK A   0      -9.471  13.572  66.181  1.00  0.00    -0.141 C  
BRANCH  18  19
HETATM   19  N   UNK A   0      -9.776  12.351  65.408  1.00  0.00    -0.424 NA 
HETATM   20  H   UNK A   0      -9.808  12.360  64.389  1.00  0.00     0.000 HD 
BRANCH  19  21
HETATM   21  C   UNK A   0     -10.019  11.180  66.141  1.00  0.00    -0.229 A  
HETATM   22  C   UNK A   0      -9.886   8.748  66.224  1.00  0.00    -0.342 A  
HETATM   23  C   UNK A   0     -10.398   8.762  67.522  1.00  0.00    -0.334 A  
HETATM   24  C   UNK A   0     -10.654  11.167  67.386  1.00  0.00    -0.272 A  
HETATM   25  C   UNK A   0      -9.711   9.954  65.538  1.00  0.00    -0.370 A  
HETATM   26  C   UNK A   0     -10.831   9.969  68.083  1.00  0.00    -0.303 A  
BRANCH  23  27
HETATM   27  C   UNK A   0     -10.494   7.492  68.286  1.00  0.00    -0.180 C  
ATOM     28  H   GLU A   1     -11.042   8.548  69.998  1.00  0.00     0.000 HD 
ATOM     29  N   GLU A   1     -10.827   7.624  69.625  1.00  0.00    -0.226 N  
HETATM   30  O   UNK A   0     -10.312   6.413  67.746  1.00  0.00    -0.151 OA 
BRANCH  29  31
ATOM     31  CA  GLU A   1     -10.877   6.450  70.523  1.00  0.00    -0.279 C  
ATOM     32  C   GLU A   1     -11.924   6.683  71.638  1.00  0.00    -0.347 C  
ATOM     33  O   GLU A   1     -12.488   7.912  71.615  1.00  0.00    -0.301 OA 
ATOM     34  OXT GLU A   1     -12.200   5.865  72.506  1.00  0.00    -0.202 OA 
BRANCH  31  35
ATOM     35  CB  GLU A   1      -9.481   6.185  71.116  1.00  0.00    -0.182 C  
BRANCH  35  36
ATOM     36  CG  GLU A   1      -8.711   7.464  71.469  1.00  0.00    -0.122 C  
ATOM     37  CD  GLU A   1      -8.743   7.775  72.945  1.00  0.00    -0.166 C  
ATOM     38  OE2 GLU A   1      -9.331   7.123  73.791  1.00  0.00    -0.190 OA 
ATOM     39  OE1 GLU A   1      -8.021   8.885  73.243  1.00  0.00    -0.378 OA 
ENDBRANCH  35  36
ENDBRANCH  31  35
ENDBRANCH  29  31
ENDBRANCH  23  27
ENDBRANCH  19  21
ENDBRANCH  18  19
ENDBRANCH   3  18
TORSDOF 7
ENDMDL
MODEL       29
REMARK 921   NORMALIZED FREE ENERGY PREDICTED BY IDOCK:   -7.04 KCAL/MOL
REMARK 922        TOTAL FREE ENERGY PREDICTED BY IDOCK:  -11.15 KCAL/MOL
REMARK 923 INTER-LIGAND FREE ENERGY PREDICTED BY IDOCK:  -10.13 KCAL/MOL
REMARK 924 INTRA-LIGAND FREE ENERGY PREDICTED BY IDOCK:   -1.02 KCAL/MOL
REMARK 927      BINDING AFFINITY PREDICTED BY RF-SCORE:    0.00 PKD
ROOT
HETATM    1  C   UNK A   0      -8.034  14.710  67.890  1.00  0.00    -0.144 C  
HETATM    2  N   UNK A   0      -8.649  15.988  68.214  1.00  0.00    -0.175 NA 
HETATM    3  C   UNK A   0     -10.137  16.050  68.295  1.00  0.00    -0.229 C  
HETATM    4  O   UNK A   0      -5.759  16.117  68.715  1.00  0.00    -0.107 OA 
HETATM    5  C   UNK A   0     -10.604  17.392  67.677  1.00  0.00    -0.350 C  
HETATM    6  C   UNK A   0      -6.567  19.335  69.533  1.00  0.00    -0.288 C  
HETATM    7  N   UNK A   0      -9.863  18.533  68.242  1.00  0.00    -0.343 NA 
HETATM    8  H   UNK A   0     -10.325  19.434  68.364  1.00  0.00     0.000 HD 
HETATM    9  H2  UNK A   0      -5.142  20.470  70.487  1.00  0.00     0.000 HD 
HETATM   10  C   UNK A   0      -8.528  18.376  68.608  1.00  0.00    -0.295 C  
HETATM   11  H   UNK A   0      -4.917  18.231  69.871  1.00  0.00     0.000 HD 
HETATM   12  C   UNK A   0      -7.920  17.164  68.543  1.00  0.00    -0.259 C  
HETATM   13  H1  UNK A   0      -6.640  21.323  70.128  1.00  0.00     0.000 HD 
HETATM   14  C   UNK A   0      -6.425  17.132  68.907  1.00  0.00    -0.192 C  
HETATM   15  N   UNK A   0      -7.829  19.452  69.069  1.00  0.00    -0.341 NA 
HETATM   16  N   UNK A   0      -6.083  20.469  70.093  1.00  0.00    -0.447 NA 
HETATM   17  N   UNK A   0      -5.863  18.256  69.488  1.00  0.00    -0.237 N  
ENDROOT
BRANCH   3  18
HETATM   18  C   UNK A   0     -10.606  15.908  69.769  1.00  0.00    -0.322 C  
BRANCH  18  19
HETATM   19  N   UNK A   0     -12.022  15.500  69.851  1.00  0.00    -0.345 NA 
HETATM   20  H   UNK A   0     -12.774  16.123  69.557  1.00  0.00     0.000 HD 
BRANCH  19  21
HETATM   21  C   UNK A   0     -12.285  14.217  70.353  1.00  0.00    -0.356 A  
HETATM   22  C   UNK A   0     -12.024  11.810  70.071  1.00  0.00    -0.421 A  
HETATM   23  C   UNK A   0     -12.690  11.594  71.278  1.00  0.00    -0.444 A  
HETATM   24  C   UNK A   0     -13.064  13.977  71.489  1.00  0.00    -0.436 A  
HETATM   25  C   UNK A   0     -11.837  13.117  69.610  1.00  0.00    -0.390 A  
HETATM   26  C   UNK A   0     -13.255  12.676  71.960  1.00  0.00    -0.531 A  
BRANCH  23  27
HETATM   27  C   UNK A   0     -12.805  10.214  71.814  1.00  0.00    -0.452 C  
ATOM     28  H   GLU A   1     -10.750   9.940  71.588  1.00  0.00     0.000 HD 
ATOM     29  N   GLU A   1     -11.624   9.489  71.858  1.00  0.00    -0.311 N  
HETATM   30  O   UNK A   0     -13.874   9.774  72.207  1.00  0.00    -0.338 OA 
BRANCH  29  31
ATOM     31  CA  GLU A   1     -11.606   8.075  72.291  1.00  0.00    -0.366 C  
ATOM     32  C   GLU A   1     -10.216   7.718  72.870  1.00  0.00    -0.315 C  
ATOM     33  O   GLU A   1      -9.307   8.715  72.773  1.00  0.00    -0.259 OA 
ATOM     34  OXT GLU A   1      -9.923   6.624  73.333  1.00  0.00    -0.175 OA 
BRANCH  31  35
ATOM     35  CB  GLU A   1     -11.968   7.161  71.107  1.00  0.00    -0.381 C  
BRANCH  35  36
ATOM     36  CG  GLU A   1     -11.034   7.317  69.901  1.00  0.00    -0.262 C  
ATOM     37  CD  GLU A   1     -10.326   6.035  69.540  1.00  0.00    -0.233 C  
ATOM     38  OE2 GLU A   1     -10.437   4.977  70.137  1.00  0.00    -0.267 OA 
ATOM     39  OE1 GLU A   1      -9.538   6.182  68.446  1.00  0.00    -0.118 OA 
ENDBRANCH  35  36
ENDBRANCH  31  35
ENDBRANCH  29  31
ENDBRANCH  23  27
ENDBRANCH  19  21
ENDBRANCH  18  19
ENDBRANCH   3  18
TORSDOF 7
ENDMDL
MODEL       30
REMARK 921   NORMALIZED FREE ENERGY PREDICTED BY IDOCK:   -7.01 KCAL/MOL
REMARK 922        TOTAL FREE ENERGY PREDICTED BY IDOCK:  -11.12 KCAL/MOL
REMARK 923 INTER-LIGAND FREE ENERGY PREDICTED BY IDOCK:   -9.57 KCAL/MOL
REMARK 924 INTRA-LIGAND FREE ENERGY PREDICTED BY IDOCK:   -1.55 KCAL/MOL
REMARK 927      BINDING AFFINITY PREDICTED BY RF-SCORE:    0.00 PKD
ROOT
HETATM    1  C   UNK A   0      -9.569   7.993  73.031  1.00  0.00    -0.277 C  
HETATM    2  N   UNK A   0     -10.007   7.521  71.726  1.00  0.00    -0.171 NA 
HETATM    3  C   UNK A   0     -11.300   6.783  71.645  1.00  0.00    -0.266 C  
HETATM    4  O   UNK A   0      -7.770   9.397  71.409  1.00  0.00    -0.334 OA 
HETATM    5  C   UNK A   0     -11.139   5.626  70.627  1.00  0.00    -0.125 C  
HETATM    6  C   UNK A   0      -8.246   8.604  68.120  1.00  0.00    -0.115 C  
HETATM    7  N   UNK A   0     -10.568   6.103  69.355  1.00  0.00    -0.252 NA 
HETATM    8  H   UNK A   0     -10.849   5.672  68.474  1.00  0.00     0.000 HD 
HETATM    9  H2  UNK A   0      -7.285   9.749  66.708  1.00  0.00     0.000 HD 
HETATM   10  C   UNK A   0      -9.642   7.143  69.360  1.00  0.00    -0.153 C  
HETATM   11  H   UNK A   0      -7.219  10.086  69.016  1.00  0.00     0.000 HD 
HETATM   12  C   UNK A   0      -9.325   7.795  70.508  1.00  0.00    -0.163 C  
HETATM   13  H1  UNK A   0      -8.221   8.409  66.053  1.00  0.00     0.000 HD 
HETATM   14  C   UNK A   0      -8.238   8.878  70.398  1.00  0.00    -0.138 C  
HETATM   15  N   UNK A   0      -9.069   7.536  68.187  1.00  0.00    -0.129 NA 
HETATM   16  N   UNK A   0      -7.893   8.942  66.858  1.00  0.00    -0.101 NA 
HETATM   17  N   UNK A   0      -7.831   9.279  69.137  1.00  0.00    -0.084 N  
ENDROOT
BRANCH   3  18
HETATM   18  C   UNK A   0     -12.448   7.745  71.235  1.00  0.00    -0.279 C  
BRANCH  18  19
HETATM   19  N   UNK A   0     -12.374   9.024  71.971  1.00  0.00    -0.373 NA 
HETATM   20  H   UNK A   0     -12.411   9.055  72.989  1.00  0.00     0.000 HD 
BRANCH  19  21
HETATM   21  C   UNK A   0     -12.249  10.192  71.204  1.00  0.00    -0.389 A  
HETATM   22  C   UNK A   0     -11.420  11.224  69.158  1.00  0.00    -0.364 A  
HETATM   23  C   UNK A   0     -11.983  12.441  69.542  1.00  0.00    -0.324 A  
HETATM   24  C   UNK A   0     -12.690  11.447  71.634  1.00  0.00    -0.427 A  
HETATM   25  C   UNK A   0     -11.546  10.111  69.995  1.00  0.00    -0.323 A  
HETATM   26  C   UNK A   0     -12.572  12.565  70.804  1.00  0.00    -0.299 A  
BRANCH  23  27
HETATM   27  C   UNK A   0     -11.932  13.597  68.611  1.00  0.00    -0.360 C  
ATOM     28  H   GLU A   1     -11.765  12.300  66.987  1.00  0.00     0.000 HD 
ATOM     29  N   GLU A   1     -11.776  13.279  67.271  1.00  0.00    -0.358 N  
HETATM   30  O   UNK A   0     -12.045  14.743  69.016  1.00  0.00    -0.287 OA 
BRANCH  29  31
ATOM     31  CA  GLU A   1     -11.627  14.333  66.243  1.00  0.00    -0.372 C  
ATOM     32  C   GLU A   1     -12.501  13.996  65.012  1.00  0.00    -0.425 C  
ATOM     33  O   GLU A   1     -13.125  12.798  65.090  1.00  0.00    -0.750 OA 
ATOM     34  OXT GLU A   1     -12.598  14.707  64.020  1.00  0.00    -0.819 OA 
BRANCH  31  35
ATOM     35  CB  GLU A   1     -10.145  14.476  65.852  1.00  0.00    -0.346 C  
BRANCH  35  36
ATOM     36  CG  GLU A   1      -9.175  13.925  66.905  1.00  0.00    -0.269 C  
ATOM     37  CD  GLU A   1      -8.808  12.482  66.662  1.00  0.00    -0.142 C  
ATOM     38  OE2 GLU A   1      -9.238  11.788  65.755  1.00  0.00    -0.216 OA 
ATOM     39  OE1 GLU A   1      -7.917  12.025  67.578  1.00  0.00    -0.140 OA 
ENDBRANCH  35  36
ENDBRANCH  31  35
ENDBRANCH  29  31
ENDBRANCH  23  27
ENDBRANCH  19  21
ENDBRANCH  18  19
ENDBRANCH   3  18
TORSDOF 7
ENDMDL
MODEL       31
REMARK 921   NORMALIZED FREE ENERGY PREDICTED BY IDOCK:   -7.00 KCAL/MOL
REMARK 922        TOTAL FREE ENERGY PREDICTED BY IDOCK:  -11.09 KCAL/MOL
REMARK 923 INTER-LIGAND FREE ENERGY PREDICTED BY IDOCK:  -10.12 KCAL/MOL
REMARK 924 INTRA-LIGAND FREE ENERGY PREDICTED BY IDOCK:   -0.98 KCAL/MOL
REMARK 927      BINDING AFFINITY PREDICTED BY RF-SCORE:    0.00 PKD
ROOT
HETATM    1  C   UNK A   0      -8.131  13.546  67.215  1.00  0.00    -0.130 C  
HETATM    2  N   UNK A   0      -9.230  14.104  66.441  1.00  0.00    -0.457 NA 
HETATM    3  C   UNK A   0     -10.237  13.162  65.874  1.00  0.00    -0.291 C  
HETATM    4  O   UNK A   0      -7.816  16.254  67.857  1.00  0.00    -0.141 OA 
HETATM    5  C   UNK A   0     -10.629  13.660  64.459  1.00  0.00    -0.411 C  
HETATM    6  C   UNK A   0     -10.121  18.157  66.203  1.00  0.00    -0.336 C  
HETATM    7  N   UNK A   0     -10.992  15.088  64.471  1.00  0.00    -0.647 NA 
HETATM    8  H   UNK A   0     -11.712  15.439  63.840  1.00  0.00     0.000 HD 
HETATM    9  H2  UNK A   0     -10.318  20.126  66.761  1.00  0.00     0.000 HD 
HETATM   10  C   UNK A   0     -10.346  15.957  65.348  1.00  0.00    -0.372 C  
HETATM   11  H   UNK A   0      -8.893  18.563  67.746  1.00  0.00     0.000 HD 
HETATM   12  C   UNK A   0      -9.454  15.497  66.262  1.00  0.00    -0.323 C  
HETATM   13  H1  UNK A   0     -11.341  19.640  65.412  1.00  0.00     0.000 HD 
HETATM   14  C   UNK A   0      -8.755  16.562  67.126  1.00  0.00    -0.195 C  
HETATM   15  N   UNK A   0     -10.639  17.288  65.309  1.00  0.00    -0.657 NA 
HETATM   16  N   UNK A   0     -10.638  19.405  66.113  1.00  0.00    -0.480 NA 
HETATM   17  N   UNK A   0      -9.234  17.860  67.089  1.00  0.00    -0.254 N  
ENDROOT
BRANCH   3  18
HETATM   18  C   UNK A   0     -11.475  13.067  66.807  1.00  0.00    -0.345 C  
BRANCH  18  19
HETATM   19  N   UNK A   0     -11.893  11.666  67.013  1.00  0.00    -0.575 NA 
HETATM   20  H   UNK A   0     -12.514  11.193  66.357  1.00  0.00     0.000 HD 
BRANCH  19  21
HETATM   21  C   UNK A   0     -11.397  11.016  68.153  1.00  0.00    -0.307 A  
HETATM   22  C   UNK A   0     -11.635  10.596  70.541  1.00  0.00    -0.444 A  
HETATM   23  C   UNK A   0     -10.545   9.726  70.499  1.00  0.00    -0.376 A  
HETATM   24  C   UNK A   0     -10.229  10.248  68.156  1.00  0.00    -0.192 A  
HETATM   25  C   UNK A   0     -12.046  11.244  69.372  1.00  0.00    -0.384 A  
HETATM   26  C   UNK A   0      -9.810   9.593  69.317  1.00  0.00    -0.195 A  
BRANCH  23  27
HETATM   27  C   UNK A   0     -10.168   8.965  71.718  1.00  0.00    -0.344 C  
ATOM     28  H   GLU A   1      -8.148   9.224  71.269  1.00  0.00     0.000 HD 
ATOM     29  N   GLU A   1      -8.807   8.788  71.914  1.00  0.00    -0.202 N  
HETATM   30  O   UNK A   0     -11.014   8.552  72.494  1.00  0.00    -0.353 OA 
BRANCH  29  31
ATOM     31  CA  GLU A   1      -8.292   7.980  73.041  1.00  0.00    -0.185 C  
ATOM     32  C   GLU A   1      -6.841   8.402  73.373  1.00  0.00    -0.090 C  
ATOM     33  O   GLU A   1      -6.330   9.326  72.527  1.00  0.00    -0.299 OA 
ATOM     34  OXT GLU A   1      -6.175   7.924  74.281  1.00  0.00    -0.090 OA 
BRANCH  31  35
ATOM     35  CB  GLU A   1      -8.370   6.483  72.690  1.00  0.00    -0.117 C  
BRANCH  35  36
ATOM     36  CG  GLU A   1      -9.477   5.733  73.441  1.00  0.00    -0.138 C  
ATOM     37  CD  GLU A   1     -10.603   5.295  72.538  1.00  0.00    -0.224 C  
ATOM     38  OE2 GLU A   1     -10.675   5.521  71.341  1.00  0.00    -0.249 OA 
ATOM     39  OE1 GLU A   1     -11.550   4.596  73.212  1.00  0.00    -0.314 OA 
ENDBRANCH  35  36
ENDBRANCH  31  35
ENDBRANCH  29  31
ENDBRANCH  23  27
ENDBRANCH  19  21
ENDBRANCH  18  19
ENDBRANCH   3  18
TORSDOF 7
ENDMDL
MODEL       32
REMARK 921   NORMALIZED FREE ENERGY PREDICTED BY IDOCK:   -6.99 KCAL/MOL
REMARK 922        TOTAL FREE ENERGY PREDICTED BY IDOCK:  -11.09 KCAL/MOL
REMARK 923 INTER-LIGAND FREE ENERGY PREDICTED BY IDOCK:   -9.95 KCAL/MOL
REMARK 924 INTRA-LIGAND FREE ENERGY PREDICTED BY IDOCK:   -1.14 KCAL/MOL
REMARK 927      BINDING AFFINITY PREDICTED BY RF-SCORE:    0.00 PKD
ROOT
HETATM    1  C   UNK A   0      -8.172   7.974  73.742  1.00  0.00    -0.240 C  
HETATM    2  N   UNK A   0      -9.406   7.419  73.206  1.00  0.00    -0.178 NA 
HETATM    3  C   UNK A   0     -10.278   8.309  72.387  1.00  0.00    -0.327 C  
HETATM    4  O   UNK A   0      -7.706   5.258  74.240  1.00  0.00    -0.092 OA 
HETATM    5  C   UNK A   0     -11.756   8.003  72.740  1.00  0.00    -0.290 C  
HETATM    6  C   UNK A   0     -10.388   3.380  73.261  1.00  0.00    -0.160 C  
HETATM    7  N   UNK A   0     -12.038   6.559  72.676  1.00  0.00    -0.503 NA 
HETATM    8  H   UNK A   0     -12.956   6.230  72.375  1.00  0.00     0.000 HD 
HETATM    9  H2  UNK A   0     -10.160   1.337  73.206  1.00  0.00     0.000 HD 
HETATM   10  C   UNK A   0     -11.048   5.645  73.028  1.00  0.00    -0.282 C  
HETATM   11  H   UNK A   0      -8.501   2.882  73.757  1.00  0.00     0.000 HD 
HETATM   12  C   UNK A   0      -9.792   6.056  73.340  1.00  0.00    -0.165 C  
HETATM   13  H1  UNK A   0     -11.775   1.907  72.794  1.00  0.00     0.000 HD 
HETATM   14  C   UNK A   0      -8.806   4.960  73.780  1.00  0.00    -0.108 C  
HETATM   15  N   UNK A   0     -11.336   4.312  73.029  1.00  0.00    -0.113 NA 
HETATM   16  N   UNK A   0     -10.814   2.109  73.071  1.00  0.00    -0.156 NA 
HETATM   17  N   UNK A   0      -9.173   3.636  73.610  1.00  0.00    -0.093 N  
ENDROOT
BRANCH   3  18
HETATM   18  C   UNK A   0      -9.999   8.098  70.874  1.00  0.00    -0.187 C  
BRANCH  18  19
HETATM   19  N   UNK A   0     -11.185   8.415  70.055  1.00  0.00    -0.435 NA 
HETATM   20  H   UNK A   0     -11.889   7.709  69.840  1.00  0.00     0.000 HD 
BRANCH  19  21
HETATM   21  C   UNK A   0     -11.299   9.731  69.583  1.00  0.00    -0.122 A  
HETATM   22  C   UNK A   0     -10.804  11.323  67.805  1.00  0.00    -0.284 A  
HETATM   23  C   UNK A   0     -11.505  12.313  68.494  1.00  0.00    -0.349 A  
HETATM   24  C   UNK A   0     -11.881  10.767  70.319  1.00  0.00    -0.438 A  
HETATM   25  C   UNK A   0     -10.695  10.044  68.358  1.00  0.00    -0.271 A  
HETATM   26  C   UNK A   0     -11.999  12.049  69.776  1.00  0.00    -0.370 A  
BRANCH  23  27
HETATM   27  C   UNK A   0     -11.703  13.643  67.863  1.00  0.00    -0.360 C  
ATOM     28  H   GLU A   1     -11.327  12.823  65.984  1.00  0.00     0.000 HD 
ATOM     29  N   GLU A   1     -11.522  13.687  66.490  1.00  0.00    -0.323 N  
HETATM   30  O   UNK A   0     -12.027  14.616  68.526  1.00  0.00    -0.315 OA 
BRANCH  29  31
ATOM     31  CA  GLU A   1     -11.605  14.961  65.744  1.00  0.00    -0.234 C  
ATOM     32  C   GLU A   1     -12.357  14.743  64.409  1.00  0.00    -0.368 C  
ATOM     33  O   GLU A   1     -12.685  13.453  64.167  1.00  0.00    -0.651 OA 
ATOM     34  OXT GLU A   1     -12.601  15.630  63.603  1.00  0.00    -0.476 OA 
BRANCH  31  35
ATOM     35  CB  GLU A   1     -10.191  15.520  65.502  1.00  0.00    -0.415 C  
BRANCH  35  36
ATOM     36  CG  GLU A   1      -9.781  16.609  66.501  1.00  0.00    -0.291 C  
ATOM     37  CD  GLU A   1     -10.255  17.982  66.095  1.00  0.00    -0.363 C  
ATOM     38  OE2 GLU A   1     -10.874  18.241  65.076  1.00  0.00    -0.679 OA 
ATOM     39  OE1 GLU A   1      -9.920  18.925  67.012  1.00  0.00    -0.310 OA 
ENDBRANCH  35  36
ENDBRANCH  31  35
ENDBRANCH  29  31
ENDBRANCH  23  27
ENDBRANCH  19  21
ENDBRANCH  18  19
ENDBRANCH   3  18
TORSDOF 7
ENDMDL
MODEL       33
REMARK 921   NORMALIZED FREE ENERGY PREDICTED BY IDOCK:   -6.99 KCAL/MOL
REMARK 922        TOTAL FREE ENERGY PREDICTED BY IDOCK:  -11.08 KCAL/MOL
REMARK 923 INTER-LIGAND FREE ENERGY PREDICTED BY IDOCK:   -9.07 KCAL/MOL
REMARK 924 INTRA-LIGAND FREE ENERGY PREDICTED BY IDOCK:   -2.02 KCAL/MOL
REMARK 927      BINDING AFFINITY PREDICTED BY RF-SCORE:    0.00 PKD
ROOT
HETATM    1  C   UNK A   0     -10.073   9.029  66.238  1.00  0.00    -0.241 C  
HETATM    2  N   UNK A   0      -8.971   9.627  65.499  1.00  0.00    -0.170 NA 
HETATM    3  C   UNK A   0      -8.953   9.467  64.016  1.00  0.00    -0.188 C  
HETATM    4  O   UNK A   0      -8.982  10.632  68.258  1.00  0.00    -0.133 OA 
HETATM    5  C   UNK A   0      -7.488   9.231  63.569  1.00  0.00    -0.101 C  
HETATM    6  C   UNK A   0      -6.204  12.267  67.126  1.00  0.00    -0.118 C  
HETATM    7  N   UNK A   0      -6.581  10.244  64.137  1.00  0.00    -0.262 NA 
HETATM    8  H   UNK A   0      -5.771  10.561  63.604  1.00  0.00     0.000 HD 
HETATM    9  H2  UNK A   0      -5.420  13.758  68.305  1.00  0.00     0.000 HD 
HETATM   10  C   UNK A   0      -6.834  10.766  65.403  1.00  0.00     0.066 C  
HETATM   11  H   UNK A   0      -7.342  12.519  68.768  1.00  0.00     0.000 HD 
HETATM   12  C   UNK A   0      -7.956  10.429  66.090  1.00  0.00    -0.138 C  
HETATM   13  H1  UNK A   0      -4.512  13.434  66.832  1.00  0.00     0.000 HD 
HETATM   14  C   UNK A   0      -8.089  11.015  67.506  1.00  0.00    -0.117 C  
HETATM   15  N   UNK A   0      -5.955  11.654  65.950  1.00  0.00    -0.442 NA 
HETATM   16  N   UNK A   0      -5.304  13.228  67.441  1.00  0.00    -0.342 NA 
HETATM   17  N   UNK A   0      -7.205  12.007  67.895  1.00  0.00    -0.093 N  
ENDROOT
BRANCH   3  18
HETATM   18  C   UNK A   0      -9.563  10.718  63.329  1.00  0.00    -0.350 C  
BRANCH  18  19
HETATM   19  N   UNK A   0     -10.879  11.065  63.902  1.00  0.00    -0.512 NA 
HETATM   20  H   UNK A   0     -11.704  10.490  63.728  1.00  0.00     0.000 HD 
BRANCH  19  21
HETATM   21  C   UNK A   0     -10.943  12.221  64.694  1.00  0.00    -0.306 A  
HETATM   22  C   UNK A   0     -11.746  13.258  66.747  1.00  0.00    -0.434 A  
HETATM   23  C   UNK A   0     -11.098  14.445  66.404  1.00  0.00    -0.326 A  
HETATM   24  C   UNK A   0     -10.413  13.454  64.303  1.00  0.00    -0.325 A  
HETATM   25  C   UNK A   0     -11.675  12.159  65.886  1.00  0.00    -0.393 A  
HETATM   26  C   UNK A   0     -10.475  14.559  65.157  1.00  0.00    -0.439 A  
BRANCH  23  27
HETATM   27  C   UNK A   0     -11.093  15.580  67.362  1.00  0.00    -0.285 C  
ATOM     28  H   GLU A   1      -9.992  16.729  66.014  1.00  0.00     0.000 HD 
ATOM     29  N   GLU A   1     -10.401  16.708  66.948  1.00  0.00    -0.301 N  
HETATM   30  O   UNK A   0     -11.685  15.514  68.427  1.00  0.00    -0.365 OA 
BRANCH  29  31
ATOM     31  CA  GLU A   1     -10.244  17.882  67.834  1.00  0.00    -0.371 C  
ATOM     32  C   GLU A   1     -10.392  19.185  67.015  1.00  0.00    -0.414 C  
ATOM     33  O   GLU A   1     -10.534  18.986  65.685  1.00  0.00    -0.554 OA 
ATOM     34  OXT GLU A   1     -10.339  20.310  67.494  1.00  0.00    -0.364 OA 
BRANCH  31  35
ATOM     35  CB  GLU A   1      -8.879  17.822  68.545  1.00  0.00    -0.284 C  
BRANCH  35  36
ATOM     36  CG  GLU A   1      -7.694  17.651  67.586  1.00  0.00    -0.211 C  
ATOM     37  CD  GLU A   1      -7.100  16.265  67.635  1.00  0.00    -0.141 C  
ATOM     38  OE2 GLU A   1      -7.474  15.362  68.365  1.00  0.00    -0.110 OA 
ATOM     39  OE1 GLU A   1      -6.081  16.121  66.750  1.00  0.00    -0.301 OA 
ENDBRANCH  35  36
ENDBRANCH  31  35
ENDBRANCH  29  31
ENDBRANCH  23  27
ENDBRANCH  19  21
ENDBRANCH  18  19
ENDBRANCH   3  18
TORSDOF 7
ENDMDL
MODEL       34
REMARK 921   NORMALIZED FREE ENERGY PREDICTED BY IDOCK:   -6.97 KCAL/MOL
REMARK 922        TOTAL FREE ENERGY PREDICTED BY IDOCK:  -11.06 KCAL/MOL
REMARK 923 INTER-LIGAND FREE ENERGY PREDICTED BY IDOCK:  -10.19 KCAL/MOL
REMARK 924 INTRA-LIGAND FREE ENERGY PREDICTED BY IDOCK:   -0.86 KCAL/MOL
REMARK 927      BINDING AFFINITY PREDICTED BY RF-SCORE:    0.00 PKD
ROOT
HETATM    1  C   UNK A   0      -7.304   5.376  67.910  1.00  0.00    -0.073 C  
HETATM    2  N   UNK A   0      -8.607   5.704  67.350  1.00  0.00    -0.110 NA 
HETATM    3  C   UNK A   0      -9.205   7.026  67.693  1.00  0.00    -0.120 C  
HETATM    4  O   UNK A   0      -7.514   3.331  66.009  1.00  0.00    -0.071 OA 
HETATM    5  C   UNK A   0     -10.728   6.833  67.902  1.00  0.00    -0.256 C  
HETATM    6  C   UNK A   0     -10.511   3.508  64.379  1.00  0.00    -0.128 C  
HETATM    7  N   UNK A   0     -11.339   6.102  66.778  1.00  0.00    -0.681 NA 
HETATM    8  H   UNK A   0     -12.292   6.317  66.486  1.00  0.00     0.000 HD 
HETATM    9  H2  UNK A   0     -10.768   2.333  62.711  1.00  0.00     0.000 HD 
HETATM   10  C   UNK A   0     -10.609   5.118  66.117  1.00  0.00    -0.236 C  
HETATM   11  H   UNK A   0      -8.820   2.488  63.986  1.00  0.00     0.000 HD 
HETATM   12  C   UNK A   0      -9.308   4.881  66.425  1.00  0.00    -0.145 C  
HETATM   13  H1  UNK A   0     -12.182   3.279  63.167  1.00  0.00     0.000 HD 
HETATM   14  C   UNK A   0      -8.630   3.722  65.675  1.00  0.00    -0.112 C  
HETATM   15  N   UNK A   0     -11.202   4.400  65.120  1.00  0.00    -1.040 NA 
HETATM   16  N   UNK A   0     -11.215   3.003  63.338  1.00  0.00    -0.332 NA 
HETATM   17  N   UNK A   0      -9.289   3.160  64.595  1.00  0.00    -0.142 N  
ENDROOT
BRANCH   3  18
HETATM   18  C   UNK A   0      -8.911   8.061  66.573  1.00  0.00    -0.157 C  
BRANCH  18  19
HETATM   19  N   UNK A   0     -10.156   8.623  66.013  1.00  0.00    -0.421 NA 
HETATM   20  H   UNK A   0     -10.736   8.091  65.363  1.00  0.00     0.000 HD 
BRANCH  19  21
HETATM   21  C   UNK A   0     -10.505   9.921  66.415  1.00  0.00    -0.127 A  
HETATM   22  C   UNK A   0     -10.595  12.289  65.848  1.00  0.00    -0.290 A  
HETATM   23  C   UNK A   0     -11.213  12.560  67.069  1.00  0.00    -0.353 A  
HETATM   24  C   UNK A   0     -11.001  10.228  67.686  1.00  0.00    -0.356 A  
HETATM   25  C   UNK A   0     -10.235  10.975  65.533  1.00  0.00    -0.327 A  
HETATM   26  C   UNK A   0     -11.367  11.537  68.010  1.00  0.00    -0.368 A  
BRANCH  23  27
HETATM   27  C   UNK A   0     -11.681  13.939  67.363  1.00  0.00    -0.389 C  
ATOM     28  H   GLU A   1     -10.194  14.150  68.809  1.00  0.00     0.000 HD 
ATOM     29  N   GLU A   1     -10.998  14.600  68.371  1.00  0.00    -0.244 N  
HETATM   30  O   UNK A   0     -12.594  14.446  66.731  1.00  0.00    -0.219 OA 
BRANCH  29  31
ATOM     31  CA  GLU A   1     -11.410  15.946  68.824  1.00  0.00    -0.378 C  
ATOM     32  C   GLU A   1     -10.393  17.003  68.334  1.00  0.00    -0.351 C  
ATOM     33  O   GLU A   1      -9.321  16.480  67.695  1.00  0.00    -0.211 OA 
ATOM     34  OXT GLU A   1     -10.497  18.206  68.535  1.00  0.00    -0.348 OA 
BRANCH  31  35
ATOM     35  CB  GLU A   1     -11.537  15.965  70.359  1.00  0.00    -0.387 C  
BRANCH  35  36
ATOM     36  CG  GLU A   1     -12.794  15.258  70.880  1.00  0.00    -0.511 C  
ATOM     37  CD  GLU A   1     -12.859  15.219  72.387  1.00  0.00    -0.363 C  
ATOM     38  OE2 GLU A   1     -12.010  15.665  73.141  1.00  0.00    -0.438 OA 
ATOM     39  OE1 GLU A   1     -13.998  14.628  72.829  1.00  0.00    -0.511 OA 
ENDBRANCH  35  36
ENDBRANCH  31  35
ENDBRANCH  29  31
ENDBRANCH  23  27
ENDBRANCH  19  21
ENDBRANCH  18  19
ENDBRANCH   3  18
TORSDOF 7
ENDMDL
MODEL       35
REMARK 921   NORMALIZED FREE ENERGY PREDICTED BY IDOCK:   -6.96 KCAL/MOL
REMARK 922        TOTAL FREE ENERGY PREDICTED BY IDOCK:  -11.03 KCAL/MOL
REMARK 923 INTER-LIGAND FREE ENERGY PREDICTED BY IDOCK:   -9.51 KCAL/MOL
REMARK 924 INTRA-LIGAND FREE ENERGY PREDICTED BY IDOCK:   -1.52 KCAL/MOL
REMARK 927      BINDING AFFINITY PREDICTED BY RF-SCORE:    0.00 PKD
ROOT
HETATM    1  C   UNK A   0     -11.419  15.889  68.557  1.00  0.00    -0.377 C  
HETATM    2  N   UNK A   0     -11.482  14.568  67.949  1.00  0.00    -0.309 NA 
HETATM    3  C   UNK A   0     -11.028  14.424  66.536  1.00  0.00    -0.316 C  
HETATM    4  O   UNK A   0     -11.890  14.351  70.849  1.00  0.00    -0.314 OA 
HETATM    5  C   UNK A   0     -11.980  13.435  65.816  1.00  0.00    -0.407 C  
HETATM    6  C   UNK A   0     -12.248  11.053  70.031  1.00  0.00    -0.343 C  
HETATM    7  N   UNK A   0     -12.149  12.191  66.586  1.00  0.00    -0.578 NA 
HETATM    8  H   UNK A   0     -12.278  11.303  66.102  1.00  0.00     0.000 HD 
HETATM    9  H2  UNK A   0     -12.263   9.681  71.562  1.00  0.00     0.000 HD 
HETATM   10  C   UNK A   0     -12.132  12.233  67.978  1.00  0.00     0.003 C  
HETATM   11  H   UNK A   0     -11.962  11.983  71.794  1.00  0.00     0.000 HD 
HETATM   12  C   UNK A   0     -11.868  13.388  68.643  1.00  0.00    -0.362 C  
HETATM   13  H1  UNK A   0     -12.508   8.994  69.959  1.00  0.00     0.000 HD 
HETATM   14  C   UNK A   0     -11.948  13.323  70.178  1.00  0.00    -0.318 C  
HETATM   15  N   UNK A   0     -12.355  11.089  68.686  1.00  0.00    -0.737 NA 
HETATM   16  N   UNK A   0     -12.349   9.808  70.553  1.00  0.00    -0.481 NA 
HETATM   17  N   UNK A   0     -12.046  12.081  70.782  1.00  0.00    -0.446 N  
ENDROOT
BRANCH   3  18
HETATM   18  C   UNK A   0      -9.555  13.934  66.488  1.00  0.00    -0.287 C  
BRANCH  18  19
HETATM   19  N   UNK A   0      -9.382  12.832  65.520  1.00  0.00    -0.442 NA 
HETATM   20  H   UNK A   0      -9.418  12.996  64.514  1.00  0.00     0.000 HD 
BRANCH  19  21
HETATM   21  C   UNK A   0      -9.166  11.550  66.048  1.00  0.00    -0.217 A  
HETATM   22  C   UNK A   0      -9.340   9.142  65.722  1.00  0.00    -0.309 A  
HETATM   23  C   UNK A   0      -8.733   8.928  66.960  1.00  0.00    -0.130 A  
HETATM   24  C   UNK A   0      -8.683  11.319  67.339  1.00  0.00    -0.139 A  
HETATM   25  C   UNK A   0      -9.564  10.449  65.280  1.00  0.00    -0.316 A  
HETATM   26  C   UNK A   0      -8.452  10.017  67.791  1.00  0.00    -0.114 A  
BRANCH  23  27
HETATM   27  C   UNK A   0      -8.409   7.543  67.387  1.00  0.00    -0.112 C  
ATOM     28  H   GLU A   1     -10.441   7.113  67.578  1.00  0.00     0.000 HD 
ATOM     29  N   GLU A   1      -9.497   6.746  67.705  1.00  0.00    -0.119 N  
HETATM   30  O   UNK A   0      -7.256   7.145  67.427  1.00  0.00    -0.085 OA 
BRANCH  29  31
ATOM     31  CA  GLU A   1      -9.319   5.372  68.225  1.00  0.00    -0.114 C  
ATOM     32  C   GLU A   1      -9.879   4.347  67.211  1.00  0.00    -0.162 C  
ATOM     33  O   GLU A   1     -10.483   4.908  66.138  1.00  0.00    -0.283 OA 
ATOM     34  OXT GLU A   1      -9.838   3.134  67.364  1.00  0.00    -0.000 OA 
BRANCH  31  35
ATOM     35  CB  GLU A   1     -10.010   5.237  69.594  1.00  0.00    -0.302 C  
BRANCH  35  36
ATOM     36  CG  GLU A   1     -11.257   6.117  69.743  1.00  0.00    -0.494 C  
ATOM     37  CD  GLU A   1     -11.650   6.335  71.183  1.00  0.00    -0.275 C  
ATOM     38  OE2 GLU A   1     -11.080   5.856  72.149  1.00  0.00    -0.256 OA 
ATOM     39  OE1 GLU A   1     -12.729   7.150  71.296  1.00  0.00    -0.371 OA 
ENDBRANCH  35  36
ENDBRANCH  31  35
ENDBRANCH  29  31
ENDBRANCH  23  27
ENDBRANCH  19  21
ENDBRANCH  18  19
ENDBRANCH   3  18
TORSDOF 7
ENDMDL
MODEL       36
REMARK 921   NORMALIZED FREE ENERGY PREDICTED BY IDOCK:   -6.92 KCAL/MOL
REMARK 922        TOTAL FREE ENERGY PREDICTED BY IDOCK:  -10.98 KCAL/MOL
REMARK 923 INTER-LIGAND FREE ENERGY PREDICTED BY IDOCK:  -10.18 KCAL/MOL
REMARK 924 INTRA-LIGAND FREE ENERGY PREDICTED BY IDOCK:   -0.80 KCAL/MOL
REMARK 927      BINDING AFFINITY PREDICTED BY RF-SCORE:    0.00 PKD
ROOT
HETATM    1  C   UNK A   0      -8.356  14.596  67.041  1.00  0.00    -0.185 C  
HETATM    2  N   UNK A   0      -9.388  15.435  66.451  1.00  0.00    -0.275 NA 
HETATM    3  C   UNK A   0     -10.612  14.771  65.919  1.00  0.00    -0.314 C  
HETATM    4  O   UNK A   0      -7.445  17.105  67.888  1.00  0.00    -0.170 OA 
HETATM    5  C   UNK A   0     -11.027  15.489  64.610  1.00  0.00    -0.322 C  
HETATM    6  C   UNK A   0      -9.467  19.584  66.687  1.00  0.00    -0.360 C  
HETATM    7  N   UNK A   0     -11.093  16.950  64.793  1.00  0.00    -0.855 NA 
HETATM    8  H   UNK A   0     -11.784  17.499  64.282  1.00  0.00     0.000 HD 
HETATM    9  H2  UNK A   0      -9.212  21.480  67.441  1.00  0.00     0.000 HD 
HETATM   10  C   UNK A   0     -10.207  17.577  65.667  1.00  0.00    -0.079 C  
HETATM   11  H   UNK A   0      -8.043  19.575  68.111  1.00  0.00     0.000 HD 
HETATM   12  C   UNK A   0      -9.343  16.856  66.427  1.00  0.00    -0.276 C  
HETATM   13  H1  UNK A   0     -10.433  21.351  66.179  1.00  0.00     0.000 HD 
HETATM   14  C   UNK A   0      -8.368  17.665  67.300  1.00  0.00    -0.215 C  
HETATM   15  N   UNK A   0     -10.230  18.935  65.783  1.00  0.00    -0.539 NA 
HETATM   16  N   UNK A   0      -9.729  20.910  66.771  1.00  0.00    -0.599 NA 
HETATM   17  N   UNK A   0      -8.578  19.027  67.436  1.00  0.00    -0.275 N  
ENDROOT
BRANCH   3  18
HETATM   18  C   UNK A   0     -11.751  14.809  66.974  1.00  0.00    -0.315 C  
BRANCH  18  19
HETATM   19  N   UNK A   0     -12.481  13.527  67.030  1.00  0.00    -0.268 NA 
HETATM   20  H   UNK A   0     -13.460  13.458  66.752  1.00  0.00     0.000 HD 
BRANCH  19  21
HETATM   21  C   UNK A   0     -11.768  12.408  67.486  1.00  0.00    -0.357 A  
HETATM   22  C   UNK A   0     -10.997  11.106  69.396  1.00  0.00    -0.298 A  
HETATM   23  C   UNK A   0     -10.421  10.174  68.531  1.00  0.00    -0.221 A  
HETATM   24  C   UNK A   0     -11.073  11.539  66.640  1.00  0.00    -0.355 A  
HETATM   25  C   UNK A   0     -11.655  12.221  68.869  1.00  0.00    -0.367 A  
HETATM   26  C   UNK A   0     -10.414  10.419  67.154  1.00  0.00    -0.311 A  
BRANCH  23  27
HETATM   27  C   UNK A   0      -9.806   8.942  69.086  1.00  0.00    -0.180 C  
ATOM     28  H   GLU A   1     -11.693   8.206  69.580  1.00  0.00     0.000 HD 
ATOM     29  N   GLU A   1     -10.690   8.027  69.634  1.00  0.00    -0.232 N  
HETATM   30  O   UNK A   0      -8.601   8.755  69.031  1.00  0.00    -0.129 OA 
BRANCH  29  31
ATOM     31  CA  GLU A   1     -10.210   6.794  70.296  1.00  0.00    -0.195 C  
ATOM     32  C   GLU A   1     -10.344   5.591  69.334  1.00  0.00    -0.278 C  
ATOM     33  O   GLU A   1     -10.944   5.891  68.158  1.00  0.00    -0.274 OA 
ATOM     34  OXT GLU A   1      -9.994   4.450  69.603  1.00  0.00    -0.222 OA 
BRANCH  31  35
ATOM     35  CB  GLU A   1     -10.999   6.558  71.597  1.00  0.00    -0.291 C  
BRANCH  35  36
ATOM     36  CG  GLU A   1     -12.490   6.895  71.482  1.00  0.00    -0.420 C  
ATOM     37  CD  GLU A   1     -12.827   8.254  72.042  1.00  0.00    -0.340 C  
ATOM     38  OE2 GLU A   1     -12.032   9.018  72.565  1.00  0.00    -0.260 OA 
ATOM     39  OE1 GLU A   1     -14.142   8.552  71.893  1.00  0.00    -0.404 OA 
ENDBRANCH  35  36
ENDBRANCH  31  35
ENDBRANCH  29  31
ENDBRANCH  23  27
ENDBRANCH  19  21
ENDBRANCH  18  19
ENDBRANCH   3  18
TORSDOF 7
ENDMDL
MODEL       37
REMARK 921   NORMALIZED FREE ENERGY PREDICTED BY IDOCK:   -6.88 KCAL/MOL
REMARK 922        TOTAL FREE ENERGY PREDICTED BY IDOCK:  -10.93 KCAL/MOL
REMARK 923 INTER-LIGAND FREE ENERGY PREDICTED BY IDOCK:   -9.93 KCAL/MOL
REMARK 924 INTRA-LIGAND FREE ENERGY PREDICTED BY IDOCK:   -1.00 KCAL/MOL
REMARK 927      BINDING AFFINITY PREDICTED BY RF-SCORE:    0.00 PKD
ROOT
HETATM    1  C   UNK A   0      -8.094  14.148  67.093  1.00  0.00    -0.115 C  
HETATM    2  N   UNK A   0      -9.270  14.556  66.341  1.00  0.00    -0.418 NA 
HETATM    3  C   UNK A   0     -10.267  13.508  65.975  1.00  0.00    -0.305 C  
HETATM    4  O   UNK A   0      -7.871  16.926  67.364  1.00  0.00    -0.163 OA 
HETATM    5  C   UNK A   0     -10.781  13.803  64.543  1.00  0.00    -0.390 C  
HETATM    6  C   UNK A   0     -10.380  18.504  65.664  1.00  0.00    -0.040 C  
HETATM    7  N   UNK A   0     -11.213  15.205  64.403  1.00  0.00    -0.676 NA 
HETATM    8  H   UNK A   0     -11.993  15.441  63.789  1.00  0.00     0.000 HD 
HETATM    9  H2  UNK A   0     -10.636  20.519  65.984  1.00  0.00     0.000 HD 
HETATM   10  C   UNK A   0     -10.553  16.205  65.112  1.00  0.00    -0.343 C  
HETATM   11  H   UNK A   0      -9.068  19.156  67.046  1.00  0.00     0.000 HD 
HETATM   12  C   UNK A   0      -9.576  15.904  66.006  1.00  0.00    -0.350 C  
HETATM   13  H1  UNK A   0     -11.724  19.822  64.788  1.00  0.00     0.000 HD 
HETATM   14  C   UNK A   0      -8.873  17.099  66.674  1.00  0.00    -0.252 C  
HETATM   15  N   UNK A   0     -10.914  17.507  64.928  1.00  0.00    -0.827 NA 
HETATM   16  N   UNK A   0     -10.964  19.708  65.458  1.00  0.00    -0.354 NA 
HETATM   17  N   UNK A   0      -9.418  18.361  66.511  1.00  0.00    -0.312 N  
ENDROOT
BRANCH   3  18
HETATM   18  C   UNK A   0     -11.430  13.483  67.003  1.00  0.00    -0.340 C  
BRANCH  18  19
HETATM   19  N   UNK A   0     -12.102  12.169  67.030  1.00  0.00    -0.546 NA 
HETATM   20  H   UNK A   0     -12.968  12.004  66.517  1.00  0.00     0.000 HD 
BRANCH  19  21
HETATM   21  C   UNK A   0     -11.497  11.161  67.794  1.00  0.00    -0.272 A  
HETATM   22  C   UNK A   0     -11.061  10.251  70.013  1.00  0.00    -0.373 A  
HETATM   23  C   UNK A   0     -10.387   9.172  69.440  1.00  0.00    -0.220 A  
HETATM   24  C   UNK A   0     -10.707  10.147  67.246  1.00  0.00    -0.316 A  
HETATM   25  C   UNK A   0     -11.601  11.244  69.189  1.00  0.00    -0.387 A  
HETATM   26  C   UNK A   0     -10.165   9.148  68.059  1.00  0.00    -0.258 A  
BRANCH  23  27
HETATM   27  C   UNK A   0      -9.897   8.071  70.308  1.00  0.00    -0.184 C  
ATOM     28  H   GLU A   1     -11.572   8.273  71.533  1.00  0.00     0.000 HD 
ATOM     29  N   GLU A   1     -10.689   7.778  71.407  1.00  0.00    -0.221 N  
HETATM   30  O   UNK A   0      -8.875   7.460  70.039  1.00  0.00    -0.140 OA 
BRANCH  29  31
ATOM     31  CA  GLU A   1     -10.280   6.761  72.400  1.00  0.00    -0.180 C  
ATOM     32  C   GLU A   1     -11.447   5.780  72.662  1.00  0.00    -0.287 C  
ATOM     33  O   GLU A   1     -12.593   6.104  72.021  1.00  0.00    -0.199 OA 
ATOM     34  OXT GLU A   1     -11.383   4.819  73.416  1.00  0.00    -0.331 OA 
BRANCH  31  35
ATOM     35  CB  GLU A   1      -9.830   7.452  73.700  1.00  0.00    -0.365 C  
BRANCH  35  36
ATOM     36  CG  GLU A   1      -8.485   6.943  74.234  1.00  0.00    -0.179 C  
ATOM     37  CD  GLU A   1      -7.333   7.845  73.869  1.00  0.00    -0.144 C  
ATOM     38  OE2 GLU A   1      -7.418   8.862  73.199  1.00  0.00    -0.360 OA 
ATOM     39  OE1 GLU A   1      -6.159   7.401  74.385  1.00  0.00    -0.079 OA 
ENDBRANCH  35  36
ENDBRANCH  31  35
ENDBRANCH  29  31
ENDBRANCH  23  27
ENDBRANCH  19  21
ENDBRANCH  18  19
ENDBRANCH   3  18
TORSDOF 7
ENDMDL
MODEL       38
REMARK 921   NORMALIZED FREE ENERGY PREDICTED BY IDOCK:   -6.84 KCAL/MOL
REMARK 922        TOTAL FREE ENERGY PREDICTED BY IDOCK:  -10.87 KCAL/MOL
REMARK 923 INTER-LIGAND FREE ENERGY PREDICTED BY IDOCK:   -9.51 KCAL/MOL
REMARK 924 INTRA-LIGAND FREE ENERGY PREDICTED BY IDOCK:   -1.35 KCAL/MOL
REMARK 927      BINDING AFFINITY PREDICTED BY RF-SCORE:    0.00 PKD
ROOT
HETATM    1  C   UNK A   0      -8.811  15.599  66.174  1.00  0.00    -0.276 C  
HETATM    2  N   UNK A   0     -10.049  14.879  66.430  1.00  0.00    -0.273 NA 
HETATM    3  C   UNK A   0     -10.601  14.023  65.341  1.00  0.00    -0.341 C  
HETATM    4  O   UNK A   0      -8.985  15.960  68.945  1.00  0.00    -0.198 OA 
HETATM    5  C   UNK A   0     -12.144  14.171  65.339  1.00  0.00    -0.410 C  
HETATM    6  C   UNK A   0     -11.840  14.533  70.165  1.00  0.00    -0.308 C  
HETATM    7  N   UNK A   0     -12.707  13.972  66.686  1.00  0.00    -0.435 NA 
HETATM    8  H   UNK A   0     -13.623  13.539  66.799  1.00  0.00     0.000 HD 
HETATM    9  H2  UNK A   0     -12.033  14.365  72.205  1.00  0.00     0.000 HD 
HETATM   10  C   UNK A   0     -11.982  14.379  67.804  1.00  0.00    -0.333 C  
HETATM   11  H   UNK A   0     -10.180  15.221  71.074  1.00  0.00     0.000 HD 
HETATM   12  C   UNK A   0     -10.722  14.870  67.683  1.00  0.00    -0.270 C  
HETATM   13  H1  UNK A   0     -13.425  13.799  71.288  1.00  0.00     0.000 HD 
HETATM   14  C   UNK A   0     -10.051  15.350  68.982  1.00  0.00    -0.234 C  
HETATM   15  N   UNK A   0     -12.536  14.252  69.044  1.00  0.00    -0.538 NA 
HETATM   16  N   UNK A   0     -12.489  14.204  71.307  1.00  0.00    -0.352 NA 
HETATM   17  N   UNK A   0     -10.657  15.045  70.189  1.00  0.00    -0.473 N  
ENDROOT
BRANCH   3  18
HETATM   18  C   UNK A   0     -10.171  12.545  65.543  1.00  0.00    -0.275 C  
BRANCH  18  19
HETATM   19  N   UNK A   0      -8.873  12.447  66.238  1.00  0.00    -0.422 NA 
HETATM   20  H   UNK A   0      -8.045  12.933  65.892  1.00  0.00     0.000 HD 
BRANCH  19  21
HETATM   21  C   UNK A   0      -8.829  11.655  67.395  1.00  0.00    -0.160 A  
HETATM   22  C   UNK A   0     -10.072  10.353  69.037  1.00  0.00    -0.227 A  
HETATM   23  C   UNK A   0      -8.878  10.005  69.669  1.00  0.00    -0.217 A  
HETATM   24  C   UNK A   0      -7.657  11.407  68.116  1.00  0.00    -0.114 A  
HETATM   25  C   UNK A   0     -10.042  11.184  67.913  1.00  0.00    -0.195 A  
HETATM   26  C   UNK A   0      -7.675  10.575  69.239  1.00  0.00    -0.144 A  
BRANCH  23  27
HETATM   27  C   UNK A   0      -8.901   9.047  70.803  1.00  0.00    -0.234 C  
ATOM     28  H   GLU A   1     -10.474   8.009  69.911  1.00  0.00     0.000 HD 
ATOM     29  N   GLU A   1      -9.876   8.065  70.736  1.00  0.00    -0.182 N  
HETATM   30  O   UNK A   0      -8.091   9.122  71.713  1.00  0.00    -0.343 OA 
BRANCH  29  31
ATOM     31  CA  GLU A   1     -10.068   7.095  71.837  1.00  0.00    -0.182 C  
ATOM     32  C   GLU A   1     -10.434   5.707  71.260  1.00  0.00    -0.236 C  
ATOM     33  O   GLU A   1     -10.592   5.694  69.916  1.00  0.00    -0.281 OA 
ATOM     34  OXT GLU A   1     -10.620   4.706  71.938  1.00  0.00    -0.149 OA 
BRANCH  31  35
ATOM     35  CB  GLU A   1     -11.158   7.604  72.798  1.00  0.00    -0.437 C  
BRANCH  35  36
ATOM     36  CG  GLU A   1     -12.174   8.542  72.135  1.00  0.00    -0.446 C  
ATOM     37  CD  GLU A   1     -13.428   7.828  71.697  1.00  0.00    -0.349 C  
ATOM     38  OE2 GLU A   1     -13.636   6.632  71.814  1.00  0.00    -0.198 OA 
ATOM     39  OE1 GLU A   1     -14.332   8.681  71.152  1.00  0.00    -0.277 OA 
ENDBRANCH  35  36
ENDBRANCH  31  35
ENDBRANCH  29  31
ENDBRANCH  23  27
ENDBRANCH  19  21
ENDBRANCH  18  19
ENDBRANCH   3  18
TORSDOF 7
ENDMDL
MODEL       39
REMARK 921   NORMALIZED FREE ENERGY PREDICTED BY IDOCK:   -6.84 KCAL/MOL
REMARK 922        TOTAL FREE ENERGY PREDICTED BY IDOCK:  -10.86 KCAL/MOL
REMARK 923 INTER-LIGAND FREE ENERGY PREDICTED BY IDOCK:   -9.56 KCAL/MOL
REMARK 924 INTRA-LIGAND FREE ENERGY PREDICTED BY IDOCK:   -1.30 KCAL/MOL
REMARK 927      BINDING AFFINITY PREDICTED BY RF-SCORE:    0.00 PKD
ROOT
HETATM    1  C   UNK A   0      -6.716  20.108  69.618  1.00  0.00    -0.202 C  
HETATM    2  N   UNK A   0      -6.772  20.045  68.165  1.00  0.00    -0.281 NA 
HETATM    3  C   UNK A   0      -5.488  19.905  67.420  1.00  0.00    -0.169 C  
HETATM    4  O   UNK A   0      -9.470  19.730  69.280  1.00  0.00    -0.270 OA 
HETATM    5  C   UNK A   0      -5.566  20.781  66.144  1.00  0.00    -0.204 C  
HETATM    6  C   UNK A   0     -10.267  19.605  65.960  1.00  0.00    -0.493 C  
HETATM    7  N   UNK A   0      -6.803  20.520  65.386  1.00  0.00    -0.455 NA 
HETATM    8  H   UNK A   0      -6.801  20.578  64.368  1.00  0.00     0.000 HD 
HETATM    9  H2  UNK A   0     -12.165  18.999  65.451  1.00  0.00     0.000 HD 
HETATM   10  C   UNK A   0      -7.974  20.196  66.066  1.00  0.00    -0.204 C  
HETATM   11  H   UNK A   0     -11.303  19.115  67.616  1.00  0.00     0.000 HD 
HETATM   12  C   UNK A   0      -7.978  20.021  67.413  1.00  0.00    -0.305 C  
HETATM   13  H1  UNK A   0     -11.152  19.462  64.087  1.00  0.00     0.000 HD 
HETATM   14  C   UNK A   0      -9.346  19.735  68.057  1.00  0.00    -0.352 C  
HETATM   15  N   UNK A   0      -9.130  20.020  65.364  1.00  0.00    -0.255 NA 
HETATM   16  N   UNK A   0     -11.271  19.336  65.092  1.00  0.00    -0.005 NA 
HETATM   17  N   UNK A   0     -10.418  19.445  67.230  1.00  0.00    -0.437 N  
ENDROOT
BRANCH   3  18
HETATM   18  C   UNK A   0      -5.222  18.415  67.072  1.00  0.00    -0.126 C  
BRANCH  18  19
HETATM   19  N   UNK A   0      -5.562  17.526  68.201  1.00  0.00    -0.144 NA 
HETATM   20  H   UNK A   0      -4.912  17.370  68.971  1.00  0.00     0.000 HD 
BRANCH  19  21
HETATM   21  C   UNK A   0      -6.819  16.904  68.164  1.00  0.00    -0.161 A  
HETATM   22  C   UNK A   0      -8.618  15.995  66.794  1.00  0.00    -0.292 A  
HETATM   23  C   UNK A   0      -9.302  15.606  67.947  1.00  0.00    -0.195 A  
HETATM   24  C   UNK A   0      -7.577  16.628  69.305  1.00  0.00    -0.130 A  
HETATM   25  C   UNK A   0      -7.389  16.651  66.910  1.00  0.00    -0.260 A  
HETATM   26  C   UNK A   0      -8.805  15.970  69.203  1.00  0.00    -0.245 A  
BRANCH  23  27
HETATM   27  C   UNK A   0     -10.559  14.825  67.824  1.00  0.00    -0.257 C  
ATOM     28  H   GLU A   1      -9.475  13.045  67.875  1.00  0.00     0.000 HD 
ATOM     29  N   GLU A   1     -10.406  13.449  67.771  1.00  0.00    -0.237 N  
HETATM   30  O   UNK A   0     -11.648  15.377  67.798  1.00  0.00    -0.322 OA 
BRANCH  29  31
ATOM     31  CA  GLU A   1     -11.565  12.553  67.567  1.00  0.00    -0.361 C  
ATOM     32  C   GLU A   1     -11.533  11.404  68.601  1.00  0.00    -0.296 C  
ATOM     33  O   GLU A   1     -10.433  11.404  69.390  1.00  0.00    -0.138 OA 
ATOM     34  OXT GLU A   1     -12.385  10.530  68.688  1.00  0.00    -0.214 OA 
BRANCH  31  35
ATOM     35  CB  GLU A   1     -11.557  12.008  66.127  1.00  0.00    -0.371 C  
BRANCH  35  36
ATOM     36  CG  GLU A   1     -12.500  12.759  65.179  1.00  0.00    -0.565 C  
ATOM     37  CD  GLU A   1     -11.798  13.838  64.392  1.00  0.00    -0.427 C  
ATOM     38  OE2 GLU A   1     -10.618  14.130  64.492  1.00  0.00    -0.406 OA 
ATOM     39  OE1 GLU A   1     -12.639  14.463  63.529  1.00  0.00    -0.784 OA 
ENDBRANCH  35  36
ENDBRANCH  31  35
ENDBRANCH  29  31
ENDBRANCH  23  27
ENDBRANCH  19  21
ENDBRANCH  18  19
ENDBRANCH   3  18
TORSDOF 7
ENDMDL
MODEL       40
REMARK 921   NORMALIZED FREE ENERGY PREDICTED BY IDOCK:   -6.79 KCAL/MOL
REMARK 922        TOTAL FREE ENERGY PREDICTED BY IDOCK:  -10.81 KCAL/MOL
REMARK 923 INTER-LIGAND FREE ENERGY PREDICTED BY IDOCK:   -9.67 KCAL/MOL
REMARK 924 INTRA-LIGAND FREE ENERGY PREDICTED BY IDOCK:   -1.14 KCAL/MOL
REMARK 927      BINDING AFFINITY PREDICTED BY RF-SCORE:    0.00 PKD
ROOT
HETATM    1  C   UNK A   0      -5.873  18.716  69.993  1.00  0.00    -0.236 C  
HETATM    2  N   UNK A   0      -6.284  18.235  68.683  1.00  0.00    -0.202 NA 
HETATM    3  C   UNK A   0      -6.840  16.854  68.585  1.00  0.00    -0.183 C  
HETATM    4  O   UNK A   0      -5.809  21.131  68.578  1.00  0.00    -0.337 OA 
HETATM    5  C   UNK A   0      -6.310  16.207  67.280  1.00  0.00    -0.169 C  
HETATM    6  C   UNK A   0      -6.607  20.622  65.295  1.00  0.00    -0.213 C  
HETATM    7  N   UNK A   0      -6.518  17.088  66.117  1.00  0.00    -0.156 NA 
HETATM    8  H   UNK A   0      -6.718  16.687  65.201  1.00  0.00     0.000 HD 
HETATM    9  H2  UNK A   0      -6.960  22.276  64.126  1.00  0.00     0.000 HD 
HETATM   10  C   UNK A   0      -6.442  18.470  66.276  1.00  0.00    -0.203 C  
HETATM   11  H   UNK A   0      -6.470  22.295  66.407  1.00  0.00     0.000 HD 
HETATM   12  C   UNK A   0      -6.272  19.028  67.502  1.00  0.00    -0.184 C  
HETATM   13  H1  UNK A   0      -7.046  20.740  63.269  1.00  0.00     0.000 HD 
HETATM   14  C   UNK A   0      -6.131  20.560  67.539  1.00  0.00    -0.227 C  
HETATM   15  N   UNK A   0      -6.570  19.277  65.184  1.00  0.00    -0.419 NA 
HETATM   16  N   UNK A   0      -6.894  21.257  64.135  1.00  0.00    -0.468 NA 
HETATM   17  N   UNK A   0      -6.415  21.276  66.389  1.00  0.00    -0.481 N  
ENDROOT
BRANCH   3  18
HETATM   18  C   UNK A   0      -8.392  16.891  68.612  1.00  0.00    -0.261 C  
BRANCH  18  19
HETATM   19  N   UNK A   0      -8.973  16.113  67.501  1.00  0.00    -0.190 NA 
HETATM   20  H   UNK A   0      -8.843  16.393  66.529  1.00  0.00     0.000 HD 
BRANCH  19  21
HETATM   21  C   UNK A   0      -9.714  14.972  67.843  1.00  0.00    -0.212 A  
HETATM   22  C   UNK A   0      -9.777  12.541  68.009  1.00  0.00    -0.215 A  
HETATM   23  C   UNK A   0     -11.062  12.609  68.548  1.00  0.00    -0.300 A  
HETATM   24  C   UNK A   0     -11.048  15.013  68.257  1.00  0.00    -0.292 A  
HETATM   25  C   UNK A   0      -9.116  13.720  67.650  1.00  0.00    -0.196 A  
HETATM   26  C   UNK A   0     -11.718  13.843  68.622  1.00  0.00    -0.396 A  
BRANCH  23  27
HETATM   27  C   UNK A   0     -11.726  11.367  69.018  1.00  0.00    -0.343 C  
ATOM     28  H   GLU A   1     -11.080  11.743  70.964  1.00  0.00     0.000 HD 
ATOM     29  N   GLU A   1     -11.573  11.080  70.365  1.00  0.00    -0.312 N  
HETATM   30  O   UNK A   0     -12.379  10.670  68.257  1.00  0.00    -0.152 OA 
BRANCH  29  31
ATOM     31  CA  GLU A   1     -12.111   9.834  70.952  1.00  0.00    -0.321 C  
ATOM     32  C   GLU A   1     -13.215  10.168  71.982  1.00  0.00    -0.430 C  
ATOM     33  O   GLU A   1     -13.385  11.494  72.195  1.00  0.00    -0.477 OA 
ATOM     34  OXT GLU A   1     -13.857   9.331  72.601  1.00  0.00    -0.449 OA 
BRANCH  31  35
ATOM     35  CB  GLU A   1     -10.970   9.026  71.599  1.00  0.00    -0.435 C  
BRANCH  35  36
ATOM     36  CG  GLU A   1     -10.478   7.858  70.737  1.00  0.00    -0.218 C  
ATOM     37  CD  GLU A   1     -11.392   6.660  70.800  1.00  0.00    -0.336 C  
ATOM     38  OE2 GLU A   1     -12.406   6.581  71.475  1.00  0.00    -0.333 OA 
ATOM     39  OE1 GLU A   1     -10.963   5.653  69.998  1.00  0.00    -0.328 OA 
ENDBRANCH  35  36
ENDBRANCH  31  35
ENDBRANCH  29  31
ENDBRANCH  23  27
ENDBRANCH  19  21
ENDBRANCH  18  19
ENDBRANCH   3  18
TORSDOF 7
ENDMDL
MODEL       41
REMARK 921   NORMALIZED FREE ENERGY PREDICTED BY IDOCK:   -6.78 KCAL/MOL
REMARK 922        TOTAL FREE ENERGY PREDICTED BY IDOCK:  -10.79 KCAL/MOL
REMARK 923 INTER-LIGAND FREE ENERGY PREDICTED BY IDOCK:   -9.89 KCAL/MOL
REMARK 924 INTRA-LIGAND FREE ENERGY PREDICTED BY IDOCK:   -0.89 KCAL/MOL
REMARK 927      BINDING AFFINITY PREDICTED BY RF-SCORE:    0.00 PKD
ROOT
HETATM    1  C   UNK A   0      -7.770   7.632  68.695  1.00  0.00    -0.119 C  
HETATM    2  N   UNK A   0      -8.659   6.482  68.757  1.00  0.00    -0.121 NA 
HETATM    3  C   UNK A   0      -9.335   6.187  70.053  1.00  0.00    -0.154 C  
HETATM    4  O   UNK A   0      -7.995   7.078  65.959  1.00  0.00    -0.099 OA 
HETATM    5  C   UNK A   0      -9.362   4.650  70.250  1.00  0.00    -0.149 C  
HETATM    6  C   UNK A   0      -9.945   4.320  65.448  1.00  0.00    -0.223 C  
HETATM    7  N   UNK A   0      -9.888   3.962  69.059  1.00  0.00    -0.050 NA 
HETATM    8  H   UNK A   0     -10.434   3.106  69.161  1.00  0.00     0.000 HD 
HETATM    9  H2  UNK A   0     -10.540   3.908  63.523  1.00  0.00     0.000 HD 
HETATM   10  C   UNK A   0      -9.637   4.485  67.792  1.00  0.00    -0.160 C  
HETATM   11  H   UNK A   0      -9.274   5.749  64.198  1.00  0.00     0.000 HD 
HETATM   12  C   UNK A   0      -8.995   5.671  67.637  1.00  0.00    -0.107 C  
HETATM   13  H1  UNK A   0     -11.060   2.727  64.720  1.00  0.00     0.000 HD 
HETATM   14  C   UNK A   0      -8.714   6.109  66.189  1.00  0.00    -0.148 C  
HETATM   15  N   UNK A   0     -10.070   3.809  66.690  1.00  0.00    -0.307 NA 
HETATM   16  N   UNK A   0     -10.566   3.589  64.492  1.00  0.00    -0.467 NA 
HETATM   17  N   UNK A   0      -9.321   5.410  65.159  1.00  0.00    -0.361 N  
ENDROOT
BRANCH   3  18
HETATM   18  C   UNK A   0     -10.767   6.787  70.067  1.00  0.00    -0.247 C  
BRANCH  18  19
HETATM   19  N   UNK A   0     -10.825   8.034  70.857  1.00  0.00    -0.226 NA 
HETATM   20  H   UNK A   0     -10.692   8.030  71.868  1.00  0.00     0.000 HD 
BRANCH  19  21
HETATM   21  C   UNK A   0     -11.072   9.221  70.152  1.00  0.00    -0.230 A  
HETATM   22  C   UNK A   0     -12.088  11.436  70.159  1.00  0.00    -0.439 A  
HETATM   23  C   UNK A   0     -11.586  11.673  68.879  1.00  0.00    -0.377 A  
HETATM   24  C   UNK A   0     -10.691   9.423  68.823  1.00  0.00    -0.200 A  
HETATM   25  C   UNK A   0     -11.839  10.210  70.782  1.00  0.00    -0.443 A  
HETATM   26  C   UNK A   0     -10.932  10.646  68.190  1.00  0.00    -0.321 A  
BRANCH  23  27
HETATM   27  C   UNK A   0     -11.768  13.008  68.255  1.00  0.00    -0.353 C  
ATOM     28  H   GLU A   1     -11.482  12.179  66.364  1.00  0.00     0.000 HD 
ATOM     29  N   GLU A   1     -11.635  13.048  66.877  1.00  0.00    -0.346 N  
HETATM   30  O   UNK A   0     -12.042  13.990  68.928  1.00  0.00    -0.351 OA 
BRANCH  29  31
ATOM     31  CA  GLU A   1     -11.709  14.324  66.133  1.00  0.00    -0.390 C  
ATOM     32  C   GLU A   1     -12.352  14.090  64.746  1.00  0.00    -0.413 C  
ATOM     33  O   GLU A   1     -12.616  12.791  64.473  1.00  0.00    -0.587 OA 
ATOM     34  OXT GLU A   1     -12.569  14.974  63.928  1.00  0.00    -0.813 OA 
BRANCH  31  35
ATOM     35  CB  GLU A   1     -10.302  14.934  65.999  1.00  0.00    -0.313 C  
BRANCH  35  36
ATOM     36  CG  GLU A   1     -10.298  16.467  65.948  1.00  0.00    -0.378 C  
ATOM     37  CD  GLU A   1      -8.919  17.053  66.115  1.00  0.00    -0.208 C  
ATOM     38  OE2 GLU A   1      -7.898  16.412  66.302  1.00  0.00    -0.296 OA 
ATOM     39  OE1 GLU A   1      -8.930  18.407  66.025  1.00  0.00    -0.497 OA 
ENDBRANCH  35  36
ENDBRANCH  31  35
ENDBRANCH  29  31
ENDBRANCH  23  27
ENDBRANCH  19  21
ENDBRANCH  18  19
ENDBRANCH   3  18
TORSDOF 7
ENDMDL
MODEL       42
REMARK 921   NORMALIZED FREE ENERGY PREDICTED BY IDOCK:   -6.77 KCAL/MOL
REMARK 922        TOTAL FREE ENERGY PREDICTED BY IDOCK:  -10.77 KCAL/MOL
REMARK 923 INTER-LIGAND FREE ENERGY PREDICTED BY IDOCK:   -9.75 KCAL/MOL
REMARK 924 INTRA-LIGAND FREE ENERGY PREDICTED BY IDOCK:   -1.02 KCAL/MOL
REMARK 927      BINDING AFFINITY PREDICTED BY RF-SCORE:    0.00 PKD
ROOT
HETATM    1  C   UNK A   0     -11.184  16.826  68.639  1.00  0.00    -0.170 C  
HETATM    2  N   UNK A   0     -10.099  16.647  67.686  1.00  0.00    -0.265 NA 
HETATM    3  C   UNK A   0      -9.881  15.285  67.121  1.00  0.00    -0.224 C  
HETATM    4  O   UNK A   0     -10.586  19.511  68.116  1.00  0.00    -0.405 OA 
HETATM    5  C   UNK A   0      -8.354  15.041  67.011  1.00  0.00    -0.222 C  
HETATM    6  C   UNK A   0      -7.957  19.755  65.947  1.00  0.00    -0.280 C  
HETATM    7  N   UNK A   0      -7.677  16.157  66.328  1.00  0.00    -0.137 NA 
HETATM    8  H   UNK A   0      -6.863  15.979  65.739  1.00  0.00     0.000 HD 
HETATM    9  H2  UNK A   0      -7.544  21.603  65.144  1.00  0.00     0.000 HD 
HETATM   10  C   UNK A   0      -8.153  17.456  66.490  1.00  0.00    -0.277 C  
HETATM   11  H   UNK A   0      -9.308  21.104  66.587  1.00  0.00     0.000 HD 
HETATM   12  C   UNK A   0      -9.289  17.706  67.191  1.00  0.00    -0.245 C  
HETATM   13  H1  UNK A   0      -6.428  20.328  64.664  1.00  0.00     0.000 HD 
HETATM   14  C   UNK A   0      -9.674  19.186  67.359  1.00  0.00    -0.320 C  
HETATM   15  N   UNK A   0      -7.484  18.492  65.908  1.00  0.00    -0.470 NA 
HETATM   16  N   UNK A   0      -7.250  20.627  65.190  1.00  0.00    -0.506 NA 
HETATM   17  N   UNK A   0      -8.995  20.133  66.611  1.00  0.00    -0.473 N  
ENDROOT
BRANCH   3  18
HETATM   18  C   UNK A   0     -10.578  15.152  65.740  1.00  0.00    -0.351 C  
BRANCH  18  19
HETATM   19  N   UNK A   0     -11.542  14.034  65.723  1.00  0.00    -0.330 NA 
HETATM   20  H   UNK A   0     -12.452  14.122  65.272  1.00  0.00     0.000 HD 
BRANCH  19  21
HETATM   21  C   UNK A   0     -11.148  12.846  66.357  1.00  0.00    -0.285 A  
HETATM   22  C   UNK A   0      -9.690  10.893  66.330  1.00  0.00    -0.245 A  
HETATM   23  C   UNK A   0     -10.221  10.477  67.551  1.00  0.00    -0.245 A  
HETATM   24  C   UNK A   0     -11.761  12.346  67.509  1.00  0.00    -0.425 A  
HETATM   25  C   UNK A   0     -10.164  12.066  65.735  1.00  0.00    -0.274 A  
HETATM   26  C   UNK A   0     -11.294  11.176  68.114  1.00  0.00    -0.377 A  
BRANCH  23  27
HETATM   27  C   UNK A   0      -9.653   9.284  68.229  1.00  0.00    -0.147 C  
ATOM     28  H   GLU A   1     -11.312   9.193  69.489  1.00  0.00     0.000 HD 
ATOM     29  N   GLU A   1     -10.405   8.777  69.277  1.00  0.00    -0.212 N  
HETATM   30  O   UNK A   0      -8.603   8.784  67.857  1.00  0.00    -0.128 OA 
BRANCH  29  31
ATOM     31  CA  GLU A   1      -9.920   7.643  70.094  1.00  0.00    -0.186 C  
ATOM     32  C   GLU A   1     -10.594   6.331  69.629  1.00  0.00    -0.264 C  
ATOM     33  O   GLU A   1     -11.530   6.504  68.667  1.00  0.00    -0.210 OA 
ATOM     34  OXT GLU A   1     -10.359   5.229  70.106  1.00  0.00    -0.261 OA 
BRANCH  31  35
ATOM     35  CB  GLU A   1     -10.197   7.916  71.583  1.00  0.00    -0.239 C  
BRANCH  35  36
ATOM     36  CG  GLU A   1     -11.154   9.089  71.826  1.00  0.00    -0.444 C  
ATOM     37  CD  GLU A   1     -12.588   8.649  71.985  1.00  0.00    -0.378 C  
ATOM     38  OE2 GLU A   1     -12.986   7.498  71.906  1.00  0.00    -0.314 OA 
ATOM     39  OE1 GLU A   1     -13.414   9.695  72.241  1.00  0.00    -0.441 OA 
ENDBRANCH  35  36
ENDBRANCH  31  35
ENDBRANCH  29  31
ENDBRANCH  23  27
ENDBRANCH  19  21
ENDBRANCH  18  19
ENDBRANCH   3  18
TORSDOF 7
ENDMDL
MODEL       43
REMARK 921   NORMALIZED FREE ENERGY PREDICTED BY IDOCK:   -6.75 KCAL/MOL
REMARK 922        TOTAL FREE ENERGY PREDICTED BY IDOCK:  -10.74 KCAL/MOL
REMARK 923 INTER-LIGAND FREE ENERGY PREDICTED BY IDOCK:   -9.17 KCAL/MOL
REMARK 924 INTRA-LIGAND FREE ENERGY PREDICTED BY IDOCK:   -1.57 KCAL/MOL
REMARK 927      BINDING AFFINITY PREDICTED BY RF-SCORE:    0.00 PKD
ROOT
HETATM    1  C   UNK A   0      -8.915  15.838  66.236  1.00  0.00    -0.345 C  
HETATM    2  N   UNK A   0     -10.081  15.114  66.720  1.00  0.00    -0.253 NA 
HETATM    3  C   UNK A   0     -10.497  13.884  65.987  1.00  0.00    -0.298 C  
HETATM    4  O   UNK A   0      -9.238  17.096  68.716  1.00  0.00    -0.269 OA 
HETATM    5  C   UNK A   0     -12.046  13.850  65.931  1.00  0.00    -0.433 C  
HETATM    6  C   UNK A   0     -11.976  15.860  70.344  1.00  0.00    -0.313 C  
HETATM    7  N   UNK A   0     -12.639  14.058  67.263  1.00  0.00    -0.411 NA 
HETATM    8  H   UNK A   0     -13.509  13.590  67.515  1.00  0.00     0.000 HD 
HETATM    9  H2  UNK A   0     -12.232  16.374  72.318  1.00  0.00     0.000 HD 
HETATM   10  C   UNK A   0     -12.006  14.898  68.177  1.00  0.00    -0.202 C  
HETATM   11  H   UNK A   0     -10.434  16.995  70.967  1.00  0.00     0.000 HD 
HETATM   12  C   UNK A   0     -10.799  15.456  67.899  1.00  0.00    -0.300 C  
HETATM   13  H1  UNK A   0     -13.520  15.379  71.646  1.00  0.00     0.000 HD 
HETATM   14  C   UNK A   0     -10.235  16.420  68.957  1.00  0.00    -0.269 C  
HETATM   15  N   UNK A   0     -12.593  15.139  69.384  1.00  0.00    -0.594 NA 
HETATM   16  N   UNK A   0     -12.633  15.868  71.527  1.00  0.00    -0.511 NA 
HETATM   17  N   UNK A   0     -10.854  16.478  70.194  1.00  0.00    -0.300 N  
ENDROOT
BRANCH   3  18
HETATM   18  C   UNK A   0      -9.925  12.619  66.683  1.00  0.00    -0.242 C  
BRANCH  18  19
HETATM   19  N   UNK A   0     -10.914  11.524  66.717  1.00  0.00    -0.283 NA 
HETATM   20  H   UNK A   0     -11.467  11.279  65.896  1.00  0.00     0.000 HD 
BRANCH  19  21
HETATM   21  C   UNK A   0     -11.061  10.837  67.931  1.00  0.00    -0.308 A  
HETATM   22  C   UNK A   0     -10.583   8.824  69.219  1.00  0.00    -0.210 A  
HETATM   23  C   UNK A   0     -11.226   9.377  70.327  1.00  0.00    -0.286 A  
HETATM   24  C   UNK A   0     -11.815  11.319  69.005  1.00  0.00    -0.421 A  
HETATM   25  C   UNK A   0     -10.514   9.550  68.027  1.00  0.00    -0.279 A  
HETATM   26  C   UNK A   0     -11.887  10.603  70.203  1.00  0.00    -0.421 A  
BRANCH  23  27
HETATM   27  C   UNK A   0     -11.216   8.647  71.620  1.00  0.00    -0.309 C  
ATOM     28  H   GLU A   1      -9.594   7.504  70.978  1.00  0.00     0.000 HD 
ATOM     29  N   GLU A   1     -10.262   7.648  71.735  1.00  0.00    -0.187 N  
HETATM   30  O   UNK A   0     -11.989   8.939  72.519  1.00  0.00    -0.305 OA 
BRANCH  29  31
ATOM     31  CA  GLU A   1     -10.192   6.786  72.935  1.00  0.00    -0.201 C  
ATOM     32  C   GLU A   1      -8.727   6.669  73.417  1.00  0.00    -0.123 C  
ATOM     33  O   GLU A   1      -7.832   7.282  72.609  1.00  0.00    -0.092 OA 
ATOM     34  OXT GLU A   1      -8.375   6.043  74.408  1.00  0.00    -0.114 OA 
BRANCH  31  35
ATOM     35  CB  GLU A   1     -10.787   5.402  72.620  1.00  0.00    -0.307 C  
BRANCH  35  36
ATOM     36  CG  GLU A   1     -10.600   4.970  71.160  1.00  0.00    -0.147 C  
ATOM     37  CD  GLU A   1      -9.582   3.867  71.004  1.00  0.00    -0.181 C  
ATOM     38  OE2 GLU A   1      -8.937   3.369  71.912  1.00  0.00    -0.094 OA 
ATOM     39  OE1 GLU A   1      -9.461   3.469  69.712  1.00  0.00    -0.166 OA 
ENDBRANCH  35  36
ENDBRANCH  31  35
ENDBRANCH  29  31
ENDBRANCH  23  27
ENDBRANCH  19  21
ENDBRANCH  18  19
ENDBRANCH   3  18
TORSDOF 7
ENDMDL
MODEL       44
REMARK 921   NORMALIZED FREE ENERGY PREDICTED BY IDOCK:   -6.74 KCAL/MOL
REMARK 922        TOTAL FREE ENERGY PREDICTED BY IDOCK:  -10.73 KCAL/MOL
REMARK 923 INTER-LIGAND FREE ENERGY PREDICTED BY IDOCK:   -9.78 KCAL/MOL
REMARK 924 INTRA-LIGAND FREE ENERGY PREDICTED BY IDOCK:   -0.95 KCAL/MOL
REMARK 927      BINDING AFFINITY PREDICTED BY RF-SCORE:    0.00 PKD
ROOT
HETATM    1  C   UNK A   0      -8.950   7.972  69.332  1.00  0.00    -0.148 C  
HETATM    2  N   UNK A   0      -9.300   7.630  70.703  1.00  0.00    -0.163 NA 
HETATM    3  C   UNK A   0      -9.658   8.740  71.633  1.00  0.00    -0.293 C  
HETATM    4  O   UNK A   0      -9.234   5.200  69.055  1.00  0.00    -0.109 OA 
HETATM    5  C   UNK A   0      -9.052   8.424  73.024  1.00  0.00    -0.188 C  
HETATM    6  C   UNK A   0      -9.977   3.762  72.064  1.00  0.00    -0.168 C  
HETATM    7  N   UNK A   0      -9.390   7.059  73.462  1.00  0.00    -0.162 NA 
HETATM    8  H   UNK A   0      -9.538   6.861  74.452  1.00  0.00     0.000 HD 
HETATM    9  H2  UNK A   0     -10.566   1.792  72.066  1.00  0.00     0.000 HD 
HETATM   10  C   UNK A   0      -9.506   6.040  72.520  1.00  0.00    -0.147 C  
HETATM   11  H   UNK A   0     -10.067   3.066  70.176  1.00  0.00     0.000 HD 
HETATM   12  C   UNK A   0      -9.407   6.299  71.190  1.00  0.00    -0.160 C  
HETATM   13  H1  UNK A   0     -10.443   2.523  73.663  1.00  0.00     0.000 HD 
HETATM   14  C   UNK A   0      -9.481   5.081  70.253  1.00  0.00    -0.172 C  
HETATM   15  N   UNK A   0      -9.754   4.766  72.937  1.00  0.00    -0.137 NA 
HETATM   16  N   UNK A   0     -10.358   2.603  72.650  1.00  0.00    -0.161 NA 
HETATM   17  N   UNK A   0      -9.870   3.863  70.783  1.00  0.00    -0.184 N  
ENDROOT
BRANCH   3  18
HETATM   18  C   UNK A   0     -11.199   8.908  71.707  1.00  0.00    -0.362 C  
BRANCH  18  19
HETATM   19  N   UNK A   0     -11.796   9.053  70.364  1.00  0.00    -0.468 NA 
HETATM   20  H   UNK A   0     -12.229   8.263  69.886  1.00  0.00     0.000 HD 
BRANCH  19  21
HETATM   21  C   UNK A   0     -11.737  10.325  69.777  1.00  0.00    -0.191 A  
HETATM   22  C   UNK A   0     -12.055  12.726  70.047  1.00  0.00    -0.355 A  
HETATM   23  C   UNK A   0     -11.606  12.934  68.742  1.00  0.00    -0.351 A  
HETATM   24  C   UNK A   0     -11.419  10.540  68.433  1.00  0.00    -0.285 A  
HETATM   25  C   UNK A   0     -12.129  11.424  70.552  1.00  0.00    -0.487 A  
HETATM   26  C   UNK A   0     -11.339  11.836  67.918  1.00  0.00    -0.362 A  
BRANCH  23  27
HETATM   27  C   UNK A   0     -11.437  14.321  68.239  1.00  0.00    -0.304 C  
ATOM     28  H   GLU A   1     -10.992  13.590  66.338  1.00  0.00     0.000 HD 
ATOM     29  N   GLU A   1     -11.069  14.433  66.908  1.00  0.00    -0.315 N  
HETATM   30  O   UNK A   0     -11.638  15.286  68.959  1.00  0.00    -0.304 OA 
BRANCH  29  31
ATOM     31  CA  GLU A   1     -10.785  15.749  66.296  1.00  0.00    -0.282 C  
ATOM     32  C   GLU A   1     -11.384  15.810  64.871  1.00  0.00    -0.280 C  
ATOM     33  O   GLU A   1     -11.941  14.647  64.458  1.00  0.00    -0.444 OA 
ATOM     34  OXT GLU A   1     -11.329  16.790  64.141  1.00  0.00    -1.194 OA 
BRANCH  31  35
ATOM     35  CB  GLU A   1      -9.266  15.999  66.273  1.00  0.00    -0.368 C  
BRANCH  35  36
ATOM     36  CG  GLU A   1      -8.781  16.941  67.382  1.00  0.00    -0.213 C  
ATOM     37  CD  GLU A   1      -8.745  18.385  66.946  1.00  0.00    -0.272 C  
ATOM     38  OE2 GLU A   1      -9.034  18.793  65.834  1.00  0.00    -0.462 OA 
ATOM     39  OE1 GLU A   1      -8.354  19.208  67.953  1.00  0.00    -0.283 OA 
ENDBRANCH  35  36
ENDBRANCH  31  35
ENDBRANCH  29  31
ENDBRANCH  23  27
ENDBRANCH  19  21
ENDBRANCH  18  19
ENDBRANCH   3  18
TORSDOF 7
ENDMDL
MODEL       45
REMARK 921   NORMALIZED FREE ENERGY PREDICTED BY IDOCK:   -6.73 KCAL/MOL
REMARK 922        TOTAL FREE ENERGY PREDICTED BY IDOCK:  -10.72 KCAL/MOL
REMARK 923 INTER-LIGAND FREE ENERGY PREDICTED BY IDOCK:   -9.40 KCAL/MOL
REMARK 924 INTRA-LIGAND FREE ENERGY PREDICTED BY IDOCK:   -1.32 KCAL/MOL
REMARK 927      BINDING AFFINITY PREDICTED BY RF-SCORE:    0.00 PKD
ROOT
HETATM    1  C   UNK A   0     -10.049  17.284  66.095  1.00  0.00    -0.302 C  
HETATM    2  N   UNK A   0     -10.752  16.027  66.302  1.00  0.00    -0.276 NA 
HETATM    3  C   UNK A   0     -10.935  15.125  65.129  1.00  0.00    -0.417 C  
HETATM    4  O   UNK A   0     -10.082  17.232  68.895  1.00  0.00    -0.308 OA 
HETATM    5  C   UNK A   0     -12.349  14.495  65.213  1.00  0.00    -0.300 C  
HETATM    6  C   UNK A   0     -11.750  14.472  70.025  1.00  0.00    -0.301 C  
HETATM    7  N   UNK A   0     -12.600  13.911  66.542  1.00  0.00    -0.463 NA 
HETATM    8  H   UNK A   0     -13.177  13.075  66.633  1.00  0.00     0.000 HD 
HETATM    9  H2  UNK A   0     -11.622  14.027  72.029  1.00  0.00     0.000 HD 
HETATM   10  C   UNK A   0     -12.048  14.506  67.674  1.00  0.00    -0.231 C  
HETATM   11  H   UNK A   0     -10.541  15.791  70.950  1.00  0.00     0.000 HD 
HETATM   12  C   UNK A   0     -11.201  15.562  67.569  1.00  0.00    -0.272 C  
HETATM   13  H1  UNK A   0     -12.657  12.946  71.102  1.00  0.00     0.000 HD 
HETATM   14  C   UNK A   0     -10.712  16.177  68.892  1.00  0.00    -0.280 C  
HETATM   15  N   UNK A   0     -12.338  14.000  68.906  1.00  0.00    -0.508 NA 
HETATM   16  N   UNK A   0     -12.036  13.754  71.137  1.00  0.00    -0.458 NA 
HETATM   17  N   UNK A   0     -10.965  15.494  70.070  1.00  0.00    -0.292 N  
ENDROOT
BRANCH   3  18
HETATM   18  C   UNK A   0      -9.828  14.036  65.104  1.00  0.00    -0.103 C  
BRANCH  18  19
HETATM   19  N   UNK A   0     -10.271  12.828  64.381  1.00  0.00    -0.519 NA 
HETATM   20  H   UNK A   0     -10.779  12.891  63.499  1.00  0.00     0.000 HD 
BRANCH  19  21
HETATM   21  C   UNK A   0      -9.962  11.590  64.964  1.00  0.00    -0.263 A  
HETATM   22  C   UNK A   0      -8.989   9.374  64.678  1.00  0.00    -0.233 A  
HETATM   23  C   UNK A   0      -9.233   9.090  66.022  1.00  0.00    -0.284 A  
HETATM   24  C   UNK A   0     -10.318  11.241  66.270  1.00  0.00    -0.294 A  
HETATM   25  C   UNK A   0      -9.365  10.615  64.155  1.00  0.00    -0.297 A  
HETATM   26  C   UNK A   0      -9.945  10.005  66.804  1.00  0.00    -0.267 A  
BRANCH  23  27
HETATM   27  C   UNK A   0      -8.748   7.811  66.601  1.00  0.00    -0.140 C  
ATOM     28  H   GLU A   1     -10.550   7.577  67.624  1.00  0.00     0.000 HD 
ATOM     29  N   GLU A   1      -9.623   7.181  67.472  1.00  0.00    -0.129 N  
HETATM   30  O   UNK A   0      -7.659   7.351  66.298  1.00  0.00    -0.084 OA 
BRANCH  29  31
ATOM     31  CA  GLU A   1      -9.238   5.943  68.184  1.00  0.00    -0.116 C  
ATOM     32  C   GLU A   1      -9.803   4.709  67.442  1.00  0.00    -0.165 C  
ATOM     33  O   GLU A   1     -10.588   5.015  66.383  1.00  0.00    -0.300 OA 
ATOM     34  OXT GLU A   1      -9.616   3.550  67.789  1.00  0.00    -0.195 OA 
BRANCH  31  35
ATOM     35  CB  GLU A   1      -9.743   5.998  69.638  1.00  0.00    -0.188 C  
BRANCH  35  36
ATOM     36  CG  GLU A   1     -11.255   6.222  69.756  1.00  0.00    -0.499 C  
ATOM     37  CD  GLU A   1     -11.645   6.913  71.038  1.00  0.00    -0.328 C  
ATOM     38  OE2 GLU A   1     -10.873   7.246  71.922  1.00  0.00    -0.222 OA 
ATOM     39  OE1 GLU A   1     -12.981   7.140  71.105  1.00  0.00    -0.366 OA 
ENDBRANCH  35  36
ENDBRANCH  31  35
ENDBRANCH  29  31
ENDBRANCH  23  27
ENDBRANCH  19  21
ENDBRANCH  18  19
ENDBRANCH   3  18
TORSDOF 7
ENDMDL
MODEL       46
REMARK 921   NORMALIZED FREE ENERGY PREDICTED BY IDOCK:   -6.73 KCAL/MOL
REMARK 922        TOTAL FREE ENERGY PREDICTED BY IDOCK:  -10.72 KCAL/MOL
REMARK 923 INTER-LIGAND FREE ENERGY PREDICTED BY IDOCK:   -9.56 KCAL/MOL
REMARK 924 INTRA-LIGAND FREE ENERGY PREDICTED BY IDOCK:   -1.16 KCAL/MOL
REMARK 927      BINDING AFFINITY PREDICTED BY RF-SCORE:    0.00 PKD
ROOT
HETATM    1  C   UNK A   0      -9.169   5.928  70.576  1.00  0.00    -0.152 C  
HETATM    2  N   UNK A   0      -9.716   7.273  70.479  1.00  0.00    -0.176 NA 
HETATM    3  C   UNK A   0      -9.122   8.202  69.475  1.00  0.00    -0.151 C  
HETATM    4  O   UNK A   0     -11.488   5.590  72.108  1.00  0.00    -0.213 OA 
HETATM    5  C   UNK A   0      -9.050   9.617  70.103  1.00  0.00    -0.240 C  
HETATM    6  C   UNK A   0     -13.209   8.531  72.347  1.00  0.00    -0.282 C  
HETATM    7  N   UNK A   0     -10.343  10.014  70.687  1.00  0.00    -0.389 NA 
HETATM    8  H   UNK A   0     -10.635  10.991  70.668  1.00  0.00     0.000 HD 
HETATM    9  H2  UNK A   0     -15.110   8.470  73.130  1.00  0.00     0.000 HD 
HETATM   10  C   UNK A   0     -11.164   9.050  71.266  1.00  0.00    -0.315 C  
HETATM   11  H   UNK A   0     -13.720   6.630  72.771  1.00  0.00     0.000 HD 
HETATM   12  C   UNK A   0     -10.841   7.732  71.219  1.00  0.00    -0.231 C  
HETATM   13  H1  UNK A   0     -14.538  10.083  72.718  1.00  0.00     0.000 HD 
HETATM   14  C   UNK A   0     -11.791   6.771  71.956  1.00  0.00    -0.314 C  
HETATM   15  N   UNK A   0     -12.329   9.432  71.863  1.00  0.00    -0.375 NA 
HETATM   16  N   UNK A   0     -14.376   9.077  72.764  1.00  0.00    -1.030 NA 
HETATM   17  N   UNK A   0     -13.005   7.259  72.405  1.00  0.00    -0.455 N  
ENDROOT
BRANCH   3  18
HETATM   18  C   UNK A   0      -9.962   8.200  68.170  1.00  0.00    -0.186 C  
BRANCH  18  19
HETATM   19  N   UNK A   0      -9.243   8.856  67.060  1.00  0.00    -0.133 NA 
HETATM   20  H   UNK A   0      -8.568   8.349  66.488  1.00  0.00     0.000 HD 
BRANCH  19  21
HETATM   21  C   UNK A   0      -9.530  10.210  66.829  1.00  0.00    -0.168 A  
HETATM   22  C   UNK A   0      -8.662  12.461  66.488  1.00  0.00    -0.059 A  
HETATM   23  C   UNK A   0      -9.961  12.937  66.307  1.00  0.00    -0.271 A  
HETATM   24  C   UNK A   0     -10.828  10.726  66.779  1.00  0.00    -0.256 A  
HETATM   25  C   UNK A   0      -8.455  11.105  66.759  1.00  0.00    -0.153 A  
HETATM   26  C   UNK A   0     -11.047  12.078  66.505  1.00  0.00    -0.362 A  
BRANCH  23  27
HETATM   27  C   UNK A   0     -10.175  14.356  65.925  1.00  0.00    -0.325 C  
ATOM     28  H   GLU A   1      -8.424  14.901  66.918  1.00  0.00     0.000 HD 
ATOM     29  N   GLU A   1      -9.228  15.252  66.398  1.00  0.00    -0.287 N  
HETATM   30  O   UNK A   0     -11.115  14.688  65.221  1.00  0.00    -0.324 OA 
BRANCH  29  31
ATOM     31  CA  GLU A   1      -9.361  16.706  66.165  1.00  0.00    -0.284 C  
ATOM     32  C   GLU A   1      -7.974  17.385  66.256  1.00  0.00    -0.279 C  
ATOM     33  O   GLU A   1      -6.975  16.547  66.616  1.00  0.00    -0.216 OA 
ATOM     34  OXT GLU A   1      -7.778  18.579  66.075  1.00  0.00    -0.396 OA 
BRANCH  31  35
ATOM     35  CB  GLU A   1     -10.346  17.311  67.181  1.00  0.00    -0.321 C  
BRANCH  35  36
ATOM     36  CG  GLU A   1     -10.050  16.918  68.634  1.00  0.00    -0.291 C  
ATOM     37  CD  GLU A   1     -11.084  15.982  69.207  1.00  0.00    -0.331 C  
ATOM     38  OE2 GLU A   1     -12.077  15.582  68.621  1.00  0.00    -0.271 OA 
ATOM     39  OE1 GLU A   1     -10.783  15.611  70.477  1.00  0.00    -0.320 OA 
ENDBRANCH  35  36
ENDBRANCH  31  35
ENDBRANCH  29  31
ENDBRANCH  23  27
ENDBRANCH  19  21
ENDBRANCH  18  19
ENDBRANCH   3  18
TORSDOF 7
ENDMDL
MODEL       47
REMARK 921   NORMALIZED FREE ENERGY PREDICTED BY IDOCK:   -6.69 KCAL/MOL
REMARK 922        TOTAL FREE ENERGY PREDICTED BY IDOCK:  -10.65 KCAL/MOL
REMARK 923 INTER-LIGAND FREE ENERGY PREDICTED BY IDOCK:   -9.63 KCAL/MOL
REMARK 924 INTRA-LIGAND FREE ENERGY PREDICTED BY IDOCK:   -1.02 KCAL/MOL
REMARK 927      BINDING AFFINITY PREDICTED BY RF-SCORE:    0.00 PKD
ROOT
HETATM    1  C   UNK A   0      -8.051   4.551  70.032  1.00  0.00    -0.067 C  
HETATM    2  N   UNK A   0      -9.041   5.556  69.674  1.00  0.00    -0.126 NA 
HETATM    3  C   UNK A   0      -9.969   6.037  70.739  1.00  0.00    -0.191 C  
HETATM    4  O   UNK A   0      -7.060   5.299  67.522  1.00  0.00    -0.064 OA 
HETATM    5  C   UNK A   0     -11.374   6.223  70.113  1.00  0.00    -0.406 C  
HETATM    6  C   UNK A   0      -9.087   7.640  66.078  1.00  0.00    -0.105 C  
HETATM    7  N   UNK A   0     -11.313   7.024  68.878  1.00  0.00    -0.497 NA 
HETATM    8  H   UNK A   0     -12.082   7.649  68.634  1.00  0.00     0.000 HD 
HETATM    9  H2  UNK A   0      -8.400   8.595  64.392  1.00  0.00     0.000 HD 
HETATM   10  C   UNK A   0     -10.201   6.925  68.045  1.00  0.00    -0.176 C  
HETATM   11  H   UNK A   0      -7.224   7.013  65.640  1.00  0.00     0.000 HD 
HETATM   12  C   UNK A   0      -9.126   6.174  68.396  1.00  0.00    -0.113 C  
HETATM   13  H1  UNK A   0     -10.028   9.053  64.883  1.00  0.00     0.000 HD 
HETATM   14  C   UNK A   0      -7.989   6.086  67.362  1.00  0.00    -0.102 C  
HETATM   15  N   UNK A   0     -10.179   7.619  66.871  1.00  0.00    -0.292 NA 
HETATM   16  N   UNK A   0      -9.185   8.499  65.036  1.00  0.00    -0.395 NA 
HETATM   17  N   UNK A   0      -8.022   6.940  66.272  1.00  0.00    -0.104 N  
ENDROOT
BRANCH   3  18
HETATM   18  C   UNK A   0      -9.442   7.359  71.360  1.00  0.00    -0.152 C  
BRANCH  18  19
HETATM   19  N   UNK A   0     -10.548   8.206  71.849  1.00  0.00    -0.242 NA 
HETATM   20  H   UNK A   0     -11.062   7.974  72.698  1.00  0.00     0.000 HD 
BRANCH  19  21
HETATM   21  C   UNK A   0     -10.859   9.345  71.091  1.00  0.00    -0.357 A  
HETATM   22  C   UNK A   0     -12.434  11.152  70.657  1.00  0.00    -0.448 A  
HETATM   23  C   UNK A   0     -11.574  11.673  69.689  1.00  0.00    -0.401 A  
HETATM   24  C   UNK A   0     -10.073   9.803  70.029  1.00  0.00    -0.301 A  
HETATM   25  C   UNK A   0     -12.078   9.987  71.342  1.00  0.00    -0.498 A  
HETATM   26  C   UNK A   0     -10.418  10.968  69.339  1.00  0.00    -0.177 A  
BRANCH  23  27
HETATM   27  C   UNK A   0     -11.908  12.961  69.029  1.00  0.00    -0.306 C  
ATOM     28  H   GLU A   1     -11.459  12.138  67.167  1.00  0.00     0.000 HD 
ATOM     29  N   GLU A   1     -11.737  12.990  67.654  1.00  0.00    -0.354 N  
HETATM   30  O   UNK A   0     -12.325  13.912  69.671  1.00  0.00    -0.328 OA 
BRANCH  29  31
ATOM     31  CA  GLU A   1     -11.952  14.231  66.879  1.00  0.00    -0.438 C  
ATOM     32  C   GLU A   1     -12.478  13.886  65.466  1.00  0.00    -0.511 C  
ATOM     33  O   GLU A   1     -12.538  12.559  65.210  1.00  0.00    -0.645 OA 
ATOM     34  OXT GLU A   1     -12.773  14.718  64.618  1.00  0.00    -0.523 OA 
BRANCH  31  35
ATOM     35  CB  GLU A   1     -10.641  15.034  66.804  1.00  0.00    -0.301 C  
BRANCH  35  36
ATOM     36  CG  GLU A   1     -10.757  16.454  67.372  1.00  0.00    -0.278 C  
ATOM     37  CD  GLU A   1      -9.498  16.910  68.067  1.00  0.00    -0.243 C  
ATOM     38  OE2 GLU A   1      -8.488  16.240  68.208  1.00  0.00    -0.176 OA 
ATOM     39  OE1 GLU A   1      -9.605  18.183  68.524  1.00  0.00    -0.312 OA 
ENDBRANCH  35  36
ENDBRANCH  31  35
ENDBRANCH  29  31
ENDBRANCH  23  27
ENDBRANCH  19  21
ENDBRANCH  18  19
ENDBRANCH   3  18
TORSDOF 7
ENDMDL
MODEL       48
REMARK 921   NORMALIZED FREE ENERGY PREDICTED BY IDOCK:   -6.68 KCAL/MOL
REMARK 922        TOTAL FREE ENERGY PREDICTED BY IDOCK:  -10.65 KCAL/MOL
REMARK 923 INTER-LIGAND FREE ENERGY PREDICTED BY IDOCK:   -8.97 KCAL/MOL
REMARK 924 INTRA-LIGAND FREE ENERGY PREDICTED BY IDOCK:   -1.68 KCAL/MOL
REMARK 927      BINDING AFFINITY PREDICTED BY RF-SCORE:    0.00 PKD
ROOT
HETATM    1  C   UNK A   0     -11.660  15.833  68.454  1.00  0.00    -0.338 C  
HETATM    2  N   UNK A   0     -11.676  14.558  67.752  1.00  0.00    -0.367 NA 
HETATM    3  C   UNK A   0     -11.374  14.558  66.292  1.00  0.00    -0.352 C  
HETATM    4  O   UNK A   0     -11.730  14.100  70.652  1.00  0.00    -0.277 OA 
HETATM    5  C   UNK A   0     -12.311  13.536  65.600  1.00  0.00    -0.476 C  
HETATM    6  C   UNK A   0     -11.889  10.849  69.614  1.00  0.00    -0.344 C  
HETATM    7  N   UNK A   0     -12.282  12.230  66.282  1.00  0.00    -0.557 NA 
HETATM    8  H   UNK A   0     -12.387  11.369  65.744  1.00  0.00     0.000 HD 
HETATM    9  H2  UNK A   0     -11.610   9.377  71.023  1.00  0.00     0.000 HD 
HETATM   10  C   UNK A   0     -12.111  12.176  67.663  1.00  0.00     0.087 C  
HETATM   11  H   UNK A   0     -11.487  11.675  71.406  1.00  0.00     0.000 HD 
HETATM   12  C   UNK A   0     -11.875  13.301  68.386  1.00  0.00    -0.360 C  
HETATM   13  H1  UNK A   0     -11.975   8.784  69.406  1.00  0.00     0.000 HD 
HETATM   14  C   UNK A   0     -11.774  13.121  69.911  1.00  0.00    -0.257 C  
HETATM   15  N   UNK A   0     -12.151  10.969  68.296  1.00  0.00    -0.788 NA 
HETATM   16  N   UNK A   0     -11.821   9.566  70.043  1.00  0.00    -0.457 NA 
HETATM   17  N   UNK A   0     -11.695  11.836  70.420  1.00  0.00    -0.519 N  
ENDROOT
BRANCH   3  18
HETATM   18  C   UNK A   0      -9.879  14.215  66.047  1.00  0.00    -0.309 C  
BRANCH  18  19
HETATM   19  N   UNK A   0      -9.725  13.145  65.042  1.00  0.00    -0.534 NA 
HETATM   20  H   UNK A   0      -9.893  13.316  64.051  1.00  0.00     0.000 HD 
BRANCH  19  21
HETATM   21  C   UNK A   0      -9.338  11.882  65.513  1.00  0.00    -0.078 A  
HETATM   22  C   UNK A   0      -8.305  10.587  67.301  1.00  0.00    -0.122 A  
HETATM   23  C   UNK A   0      -8.567   9.408  66.603  1.00  0.00    -0.138 A  
HETATM   24  C   UNK A   0      -9.473  10.706  64.769  1.00  0.00    -0.306 A  
HETATM   25  C   UNK A   0      -8.680  11.815  66.748  1.00  0.00    -0.192 A  
HETATM   26  C   UNK A   0      -9.104   9.473  65.313  1.00  0.00    -0.276 A  
BRANCH  23  27
HETATM   27  C   UNK A   0      -8.256   8.099  67.231  1.00  0.00    -0.121 C  
ATOM     28  H   GLU A   1      -9.877   8.320  68.524  1.00  0.00     0.000 HD 
ATOM     29  N   GLU A   1      -9.083   7.728  68.279  1.00  0.00    -0.131 N  
HETATM   30  O   UNK A   0      -7.342   7.401  66.821  1.00  0.00    -0.087 OA 
BRANCH  29  31
ATOM     31  CA  GLU A   1      -8.838   6.489  69.050  1.00  0.00    -0.130 C  
ATOM     32  C   GLU A   1     -10.183   5.816  69.409  1.00  0.00    -0.234 C  
ATOM     33  O   GLU A   1     -11.272   6.529  69.038  1.00  0.00    -0.312 OA 
ATOM     34  OXT GLU A   1     -10.285   4.759  70.018  1.00  0.00    -0.251 OA 
BRANCH  31  35
ATOM     35  CB  GLU A   1      -8.022   6.813  70.315  1.00  0.00    -0.115 C  
BRANCH  35  36
ATOM     36  CG  GLU A   1      -8.797   7.633  71.354  1.00  0.00    -0.141 C  
ATOM     37  CD  GLU A   1      -8.532   7.183  72.769  1.00  0.00    -0.107 C  
ATOM     38  OE2 GLU A   1      -7.809   6.254  73.089  1.00  0.00    -0.105 OA 
ATOM     39  OE1 GLU A   1      -9.193   7.946  73.675  1.00  0.00    -0.274 OA 
ENDBRANCH  35  36
ENDBRANCH  31  35
ENDBRANCH  29  31
ENDBRANCH  23  27
ENDBRANCH  19  21
ENDBRANCH  18  19
ENDBRANCH   3  18
TORSDOF 7
ENDMDL
MODEL       49
REMARK 921   NORMALIZED FREE ENERGY PREDICTED BY IDOCK:   -6.67 KCAL/MOL
REMARK 922        TOTAL FREE ENERGY PREDICTED BY IDOCK:  -10.63 KCAL/MOL
REMARK 923 INTER-LIGAND FREE ENERGY PREDICTED BY IDOCK:   -9.22 KCAL/MOL
REMARK 924 INTRA-LIGAND FREE ENERGY PREDICTED BY IDOCK:   -1.41 KCAL/MOL
REMARK 927      BINDING AFFINITY PREDICTED BY RF-SCORE:    0.00 PKD
ROOT
HETATM    1  C   UNK A   0      -8.518   8.971  64.296  1.00  0.00    -0.170 C  
HETATM    2  N   UNK A   0      -9.172   9.921  65.184  1.00  0.00    -0.214 NA 
HETATM    3  C   UNK A   0      -8.744   9.956  66.612  1.00  0.00    -0.128 C  
HETATM    4  O   UNK A   0      -9.843  10.539  62.393  1.00  0.00    -0.154 OA 
HETATM    5  C   UNK A   0     -10.001  10.165  67.493  1.00  0.00    -0.191 C  
HETATM    6  C   UNK A   0     -11.702  12.967  63.919  1.00  0.00    -0.460 C  
HETATM    7  N   UNK A   0     -10.811  11.301  67.017  1.00  0.00    -0.267 NA 
HETATM    8  H   UNK A   0     -11.320  11.881  67.684  1.00  0.00     0.000 HD 
HETATM    9  H2  UNK A   0     -12.495  14.452  62.739  1.00  0.00     0.000 HD 
HETATM   10  C   UNK A   0     -10.877  11.578  65.654  1.00  0.00    -0.252 C  
HETATM   11  H   UNK A   0     -11.128  12.709  62.006  1.00  0.00     0.000 HD 
HETATM   12  C   UNK A   0     -10.133  10.879  64.758  1.00  0.00    -0.321 C  
HETATM   13  H1  UNK A   0     -12.925  14.560  64.443  1.00  0.00     0.000 HD 
HETATM   14  C   UNK A   0     -10.346  11.231  63.275  1.00  0.00    -0.347 C  
HETATM   15  N   UNK A   0     -11.679  12.589  65.214  1.00  0.00    -0.368 NA 
HETATM   16  N   UNK A   0     -12.434  14.082  63.688  1.00  0.00    -1.042 NA 
HETATM   17  N   UNK A   0     -11.080  12.362  62.965  1.00  0.00    -0.655 N  
ENDROOT
BRANCH   3  18
HETATM   18  C   UNK A   0      -7.698  11.081  66.836  1.00  0.00    -0.140 C  
BRANCH  18  19
HETATM   19  N   UNK A   0      -7.771  11.624  68.207  1.00  0.00    -0.121 NA 
HETATM   20  H   UNK A   0      -7.942  11.020  69.011  1.00  0.00     0.000 HD 
BRANCH  19  21
HETATM   21  C   UNK A   0      -7.595  13.008  68.353  1.00  0.00    -0.133 A  
HETATM   22  C   UNK A   0      -8.182  15.243  67.578  1.00  0.00    -0.191 A  
HETATM   23  C   UNK A   0      -7.382  15.801  68.575  1.00  0.00    -0.124 A  
HETATM   24  C   UNK A   0      -6.696  13.581  69.257  1.00  0.00    -0.080 A  
HETATM   25  C   UNK A   0      -8.275  13.852  67.465  1.00  0.00    -0.196 A  
HETATM   26  C   UNK A   0      -6.597  14.969  69.381  1.00  0.00    -0.143 A  
BRANCH  23  27
HETATM   27  C   UNK A   0      -7.358  17.275  68.756  1.00  0.00    -0.250 C  
ATOM     28  H   GLU A   1      -8.697  17.504  67.174  1.00  0.00     0.000 HD 
ATOM     29  N   GLU A   1      -8.124  18.000  67.857  1.00  0.00    -0.238 N  
HETATM   30  O   UNK A   0      -6.719  17.793  69.658  1.00  0.00    -0.164 OA 
BRANCH  29  31
ATOM     31  CA  GLU A   1      -8.128  19.479  67.868  1.00  0.00    -0.305 C  
ATOM     32  C   GLU A   1      -9.475  20.007  67.320  1.00  0.00    -0.381 C  
ATOM     33  O   GLU A   1     -10.304  19.037  66.869  1.00  0.00    -0.356 OA 
ATOM     34  OXT GLU A   1      -9.771  21.192  67.242  1.00  0.00    -0.336 OA 
BRANCH  31  35
ATOM     35  CB  GLU A   1      -6.943  20.012  67.042  1.00  0.00    -0.251 C  
BRANCH  35  36
ATOM     36  CG  GLU A   1      -6.549  19.100  65.873  1.00  0.00    -0.267 C  
ATOM     37  CD  GLU A   1      -6.175  19.871  64.632  1.00  0.00    -0.270 C  
ATOM     38  OE2 GLU A   1      -6.200  21.086  64.522  1.00  0.00    -0.285 OA 
ATOM     39  OE1 GLU A   1      -5.789  19.050  63.623  1.00  0.00    -0.422 OA 
ENDBRANCH  35  36
ENDBRANCH  31  35
ENDBRANCH  29  31
ENDBRANCH  23  27
ENDBRANCH  19  21
ENDBRANCH  18  19
ENDBRANCH   3  18
TORSDOF 7
ENDMDL
MODEL       50
REMARK 921   NORMALIZED FREE ENERGY PREDICTED BY IDOCK:   -6.66 KCAL/MOL
REMARK 922        TOTAL FREE ENERGY PREDICTED BY IDOCK:  -10.61 KCAL/MOL
REMARK 923 INTER-LIGAND FREE ENERGY PREDICTED BY IDOCK:   -9.27 KCAL/MOL
REMARK 924 INTRA-LIGAND FREE ENERGY PREDICTED BY IDOCK:   -1.34 KCAL/MOL
REMARK 927      BINDING AFFINITY PREDICTED BY RF-SCORE:    0.00 PKD
ROOT
HETATM    1  C   UNK A   0     -10.341  15.169  69.247  1.00  0.00    -0.257 C  
HETATM    2  N   UNK A   0     -10.006  15.687  67.929  1.00  0.00    -0.222 NA 
HETATM    3  C   UNK A   0      -8.769  16.508  67.792  1.00  0.00    -0.196 C  
HETATM    4  O   UNK A   0     -12.132  13.674  67.698  1.00  0.00    -0.355 OA 
HETATM    5  C   UNK A   0      -9.059  17.667  66.805  1.00  0.00    -0.260 C  
HETATM    6  C   UNK A   0     -11.889  14.546  64.404  1.00  0.00    -0.403 C  
HETATM    7  N   UNK A   0      -9.668  17.173  65.557  1.00  0.00    -0.450 NA 
HETATM    8  H   UNK A   0      -9.463  17.635  64.670  1.00  0.00     0.000 HD 
HETATM    9  H2  UNK A   0     -12.851  13.362  63.024  1.00  0.00     0.000 HD 
HETATM   10  C   UNK A   0     -10.523  16.075  65.593  1.00  0.00    -0.397 C  
HETATM   11  H   UNK A   0     -12.769  12.987  65.326  1.00  0.00     0.000 HD 
HETATM   12  C   UNK A   0     -10.735  15.388  66.745  1.00  0.00    -0.310 C  
HETATM   13  H1  UNK A   0     -12.040  14.770  62.345  1.00  0.00     0.000 HD 
HETATM   14  C   UNK A   0     -11.755  14.238  66.673  1.00  0.00    -0.400 C  
HETATM   15  N   UNK A   0     -11.134  15.663  64.446  1.00  0.00    -0.787 NA 
HETATM   16  N   UNK A   0     -12.289  14.204  63.156  1.00  0.00    -1.046 NA 
HETATM   17  N   UNK A   0     -12.204  13.831  65.429  1.00  0.00    -0.412 N  
ENDROOT
BRANCH   3  18
HETATM   18  C   UNK A   0      -7.586  15.628  67.303  1.00  0.00    -0.214 C  
BRANCH  18  19
HETATM   19  N   UNK A   0      -6.965  14.886  68.418  1.00  0.00    -0.103 NA 
HETATM   20  H   UNK A   0      -6.363  15.351  69.098  1.00  0.00     0.000 HD 
BRANCH  19  21
HETATM   21  C   UNK A   0      -7.240  13.513  68.500  1.00  0.00    -0.110 A  
HETATM   22  C   UNK A   0      -6.798  11.395  69.621  1.00  0.00    -0.068 A  
HETATM   23  C   UNK A   0      -7.743  10.766  68.811  1.00  0.00    -0.121 A  
HETATM   24  C   UNK A   0      -8.084  12.841  67.610  1.00  0.00    -0.175 A  
HETATM   25  C   UNK A   0      -6.543  12.760  69.453  1.00  0.00    -0.064 A  
HETATM   26  C   UNK A   0      -8.348  11.479  67.770  1.00  0.00    -0.136 A  
BRANCH  23  27
HETATM   27  C   UNK A   0      -8.083   9.340  69.052  1.00  0.00    -0.106 C  
ATOM     28  H   GLU A   1     -10.019   9.669  68.353  1.00  0.00     0.000 HD 
ATOM     29  N   GLU A   1      -9.389   8.979  68.762  1.00  0.00    -0.140 N  
HETATM   30  O   UNK A   0      -7.245   8.550  69.457  1.00  0.00    -0.058 OA 
BRANCH  29  31
ATOM     31  CA  GLU A   1      -9.887   7.613  69.032  1.00  0.00    -0.168 C  
ATOM     32  C   GLU A   1     -10.591   7.050  67.775  1.00  0.00    -0.233 C  
ATOM     33  O   GLU A   1     -10.685   7.933  66.755  1.00  0.00    -0.304 OA 
ATOM     34  OXT GLU A   1     -11.073   5.927  67.700  1.00  0.00    -0.243 OA 
BRANCH  31  35
ATOM     35  CB  GLU A   1     -10.839   7.633  70.242  1.00  0.00    -0.253 C  
BRANCH  35  36
ATOM     36  CG  GLU A   1     -11.524   8.987  70.462  1.00  0.00    -0.248 C  
ATOM     37  CD  GLU A   1     -11.940   9.205  71.896  1.00  0.00    -0.373 C  
ATOM     38  OE2 GLU A   1     -11.791   8.402  72.803  1.00  0.00    -0.371 OA 
ATOM     39  OE1 GLU A   1     -12.506  10.425  72.080  1.00  0.00    -0.290 OA 
ENDBRANCH  35  36
ENDBRANCH  31  35
ENDBRANCH  29  31
ENDBRANCH  23  27
ENDBRANCH  19  21
ENDBRANCH  18  19
ENDBRANCH   3  18
TORSDOF 7
ENDMDL
MODEL       51
REMARK 921   NORMALIZED FREE ENERGY PREDICTED BY IDOCK:   -6.63 KCAL/MOL
REMARK 922        TOTAL FREE ENERGY PREDICTED BY IDOCK:  -10.57 KCAL/MOL
REMARK 923 INTER-LIGAND FREE ENERGY PREDICTED BY IDOCK:   -9.60 KCAL/MOL
REMARK 924 INTRA-LIGAND FREE ENERGY PREDICTED BY IDOCK:   -0.97 KCAL/MOL
REMARK 927      BINDING AFFINITY PREDICTED BY RF-SCORE:    0.00 PKD
ROOT
HETATM    1  C   UNK A   0     -10.534  16.747  69.613  1.00  0.00    -0.209 C  
HETATM    2  N   UNK A   0      -9.821  16.549  68.360  1.00  0.00    -0.229 NA 
HETATM    3  C   UNK A   0      -9.860  15.195  67.737  1.00  0.00    -0.223 C  
HETATM    4  O   UNK A   0     -10.006  19.418  68.960  1.00  0.00    -0.437 OA 
HETATM    5  C   UNK A   0      -8.461  14.891  67.141  1.00  0.00    -0.220 C  
HETATM    6  C   UNK A   0      -8.199  19.613  66.067  1.00  0.00    -0.295 C  
HETATM    7  N   UNK A   0      -7.985  15.997  66.292  1.00  0.00    -0.232 NA 
HETATM    8  H   UNK A   0      -7.412  15.802  65.471  1.00  0.00     0.000 HD 
HETATM    9  H2  UNK A   0      -7.975  21.463  65.198  1.00  0.00     0.000 HD 
HETATM   10  C   UNK A   0      -8.321  17.310  66.614  1.00  0.00    -0.257 C  
HETATM   11  H   UNK A   0      -9.208  20.999  67.124  1.00  0.00     0.000 HD 
HETATM   12  C   UNK A   0      -9.160  17.587  67.645  1.00  0.00    -0.243 C  
HETATM   13  H1  UNK A   0      -7.134  20.157  64.369  1.00  0.00     0.000 HD 
HETATM   14  C   UNK A   0      -9.399  19.077  67.948  1.00  0.00    -0.308 C  
HETATM   15  N   UNK A   0      -7.824  18.333  65.863  1.00  0.00    -0.519 NA 
HETATM   16  N   UNK A   0      -7.729  20.475  65.135  1.00  0.00    -0.345 NA 
HETATM   17  N   UNK A   0      -8.951  20.015  67.034  1.00  0.00    -0.335 N  
ENDROOT
BRANCH   3  18
HETATM   18  C   UNK A   0     -10.967  15.130  66.650  1.00  0.00    -0.318 C  
BRANCH  18  19
HETATM   19  N   UNK A   0     -12.137  14.357  67.113  1.00  0.00    -0.551 NA 
HETATM   20  H   UNK A   0     -13.088  14.706  66.992  1.00  0.00     0.000 HD 
BRANCH  19  21
HETATM   21  C   UNK A   0     -11.880  13.122  67.727  1.00  0.00    -0.348 A  
HETATM   22  C   UNK A   0     -11.259  10.783  67.448  1.00  0.00    -0.315 A  
HETATM   23  C   UNK A   0     -11.282  10.609  68.832  1.00  0.00    -0.333 A  
HETATM   24  C   UNK A   0     -12.029  12.897  69.099  1.00  0.00    -0.308 A  
HETATM   25  C   UNK A   0     -11.569  12.033  66.904  1.00  0.00    -0.389 A  
HETATM   26  C   UNK A   0     -11.718  11.653  69.654  1.00  0.00    -0.418 A  
BRANCH  23  27
HETATM   27  C   UNK A   0     -10.860   9.309  69.414  1.00  0.00    -0.169 C  
ATOM     28  H   GLU A   1     -12.144   9.602  71.031  1.00  0.00     0.000 HD 
ATOM     29  N   GLU A   1     -11.437   8.985  70.632  1.00  0.00    -0.263 N  
HETATM   30  O   UNK A   0     -10.075   8.579  68.832  1.00  0.00    -0.192 OA 
BRANCH  29  31
ATOM     31  CA  GLU A   1     -11.046   7.762  71.366  1.00  0.00    -0.238 C  
ATOM     32  C   GLU A   1     -12.303   6.926  71.704  1.00  0.00    -0.371 C  
ATOM     33  O   GLU A   1     -13.468   7.517  71.354  1.00  0.00    -0.359 OA 
ATOM     34  OXT GLU A   1     -12.279   5.847  72.282  1.00  0.00    -0.245 OA 
BRANCH  31  35
ATOM     35  CB  GLU A   1     -10.270   8.141  72.640  1.00  0.00    -0.388 C  
BRANCH  35  36
ATOM     36  CG  GLU A   1      -8.784   8.426  72.393  1.00  0.00    -0.280 C  
ATOM     37  CD  GLU A   1      -7.937   7.178  72.425  1.00  0.00    -0.096 C  
ATOM     38  OE2 GLU A   1      -8.350   6.051  72.649  1.00  0.00    -0.118 OA 
ATOM     39  OE1 GLU A   1      -6.633   7.444  72.162  1.00  0.00    -0.050 OA 
ENDBRANCH  35  36
ENDBRANCH  31  35
ENDBRANCH  29  31
ENDBRANCH  23  27
ENDBRANCH  19  21
ENDBRANCH  18  19
ENDBRANCH   3  18
TORSDOF 7
ENDMDL
MODEL       52
REMARK 921   NORMALIZED FREE ENERGY PREDICTED BY IDOCK:   -6.62 KCAL/MOL
REMARK 922        TOTAL FREE ENERGY PREDICTED BY IDOCK:  -10.56 KCAL/MOL
REMARK 923 INTER-LIGAND FREE ENERGY PREDICTED BY IDOCK:   -9.59 KCAL/MOL
REMARK 924 INTRA-LIGAND FREE ENERGY PREDICTED BY IDOCK:   -0.97 KCAL/MOL
REMARK 927      BINDING AFFINITY PREDICTED BY RF-SCORE:    0.00 PKD
ROOT
HETATM    1  C   UNK A   0     -12.414   6.344  71.823  1.00  0.00    -0.143 C  
HETATM    2  N   UNK A   0     -11.066   6.837  71.584  1.00  0.00    -0.239 NA 
HETATM    3  C   UNK A   0     -10.897   8.002  70.668  1.00  0.00    -0.234 C  
HETATM    4  O   UNK A   0     -11.056   4.965  73.847  1.00  0.00    -0.295 OA 
HETATM    5  C   UNK A   0      -9.626   7.769  69.812  1.00  0.00    -0.167 C  
HETATM    6  C   UNK A   0      -7.711   5.651  73.732  1.00  0.00    -0.101 C  
HETATM    7  N   UNK A   0      -8.468   7.415  70.652  1.00  0.00    -0.134 NA 
HETATM    8  H   UNK A   0      -7.531   7.716  70.385  1.00  0.00     0.000 HD 
HETATM    9  H2  UNK A   0      -6.549   5.033  75.313  1.00  0.00     0.000 HD 
HETATM   10  C   UNK A   0      -8.659   6.667  71.811  1.00  0.00    -0.126 C  
HETATM   11  H   UNK A   0      -8.862   4.780  75.136  1.00  0.00     0.000 HD 
HETATM   12  C   UNK A   0      -9.905   6.336  72.237  1.00  0.00    -0.161 C  
HETATM   13  H1  UNK A   0      -5.659   5.812  74.009  1.00  0.00     0.000 HD 
HETATM   14  C   UNK A   0      -9.984   5.449  73.491  1.00  0.00    -0.175 C  
HETATM   15  N   UNK A   0      -7.577   6.286  72.549  1.00  0.00    -0.100 NA 
HETATM   16  N   UNK A   0      -6.544   5.489  74.399  1.00  0.00    -0.071 NA 
HETATM   17  N   UNK A   0      -8.829   5.243  74.227  1.00  0.00    -0.118 N  
ENDROOT
BRANCH   3  18
HETATM   18  C   UNK A   0     -10.803   9.322  71.480  1.00  0.00    -0.372 C  
BRANCH  18  19
HETATM   19  N   UNK A   0     -12.019  10.144  71.322  1.00  0.00    -0.377 NA 
HETATM   20  H   UNK A   0     -12.903   9.876  71.754  1.00  0.00     0.000 HD 
BRANCH  19  21
HETATM   21  C   UNK A   0     -11.902  11.310  70.552  1.00  0.00    -0.324 A  
HETATM   22  C   UNK A   0     -12.424  13.680  70.325  1.00  0.00    -0.335 A  
HETATM   23  C   UNK A   0     -11.693  13.730  69.137  1.00  0.00    -0.379 A  
HETATM   24  C   UNK A   0     -11.288  11.347  69.296  1.00  0.00    -0.355 A  
HETATM   25  C   UNK A   0     -12.534  12.470  71.017  1.00  0.00    -0.353 A  
HETATM   26  C   UNK A   0     -11.169  12.551  68.597  1.00  0.00    -0.319 A  
BRANCH  23  27
HETATM   27  C   UNK A   0     -11.496  15.032  68.452  1.00  0.00    -0.323 C  
ATOM     28  H   GLU A   1     -10.904  14.044  66.714  1.00  0.00     0.000 HD 
ATOM     29  N   GLU A   1     -11.030  14.958  67.149  1.00  0.00    -0.315 N  
HETATM   30  O   UNK A   0     -11.757  16.087  69.009  1.00  0.00    -0.370 OA 
BRANCH  29  31
ATOM     31  CA  GLU A   1     -10.710  16.178  66.376  1.00  0.00    -0.211 C  
ATOM     32  C   GLU A   1     -11.275  16.056  64.941  1.00  0.00    -0.312 C  
ATOM     33  O   GLU A   1     -11.841  14.857  64.672  1.00  0.00    -0.419 OA 
ATOM     34  OXT GLU A   1     -11.187  16.930  64.090  1.00  0.00    -1.176 OA 
BRANCH  31  35
ATOM     35  CB  GLU A   1      -9.187  16.402  66.359  1.00  0.00    -0.335 C  
BRANCH  35  36
ATOM     36  CG  GLU A   1      -8.692  17.348  67.460  1.00  0.00    -0.221 C  
ATOM     37  CD  GLU A   1      -8.618  18.784  67.005  1.00  0.00    -0.282 C  
ATOM     38  OE2 GLU A   1      -8.887  19.184  65.884  1.00  0.00    -0.450 OA 
ATOM     39  OE1 GLU A   1      -8.219  19.611  68.005  1.00  0.00    -0.302 OA 
ENDBRANCH  35  36
ENDBRANCH  31  35
ENDBRANCH  29  31
ENDBRANCH  23  27
ENDBRANCH  19  21
ENDBRANCH  18  19
ENDBRANCH   3  18
TORSDOF 7
ENDMDL
MODEL       53
REMARK 921   NORMALIZED FREE ENERGY PREDICTED BY IDOCK:   -6.60 KCAL/MOL
REMARK 922        TOTAL FREE ENERGY PREDICTED BY IDOCK:  -10.54 KCAL/MOL
REMARK 923 INTER-LIGAND FREE ENERGY PREDICTED BY IDOCK:   -9.52 KCAL/MOL
REMARK 924 INTRA-LIGAND FREE ENERGY PREDICTED BY IDOCK:   -1.02 KCAL/MOL
REMARK 927      BINDING AFFINITY PREDICTED BY RF-SCORE:    0.00 PKD
ROOT
HETATM    1  C   UNK A   0      -8.648   5.609  70.248  1.00  0.00    -0.131 C  
HETATM    2  N   UNK A   0      -9.114   6.457  71.334  1.00  0.00    -0.145 NA 
HETATM    3  C   UNK A   0      -8.093   7.077  72.227  1.00  0.00    -0.095 C  
HETATM    4  O   UNK A   0     -11.323   5.911  69.478  1.00  0.00    -0.361 OA 
HETATM    5  C   UNK A   0      -8.633   7.046  73.680  1.00  0.00    -0.138 C  
HETATM    6  C   UNK A   0     -13.028   7.787  71.769  1.00  0.00    -0.323 C  
HETATM    7  N   UNK A   0      -9.999   7.591  73.759  1.00  0.00    -0.363 NA 
HETATM    8  H   UNK A   0     -10.298   8.105  74.588  1.00  0.00     0.000 HD 
HETATM    9  H2  UNK A   0     -14.913   8.435  71.267  1.00  0.00     0.000 HD 
HETATM   10  C   UNK A   0     -10.881   7.402  72.698  1.00  0.00    -0.303 C  
HETATM   11  H   UNK A   0     -13.480   7.208  69.894  1.00  0.00     0.000 HD 
HETATM   12  C   UNK A   0     -10.476   6.805  71.547  1.00  0.00    -0.213 C  
HETATM   13  H1  UNK A   0     -14.396   8.874  72.891  1.00  0.00     0.000 HD 
HETATM   14  C   UNK A   0     -11.559   6.590  70.475  1.00  0.00    -0.393 C  
HETATM   15  N   UNK A   0     -12.164   7.852  72.804  1.00  0.00    -0.606 NA 
HETATM   16  N   UNK A   0     -14.204   8.417  72.000  1.00  0.00    -0.465 NA 
HETATM   17  N   UNK A   0     -12.786   7.209  70.642  1.00  0.00    -0.597 N  
ENDROOT
BRANCH   3  18
HETATM   18  C   UNK A   0      -7.778   8.526  71.768  1.00  0.00    -0.117 C  
BRANCH  18  19
HETATM   19  N   UNK A   0      -7.568   8.599  70.308  1.00  0.00    -0.069 NA 
HETATM   20  H   UNK A   0      -6.833   8.061  69.849  1.00  0.00     0.000 HD 
BRANCH  19  21
HETATM   21  C   UNK A   0      -8.423   9.442  69.584  1.00  0.00    -0.164 A  
HETATM   22  C   UNK A   0     -10.572  10.587  69.483  1.00  0.00    -0.278 A  
HETATM   23  C   UNK A   0     -10.208  11.167  68.267  1.00  0.00    -0.197 A  
HETATM   24  C   UNK A   0      -8.130   9.924  68.304  1.00  0.00    -0.104 A  
HETATM   25  C   UNK A   0      -9.684   9.721  70.127  1.00  0.00    -0.299 A  
HETATM   26  C   UNK A   0      -9.008  10.793  67.652  1.00  0.00    -0.140 A  
BRANCH  23  27
HETATM   27  C   UNK A   0     -11.110  12.160  67.630  1.00  0.00    -0.268 C  
ATOM     28  H   GLU A   1      -9.528  13.508  67.462  1.00  0.00     0.000 HD 
ATOM     29  N   GLU A   1     -10.528  13.376  67.308  1.00  0.00    -0.247 N  
HETATM   30  O   UNK A   0     -12.278  11.895  67.392  1.00  0.00    -0.502 OA 
BRANCH  29  31
ATOM     31  CA  GLU A   1     -11.327  14.486  66.745  1.00  0.00    -0.352 C  
ATOM     32  C   GLU A   1     -10.990  14.673  65.247  1.00  0.00    -0.367 C  
ATOM     33  O   GLU A   1      -9.996  13.869  64.803  1.00  0.00    -0.297 OA 
ATOM     34  OXT GLU A   1     -11.523  15.498  64.518  1.00  0.00    -0.408 OA 
BRANCH  31  35
ATOM     35  CB  GLU A   1     -11.061  15.777  67.541  1.00  0.00    -0.258 C  
BRANCH  35  36
ATOM     36  CG  GLU A   1     -11.701  15.783  68.935  1.00  0.00    -0.404 C  
ATOM     37  CD  GLU A   1     -10.696  15.574  70.039  1.00  0.00    -0.318 C  
ATOM     38  OE2 GLU A   1      -9.501  15.388  69.879  1.00  0.00    -0.245 OA 
ATOM     39  OE1 GLU A   1     -11.274  15.625  71.266  1.00  0.00    -0.350 OA 
ENDBRANCH  35  36
ENDBRANCH  31  35
ENDBRANCH  29  31
ENDBRANCH  23  27
ENDBRANCH  19  21
ENDBRANCH  18  19
ENDBRANCH   3  18
TORSDOF 7
ENDMDL
MODEL       54
REMARK 921   NORMALIZED FREE ENERGY PREDICTED BY IDOCK:   -6.59 KCAL/MOL
REMARK 922        TOTAL FREE ENERGY PREDICTED BY IDOCK:  -10.52 KCAL/MOL
REMARK 923 INTER-LIGAND FREE ENERGY PREDICTED BY IDOCK:   -9.76 KCAL/MOL
REMARK 924 INTRA-LIGAND FREE ENERGY PREDICTED BY IDOCK:   -0.76 KCAL/MOL
REMARK 927      BINDING AFFINITY PREDICTED BY RF-SCORE:    0.00 PKD
ROOT
HETATM    1  C   UNK A   0      -8.905   8.417  72.552  1.00  0.00    -0.225 C  
HETATM    2  N   UNK A   0     -10.009   8.082  71.666  1.00  0.00    -0.177 NA 
HETATM    3  C   UNK A   0     -11.367   7.932  72.264  1.00  0.00    -0.337 C  
HETATM    4  O   UNK A   0      -7.661   8.858  70.082  1.00  0.00    -0.061 OA 
HETATM    5  C   UNK A   0     -12.079   6.746  71.565  1.00  0.00    -0.363 C  
HETATM    6  C   UNK A   0      -9.790   8.116  67.515  1.00  0.00    -0.177 C  
HETATM    7  N   UNK A   0     -12.012   6.865  70.098  1.00  0.00    -0.637 NA 
HETATM    8  H   UNK A   0     -12.784   6.530  69.521  1.00  0.00     0.000 HD 
HETATM    9  H2  UNK A   0      -9.235   8.675  65.616  1.00  0.00     0.000 HD 
HETATM   10  C   UNK A   0     -10.889   7.436  69.502  1.00  0.00    -0.189 C  
HETATM   11  H   UNK A   0      -8.037   9.105  67.571  1.00  0.00     0.000 HD 
HETATM   12  C   UNK A   0      -9.894   7.974  70.252  1.00  0.00    -0.184 C  
HETATM   13  H1  UNK A   0     -10.757   7.794  65.706  1.00  0.00     0.000 HD 
HETATM   14  C   UNK A   0      -8.675   8.510  69.482  1.00  0.00    -0.136 C  
HETATM   15  N   UNK A   0     -10.804   7.483  68.142  1.00  0.00    -0.439 NA 
HETATM   16  N   UNK A   0      -9.945   8.198  66.173  1.00  0.00    -0.467 NA 
HETATM   17  N   UNK A   0      -8.764   8.627  68.105  1.00  0.00    -0.141 N  
ENDROOT
BRANCH   3  18
HETATM   18  C   UNK A   0     -12.174   9.250  72.112  1.00  0.00    -0.307 C  
BRANCH  18  19
HETATM   19  N   UNK A   0     -12.437   9.565  70.694  1.00  0.00    -0.496 NA 
HETATM   20  H   UNK A   0     -12.783   8.858  70.046  1.00  0.00     0.000 HD 
BRANCH  19  21
HETATM   21  C   UNK A   0     -12.189  10.882  70.279  1.00  0.00    -0.348 A  
HETATM   22  C   UNK A   0     -12.489  13.261  70.714  1.00  0.00    -0.403 A  
HETATM   23  C   UNK A   0     -11.713  13.566  69.595  1.00  0.00    -0.378 A  
HETATM   24  C   UNK A   0     -11.529  11.205  69.090  1.00  0.00    -0.366 A  
HETATM   25  C   UNK A   0     -12.732  11.924  71.042  1.00  0.00    -0.354 A  
HETATM   26  C   UNK A   0     -11.277  12.537  68.753  1.00  0.00    -0.318 A  
BRANCH  23  27
HETATM   27  C   UNK A   0     -11.376  14.982  69.301  1.00  0.00    -0.296 C  
ATOM     28  H   GLU A   1     -10.149  14.377  67.728  1.00  0.00     0.000 HD 
ATOM     29  N   GLU A   1     -10.479  15.180  68.264  1.00  0.00    -0.237 N  
HETATM   30  O   UNK A   0     -11.885  15.898  69.928  1.00  0.00    -0.336 OA 
BRANCH  29  31
ATOM     31  CA  GLU A   1      -9.991  16.532  67.917  1.00  0.00    -0.245 C  
ATOM     32  C   GLU A   1     -10.336  16.856  66.444  1.00  0.00    -0.300 C  
ATOM     33  O   GLU A   1     -10.909  15.830  65.775  1.00  0.00    -0.322 OA 
ATOM     34  OXT GLU A   1     -10.080  17.919  65.894  1.00  0.00    -0.533 OA 
BRANCH  31  35
ATOM     35  CB  GLU A   1      -8.474  16.620  68.165  1.00  0.00    -0.198 C  
BRANCH  35  36
ATOM     36  CG  GLU A   1      -7.649  15.681  67.277  1.00  0.00    -0.247 C  
ATOM     37  CD  GLU A   1      -7.138  14.473  68.022  1.00  0.00    -0.140 C  
ATOM     38  OE2 GLU A   1      -7.316  14.248  69.208  1.00  0.00    -0.118 OA 
ATOM     39  OE1 GLU A   1      -6.448  13.632  67.210  1.00  0.00    -0.279 OA 
ENDBRANCH  35  36
ENDBRANCH  31  35
ENDBRANCH  29  31
ENDBRANCH  23  27
ENDBRANCH  19  21
ENDBRANCH  18  19
ENDBRANCH   3  18
TORSDOF 7
ENDMDL
MODEL       55
REMARK 921   NORMALIZED FREE ENERGY PREDICTED BY IDOCK:   -6.57 KCAL/MOL
REMARK 922        TOTAL FREE ENERGY PREDICTED BY IDOCK:  -10.49 KCAL/MOL
REMARK 923 INTER-LIGAND FREE ENERGY PREDICTED BY IDOCK:   -9.24 KCAL/MOL
REMARK 924 INTRA-LIGAND FREE ENERGY PREDICTED BY IDOCK:   -1.26 KCAL/MOL
REMARK 927      BINDING AFFINITY PREDICTED BY RF-SCORE:    0.00 PKD
ROOT
HETATM    1  C   UNK A   0      -8.585   4.437  67.689  1.00  0.00    -0.103 C  
HETATM    2  N   UNK A   0      -8.705   5.805  68.170  1.00  0.00    -0.108 NA 
HETATM    3  C   UNK A   0      -8.455   6.913  67.203  1.00  0.00    -0.121 C  
HETATM    4  O   UNK A   0      -9.821   3.949  70.154  1.00  0.00    -0.200 OA 
HETATM    5  C   UNK A   0      -7.687   8.039  67.940  1.00  0.00    -0.114 C  
HETATM    6  C   UNK A   0     -10.289   6.871  71.862  1.00  0.00    -0.189 C  
HETATM    7  N   UNK A   0      -8.346   8.403  69.206  1.00  0.00    -0.120 NA 
HETATM    8  H   UNK A   0      -8.322   9.367  69.538  1.00  0.00     0.000 HD 
HETATM    9  H2  UNK A   0     -11.477   6.822  73.539  1.00  0.00     0.000 HD 
HETATM   10  C   UNK A   0      -9.003   7.424  69.949  1.00  0.00    -0.141 C  
HETATM   11  H   UNK A   0     -11.032   5.018  72.128  1.00  0.00     0.000 HD 
HETATM   12  C   UNK A   0      -9.131   6.156  69.481  1.00  0.00    -0.139 C  
HETATM   13  H1  UNK A   0     -10.760   8.393  73.194  1.00  0.00     0.000 HD 
HETATM   14  C   UNK A   0      -9.814   5.148  70.422  1.00  0.00    -0.218 C  
HETATM   15  N   UNK A   0      -9.555   7.753  71.152  1.00  0.00    -0.158 NA 
HETATM   16  N   UNK A   0     -10.887   7.411  72.950  1.00  0.00    -0.322 NA 
HETATM   17  N   UNK A   0     -10.450   5.630  71.554  1.00  0.00    -0.231 N  
ENDROOT
BRANCH   3  18
HETATM   18  C   UNK A   0      -9.796   7.429  66.613  1.00  0.00    -0.193 C  
BRANCH  18  19
HETATM   19  N   UNK A   0      -9.578   8.533  65.657  1.00  0.00    -0.444 NA 
HETATM   20  H   UNK A   0      -9.042   8.397  64.799  1.00  0.00     0.000 HD 
BRANCH  19  21
HETATM   21  C   UNK A   0     -10.140   9.776  65.982  1.00  0.00    -0.251 A  
HETATM   22  C   UNK A   0     -11.320  11.124  67.634  1.00  0.00    -0.356 A  
HETATM   23  C   UNK A   0     -11.251  12.229  66.785  1.00  0.00    -0.371 A  
HETATM   24  C   UNK A   0     -10.197  10.853  65.093  1.00  0.00    -0.360 A  
HETATM   25  C   UNK A   0     -10.776   9.904  67.223  1.00  0.00    -0.304 A  
HETATM   26  C   UNK A   0     -10.736  12.079  65.493  1.00  0.00    -0.318 A  
BRANCH  23  27
HETATM   27  C   UNK A   0     -11.742  13.549  67.257  1.00  0.00    -0.383 C  
ATOM     28  H   GLU A   1     -10.599  13.368  68.992  1.00  0.00     0.000 HD 
ATOM     29  N   GLU A   1     -11.280  13.948  68.501  1.00  0.00    -0.255 N  
HETATM   30  O   UNK A   0     -12.486  14.231  66.570  1.00  0.00    -0.428 OA 
BRANCH  29  31
ATOM     31  CA  GLU A   1     -11.752  15.200  69.131  1.00  0.00    -0.325 C  
ATOM     32  C   GLU A   1     -10.566  16.174  69.325  1.00  0.00    -0.280 C  
ATOM     33  O   GLU A   1      -9.365  15.655  68.977  1.00  0.00    -0.208 OA 
ATOM     34  OXT GLU A   1     -10.667  17.299  69.795  1.00  0.00    -0.102 OA 
BRANCH  31  35
ATOM     35  CB  GLU A   1     -12.438  14.884  70.473  1.00  0.00    -0.419 C  
BRANCH  35  36
ATOM     36  CG  GLU A   1     -12.414  13.396  70.840  1.00  0.00    -0.439 C  
ATOM     37  CD  GLU A   1     -13.299  13.070  72.018  1.00  0.00    -0.492 C  
ATOM     38  OE2 GLU A   1     -13.953  13.881  72.653  1.00  0.00    -0.684 OA 
ATOM     39  OE1 GLU A   1     -13.298  11.743  72.300  1.00  0.00    -0.455 OA 
ENDBRANCH  35  36
ENDBRANCH  31  35
ENDBRANCH  29  31
ENDBRANCH  23  27
ENDBRANCH  19  21
ENDBRANCH  18  19
ENDBRANCH   3  18
TORSDOF 7
ENDMDL
MODEL       56
REMARK 921   NORMALIZED FREE ENERGY PREDICTED BY IDOCK:   -6.56 KCAL/MOL
REMARK 922        TOTAL FREE ENERGY PREDICTED BY IDOCK:  -10.48 KCAL/MOL
REMARK 923 INTER-LIGAND FREE ENERGY PREDICTED BY IDOCK:   -9.94 KCAL/MOL
REMARK 924 INTRA-LIGAND FREE ENERGY PREDICTED BY IDOCK:   -0.54 KCAL/MOL
REMARK 927      BINDING AFFINITY PREDICTED BY RF-SCORE:    0.00 PKD
ROOT
HETATM    1  C   UNK A   0     -11.272  11.527  63.898  1.00  0.00    -0.355 C  
HETATM    2  N   UNK A   0     -10.973  11.384  65.315  1.00  0.00    -0.229 NA 
HETATM    3  C   UNK A   0      -9.955  10.371  65.717  1.00  0.00    -0.270 C  
HETATM    4  O   UNK A   0     -12.548  13.822  64.871  1.00  0.00    -0.580 OA 
HETATM    5  C   UNK A   0     -10.437   9.687  67.023  1.00  0.00    -0.232 C  
HETATM    6  C   UNK A   0     -12.278  13.996  68.273  1.00  0.00    -0.160 C  
HETATM    7  N   UNK A   0     -10.821  10.680  68.041  1.00  0.00    -0.239 NA 
HETATM    8  H   UNK A   0     -10.666  10.484  69.030  1.00  0.00     0.000 HD 
HETATM    9  H2  UNK A   0     -12.834  15.749  69.191  1.00  0.00     0.000 HD 
HETATM   10  C   UNK A   0     -11.397  11.886  67.648  1.00  0.00    -0.304 C  
HETATM   11  H   UNK A   0     -12.834  15.352  66.892  1.00  0.00     0.000 HD 
HETATM   12  C   UNK A   0     -11.525  12.207  66.335  1.00  0.00    -0.370 C  
HETATM   13  H1  UNK A   0     -12.328  14.473  70.293  1.00  0.00     0.000 HD 
HETATM   14  C   UNK A   0     -12.240  13.534  66.025  1.00  0.00    -0.445 C  
HETATM   15  N   UNK A   0     -11.810  12.772  68.598  1.00  0.00    -0.315 NA 
HETATM   16  N   UNK A   0     -12.496  14.798  69.341  1.00  0.00    -0.573 NA 
HETATM   17  N   UNK A   0     -12.490  14.408  67.070  1.00  0.00    -0.514 N  
ENDROOT
BRANCH   3  18
HETATM   18  C   UNK A   0      -8.567  11.041  65.905  1.00  0.00    -0.165 C  
BRANCH  18  19
HETATM   19  N   UNK A   0      -8.455  11.696  67.223  1.00  0.00    -0.150 NA 
HETATM   20  H   UNK A   0      -8.671  11.198  68.086  1.00  0.00     0.000 HD 
BRANCH  19  21
HETATM   21  C   UNK A   0      -8.039  13.036  67.234  1.00  0.00    -0.161 A  
HETATM   22  C   UNK A   0      -6.271  14.630  67.757  1.00  0.00    -0.154 A  
HETATM   23  C   UNK A   0      -7.056  15.668  67.256  1.00  0.00    -0.242 A  
HETATM   24  C   UNK A   0      -8.861  14.103  66.861  1.00  0.00    -0.223 A  
HETATM   25  C   UNK A   0      -6.770  13.324  67.755  1.00  0.00    -0.154 A  
HETATM   26  C   UNK A   0      -8.372  15.411  66.856  1.00  0.00    -0.290 A  
BRANCH  23  27
HETATM   27  C   UNK A   0      -6.491  17.039  67.170  1.00  0.00    -0.178 C  
ATOM     28  H   GLU A   1      -7.989  17.750  68.434  1.00  0.00     0.000 HD 
ATOM     29  N   GLU A   1      -7.184  18.016  67.866  1.00  0.00    -0.217 N  
HETATM   30  O   UNK A   0      -5.468  17.264  66.543  1.00  0.00    -0.173 OA 
BRANCH  29  31
ATOM     31  CA  GLU A   1      -6.782  19.438  67.802  1.00  0.00    -0.224 C  
ATOM     32  C   GLU A   1      -6.165  19.874  69.151  1.00  0.00    -0.309 C  
ATOM     33  O   GLU A   1      -6.209  18.920  70.110  1.00  0.00    -0.200 OA 
ATOM     34  OXT GLU A   1      -5.716  20.990  69.376  1.00  0.00    -0.365 OA 
BRANCH  31  35
ATOM     35  CB  GLU A   1      -7.998  20.310  67.437  1.00  0.00    -0.366 C  
BRANCH  35  36
ATOM     36  CG  GLU A   1      -8.795  19.783  66.238  1.00  0.00    -0.417 C  
ATOM     37  CD  GLU A   1     -10.072  19.091  66.645  1.00  0.00    -0.392 C  
ATOM     38  OE2 GLU A   1     -10.449  18.924  67.793  1.00  0.00    -0.393 OA 
ATOM     39  OE1 GLU A   1     -10.784  18.670  65.569  1.00  0.00    -0.577 OA 
ENDBRANCH  35  36
ENDBRANCH  31  35
ENDBRANCH  29  31
ENDBRANCH  23  27
ENDBRANCH  19  21
ENDBRANCH  18  19
ENDBRANCH   3  18
TORSDOF 7
ENDMDL
MODEL       57
REMARK 921   NORMALIZED FREE ENERGY PREDICTED BY IDOCK:   -6.55 KCAL/MOL
REMARK 922        TOTAL FREE ENERGY PREDICTED BY IDOCK:  -10.46 KCAL/MOL
REMARK 923 INTER-LIGAND FREE ENERGY PREDICTED BY IDOCK:   -9.22 KCAL/MOL
REMARK 924 INTRA-LIGAND FREE ENERGY PREDICTED BY IDOCK:   -1.23 KCAL/MOL
REMARK 927      BINDING AFFINITY PREDICTED BY RF-SCORE:    0.00 PKD
ROOT
HETATM    1  C   UNK A   0     -12.151  14.190  64.982  1.00  0.00    -0.421 C  
HETATM    2  N   UNK A   0     -11.717  14.505  66.335  1.00  0.00    -0.376 NA 
HETATM    3  C   UNK A   0     -11.773  13.423  67.359  1.00  0.00    -0.373 C  
HETATM    4  O   UNK A   0     -10.924  16.661  64.505  1.00  0.00    -0.885 OA 
HETATM    5  C   UNK A   0     -12.244  14.044  68.699  1.00  0.00    -0.183 C  
HETATM    6  C   UNK A   0      -9.756  18.004  67.421  1.00  0.00    -0.296 C  
HETATM    7  N   UNK A   0     -11.459  15.241  69.044  1.00  0.00    -0.303 NA 
HETATM    8  H   UNK A   0     -11.260  15.459  70.021  1.00  0.00     0.000 HD 
HETATM    9  H2  UNK A   0      -8.522  19.645  67.296  1.00  0.00     0.000 HD 
HETATM   10  C   UNK A   0     -10.990  16.075  68.032  1.00  0.00    -0.341 C  
HETATM   11  H   UNK A   0      -9.414  18.465  65.491  1.00  0.00     0.000 HD 
HETATM   12  C   UNK A   0     -11.160  15.755  66.723  1.00  0.00    -0.116 C  
HETATM   13  H1  UNK A   0      -8.904  19.138  68.938  1.00  0.00     0.000 HD 
HETATM   14  C   UNK A   0     -10.661  16.789  65.699  1.00  0.00    -0.246 C  
HETATM   15  N   UNK A   0     -10.320  17.216  68.360  1.00  0.00    -0.340 NA 
HETATM   16  N   UNK A   0      -9.002  19.007  67.932  1.00  0.00    -0.293 NA 
HETATM   17  N   UNK A   0      -9.879  17.839  66.149  1.00  0.00    -0.280 N  
ENDROOT
BRANCH   3  18
HETATM   18  C   UNK A   0     -10.385  12.742  67.505  1.00  0.00    -0.219 C  
BRANCH  18  19
HETATM   19  N   UNK A   0     -10.051  12.488  68.920  1.00  0.00    -0.428 NA 
HETATM   20  H   UNK A   0      -9.662  13.220  69.515  1.00  0.00     0.000 HD 
BRANCH  19  21
HETATM   21  C   UNK A   0     -10.291  11.196  69.409  1.00  0.00    -0.057 A  
HETATM   22  C   UNK A   0     -11.746   9.728  70.699  1.00  0.00    -0.377 A  
HETATM   23  C   UNK A   0     -10.923   8.643  70.399  1.00  0.00    -0.256 A  
HETATM   24  C   UNK A   0      -9.407  10.127  69.230  1.00  0.00    -0.227 A  
HETATM   25  C   UNK A   0     -11.420  10.998  70.213  1.00  0.00    -0.363 A  
HETATM   26  C   UNK A   0      -9.725   8.853  69.708  1.00  0.00    -0.180 A  
BRANCH  23  27
HETATM   27  C   UNK A   0     -11.319   7.279  70.834  1.00  0.00    -0.280 C  
ATOM     28  H   GLU A   1      -9.579   7.122  71.971  1.00  0.00     0.000 HD 
ATOM     29  N   GLU A   1     -10.417   6.629  71.660  1.00  0.00    -0.206 N  
HETATM   30  O   UNK A   0     -12.385   6.791  70.493  1.00  0.00    -0.326 OA 
BRANCH  29  31
ATOM     31  CA  GLU A   1     -10.644   5.236  72.102  1.00  0.00    -0.221 C  
ATOM     32  C   GLU A   1     -10.682   5.172  73.647  1.00  0.00    -0.293 C  
ATOM     33  O   GLU A   1     -10.412   6.350  74.254  1.00  0.00    -0.322 OA 
ATOM     34  OXT GLU A   1     -10.886   4.150  74.290  1.00  0.00    -0.229 OA 
BRANCH  31  35
ATOM     35  CB  GLU A   1      -9.544   4.321  71.533  1.00  0.00    -0.234 C  
BRANCH  35  36
ATOM     36  CG  GLU A   1      -9.781   3.907  70.076  1.00  0.00    -0.242 C  
ATOM     37  CD  GLU A   1      -8.938   4.691  69.102  1.00  0.00    -0.098 C  
ATOM     38  OE2 GLU A   1      -8.163   5.585  69.400  1.00  0.00    -0.096 OA 
ATOM     39  OE1 GLU A   1      -9.130   4.281  67.822  1.00  0.00    -0.116 OA 
ENDBRANCH  35  36
ENDBRANCH  31  35
ENDBRANCH  29  31
ENDBRANCH  23  27
ENDBRANCH  19  21
ENDBRANCH  18  19
ENDBRANCH   3  18
TORSDOF 7
ENDMDL
MODEL       58
REMARK 921   NORMALIZED FREE ENERGY PREDICTED BY IDOCK:   -6.54 KCAL/MOL
REMARK 922        TOTAL FREE ENERGY PREDICTED BY IDOCK:  -10.45 KCAL/MOL
REMARK 923 INTER-LIGAND FREE ENERGY PREDICTED BY IDOCK:   -9.44 KCAL/MOL
REMARK 924 INTRA-LIGAND FREE ENERGY PREDICTED BY IDOCK:   -1.02 KCAL/MOL
REMARK 927      BINDING AFFINITY PREDICTED BY RF-SCORE:    0.00 PKD
ROOT
HETATM    1  C   UNK A   0      -8.656   8.837  71.322  1.00  0.00    -0.203 C  
HETATM    2  N   UNK A   0     -10.067   9.109  71.096  1.00  0.00    -0.294 NA 
HETATM    3  C   UNK A   0     -10.427  10.239  70.192  1.00  0.00    -0.203 C  
HETATM    4  O   UNK A   0      -9.754   6.509  72.425  1.00  0.00    -0.154 OA 
HETATM    5  C   UNK A   0     -11.660  10.966  70.787  1.00  0.00    -0.150 C  
HETATM    6  C   UNK A   0     -13.167   6.606  72.281  1.00  0.00     0.220 C  
HETATM    7  N   UNK A   0     -12.737  10.018  71.121  1.00  0.00    -0.360 NA 
HETATM    8  H   UNK A   0     -13.713  10.297  71.026  1.00  0.00     0.000 HD 
HETATM    9  H2  UNK A   0     -14.195   4.879  72.713  1.00  0.00     0.000 HD 
HETATM   10  C   UNK A   0     -12.415   8.738  71.569  1.00  0.00    -0.326 C  
HETATM   11  H   UNK A   0     -11.874   5.108  72.654  1.00  0.00     0.000 HD 
HETATM   12  C   UNK A   0     -11.127   8.313  71.613  1.00  0.00    -0.265 C  
HETATM   13  H1  UNK A   0     -15.214   6.272  72.370  1.00  0.00     0.000 HD 
HETATM   14  C   UNK A   0     -10.894   6.906  72.192  1.00  0.00    -0.225 C  
HETATM   15  N   UNK A   0     -13.415   7.888  71.939  1.00  0.00    -0.447 NA 
HETATM   16  N   UNK A   0     -14.284   5.865  72.469  1.00  0.00    -0.343 NA 
HETATM   17  N   UNK A   0     -11.991   6.091  72.405  1.00  0.00    -0.483 N  
ENDROOT
BRANCH   3  18
HETATM   18  C   UNK A   0     -10.713   9.716  68.758  1.00  0.00    -0.206 C  
BRANCH  18  19
HETATM   19  N   UNK A   0     -11.773  10.501  68.095  1.00  0.00    -0.760 NA 
HETATM   20  H   UNK A   0     -12.752  10.217  68.138  1.00  0.00     0.000 HD 
BRANCH  19  21
HETATM   21  C   UNK A   0     -11.372  11.653  67.402  1.00  0.00    -0.300 A  
HETATM   22  C   UNK A   0     -11.506  14.078  67.204  1.00  0.00    -0.373 A  
HETATM   23  C   UNK A   0     -10.601  14.044  66.143  1.00  0.00    -0.290 A  
HETATM   24  C   UNK A   0     -10.572  11.625  66.256  1.00  0.00    -0.301 A  
HETATM   25  C   UNK A   0     -11.895  12.884  67.819  1.00  0.00    -0.391 A  
HETATM   26  C   UNK A   0     -10.175  12.812  65.636  1.00  0.00    -0.292 A  
BRANCH  23  27
HETATM   27  C   UNK A   0     -10.115  15.317  65.554  1.00  0.00    -0.375 C  
ATOM     28  H   GLU A   1      -8.736  15.524  67.104  1.00  0.00     0.000 HD 
ATOM     29  N   GLU A   1      -9.119  15.965  66.268  1.00  0.00    -0.316 N  
HETATM   30  O   UNK A   0     -10.559  15.736  64.497  1.00  0.00    -0.406 OA 
BRANCH  29  31
ATOM     31  CA  GLU A   1      -8.601  17.283  65.841  1.00  0.00     0.046 C  
ATOM     32  C   GLU A   1      -7.273  17.590  66.573  1.00  0.00    -0.263 C  
ATOM     33  O   GLU A   1      -6.925  16.662  67.494  1.00  0.00    -0.129 OA 
ATOM     34  OXT GLU A   1      -6.604  18.598  66.393  1.00  0.00    -0.182 OA 
BRANCH  31  35
ATOM     35  CB  GLU A   1      -9.653  18.373  66.114  1.00  0.00    -0.195 C  
BRANCH  35  36
ATOM     36  CG  GLU A   1      -9.945  18.585  67.605  1.00  0.00    -0.362 C  
ATOM     37  CD  GLU A   1      -9.920  20.040  68.003  1.00  0.00    -0.416 C  
ATOM     38  OE2 GLU A   1      -9.670  20.971  67.256  1.00  0.00    -0.412 OA 
ATOM     39  OE1 GLU A   1     -10.223  20.211  69.315  1.00  0.00    -0.285 OA 
ENDBRANCH  35  36
ENDBRANCH  31  35
ENDBRANCH  29  31
ENDBRANCH  23  27
ENDBRANCH  19  21
ENDBRANCH  18  19
ENDBRANCH   3  18
TORSDOF 7
ENDMDL
MODEL       59
REMARK 921   NORMALIZED FREE ENERGY PREDICTED BY IDOCK:   -6.54 KCAL/MOL
REMARK 922        TOTAL FREE ENERGY PREDICTED BY IDOCK:  -10.44 KCAL/MOL
REMARK 923 INTER-LIGAND FREE ENERGY PREDICTED BY IDOCK:   -9.35 KCAL/MOL
REMARK 924 INTRA-LIGAND FREE ENERGY PREDICTED BY IDOCK:   -1.09 KCAL/MOL
REMARK 927      BINDING AFFINITY PREDICTED BY RF-SCORE:    0.00 PKD
ROOT
HETATM    1  C   UNK A   0      -7.915  14.109  67.205  1.00  0.00    -0.150 C  
HETATM    2  N   UNK A   0      -9.117  14.558  66.519  1.00  0.00    -0.394 NA 
HETATM    3  C   UNK A   0     -10.164  13.545  66.202  1.00  0.00    -0.302 C  
HETATM    4  O   UNK A   0      -7.591  16.877  67.477  1.00  0.00    -0.158 OA 
HETATM    5  C   UNK A   0     -10.746  13.865  64.801  1.00  0.00    -0.423 C  
HETATM    6  C   UNK A   0     -10.137  18.543  65.923  1.00  0.00    -0.163 C  
HETATM    7  N   UNK A   0     -11.140  15.280  64.692  1.00  0.00    -0.631 NA 
HETATM    8  H   UNK A   0     -11.944  15.545  64.122  1.00  0.00     0.000 HD 
HETATM    9  H2  UNK A   0     -10.312  20.563  66.266  1.00  0.00     0.000 HD 
HETATM   10  C   UNK A   0     -10.411  16.255  65.370  1.00  0.00    -0.343 C  
HETATM   11  H   UNK A   0      -8.733  19.145  67.235  1.00  0.00     0.000 HD 
HETATM   12  C   UNK A   0      -9.398  15.918  66.208  1.00  0.00    -0.322 C  
HETATM   13  H1  UNK A   0     -11.484  19.908  65.127  1.00  0.00     0.000 HD 
HETATM   14  C   UNK A   0      -8.623  17.085  66.843  1.00  0.00    -0.225 C  
HETATM   15  N   UNK A   0     -10.741  17.569  65.212  1.00  0.00    -0.608 NA 
HETATM   16  N   UNK A   0     -10.693  19.767  65.755  1.00  0.00    -0.468 NA 
HETATM   17  N   UNK A   0      -9.136  18.365  66.716  1.00  0.00    -0.284 N  
ENDROOT
BRANCH   3  18
HETATM   18  C   UNK A   0     -11.270  13.549  67.292  1.00  0.00    -0.298 C  
BRANCH  18  19
HETATM   19  N   UNK A   0     -12.003  12.268  67.326  1.00  0.00    -0.559 NA 
HETATM   20  H   UNK A   0     -12.697  12.032  66.617  1.00  0.00     0.000 HD 
BRANCH  19  21
HETATM   21  C   UNK A   0     -11.702  11.392  68.379  1.00  0.00    -0.303 A  
HETATM   22  C   UNK A   0     -10.641   9.312  69.077  1.00  0.00    -0.225 A  
HETATM   23  C   UNK A   0     -10.980   9.581  70.403  1.00  0.00    -0.333 A  
HETATM   24  C   UNK A   0     -12.148  11.579  69.691  1.00  0.00    -0.363 A  
HETATM   25  C   UNK A   0     -11.014  10.211  68.073  1.00  0.00    -0.326 A  
HETATM   26  C   UNK A   0     -11.779  10.689  70.703  1.00  0.00    -0.454 A  
BRANCH  23  27
HETATM   27  C   UNK A   0     -10.502   8.676  71.480  1.00  0.00    -0.274 C  
ATOM     28  H   GLU A   1      -8.723   8.356  70.440  1.00  0.00     0.000 HD 
ATOM     29  N   GLU A   1      -9.261   8.097  71.267  1.00  0.00    -0.148 N  
HETATM   30  O   UNK A   0     -11.163   8.487  72.488  1.00  0.00    -0.357 OA 
BRANCH  29  31
ATOM     31  CA  GLU A   1      -8.699   7.112  72.217  1.00  0.00    -0.120 C  
ATOM     32  C   GLU A   1      -7.168   7.302  72.330  1.00  0.00    -0.068 C  
ATOM     33  O   GLU A   1      -6.666   8.236  71.490  1.00  0.00    -0.052 OA 
ATOM     34  OXT GLU A   1      -6.445   6.645  73.067  1.00  0.00    -0.062 OA 
BRANCH  31  35
ATOM     35  CB  GLU A   1      -9.052   5.685  71.759  1.00  0.00    -0.145 C  
BRANCH  35  36
ATOM     36  CG  GLU A   1      -8.762   5.426  70.276  1.00  0.00    -0.135 C  
ATOM     37  CD  GLU A   1     -10.006   5.465  69.423  1.00  0.00    -0.210 C  
ATOM     38  OE2 GLU A   1     -11.139   5.649  69.836  1.00  0.00    -0.321 OA 
ATOM     39  OE1 GLU A   1      -9.725   5.276  68.109  1.00  0.00    -0.130 OA 
ENDBRANCH  35  36
ENDBRANCH  31  35
ENDBRANCH  29  31
ENDBRANCH  23  27
ENDBRANCH  19  21
ENDBRANCH  18  19
ENDBRANCH   3  18
TORSDOF 7
ENDMDL
MODEL       60
REMARK 921   NORMALIZED FREE ENERGY PREDICTED BY IDOCK:   -6.53 KCAL/MOL
REMARK 922        TOTAL FREE ENERGY PREDICTED BY IDOCK:  -10.43 KCAL/MOL
REMARK 923 INTER-LIGAND FREE ENERGY PREDICTED BY IDOCK:   -9.41 KCAL/MOL
REMARK 924 INTRA-LIGAND FREE ENERGY PREDICTED BY IDOCK:   -1.02 KCAL/MOL
REMARK 927      BINDING AFFINITY PREDICTED BY RF-SCORE:    0.00 PKD
ROOT
HETATM    1  C   UNK A   0     -12.012  14.805  67.187  1.00  0.00    -0.200 C  
HETATM    2  N   UNK A   0     -11.103  13.677  67.054  1.00  0.00    -0.296 NA 
HETATM    3  C   UNK A   0     -10.614  13.019  68.301  1.00  0.00    -0.247 C  
HETATM    4  O   UNK A   0     -12.286  14.315  64.444  1.00  0.00    -0.570 OA 
HETATM    5  C   UNK A   0      -9.123  12.646  68.103  1.00  0.00    -0.204 C  
HETATM    6  C   UNK A   0     -10.247  11.753  63.471  1.00  0.00    -0.450 C  
HETATM    7  N   UNK A   0      -8.913  11.913  66.843  1.00  0.00    -0.190 NA 
HETATM    8  H   UNK A   0      -8.197  11.189  66.785  1.00  0.00     0.000 HD 
HETATM    9  H2  UNK A   0     -10.511  10.979  61.584  1.00  0.00     0.000 HD 
HETATM   10  C   UNK A   0      -9.697  12.212  65.731  1.00  0.00    -0.229 C  
HETATM   11  H   UNK A   0     -11.789  12.671  62.558  1.00  0.00     0.000 HD 
HETATM   12  C   UNK A   0     -10.718  13.104  65.811  1.00  0.00    -0.279 C  
HETATM   13  H1  UNK A   0      -9.185  10.261  62.492  1.00  0.00     0.000 HD 
HETATM   14  C   UNK A   0     -11.465  13.403  64.499  1.00  0.00    -0.372 C  
HETATM   15  N   UNK A   0      -9.454  11.577  64.549  1.00  0.00    -0.397 NA 
HETATM   16  N   UNK A   0      -9.953  10.930  62.437  1.00  0.00    -0.654 NA 
HETATM   17  N   UNK A   0     -11.218  12.598  63.401  1.00  0.00    -0.658 N  
ENDROOT
BRANCH   3  18
HETATM   18  C   UNK A   0     -11.475  11.769  68.628  1.00  0.00    -0.288 C  
BRANCH  18  19
HETATM   19  N   UNK A   0     -11.664  11.606  70.083  1.00  0.00    -0.458 NA 
HETATM   20  H   UNK A   0     -11.963  12.383  70.672  1.00  0.00     0.000 HD 
BRANCH  19  21
HETATM   21  C   UNK A   0     -11.413  10.334  70.618  1.00  0.00    -0.349 A  
HETATM   22  C   UNK A   0     -12.212   8.500  72.009  1.00  0.00    -0.429 A  
HETATM   23  C   UNK A   0     -11.065   7.766  71.706  1.00  0.00    -0.287 A  
HETATM   24  C   UNK A   0     -10.213   9.642  70.433  1.00  0.00    -0.348 A  
HETATM   25  C   UNK A   0     -12.374   9.781  71.475  1.00  0.00    -0.495 A  
HETATM   26  C   UNK A   0     -10.041   8.359  70.959  1.00  0.00    -0.242 A  
BRANCH  23  27
HETATM   27  C   UNK A   0     -10.937   6.370  72.196  1.00  0.00    -0.251 C  
ATOM     28  H   GLU A   1      -8.885   6.417  71.830  1.00  0.00     0.000 HD 
ATOM     29  N   GLU A   1      -9.661   5.832  72.138  1.00  0.00    -0.153 N  
HETATM   30  O   UNK A   0     -11.899   5.763  72.638  1.00  0.00    -0.278 OA 
BRANCH  29  31
ATOM     31  CA  GLU A   1      -9.403   4.425  72.516  1.00  0.00    -0.131 C  
ATOM     32  C   GLU A   1      -7.983   4.291  73.114  1.00  0.00    -0.090 C  
ATOM     33  O   GLU A   1      -7.261   5.434  73.079  1.00  0.00    -0.086 OA 
ATOM     34  OXT GLU A   1      -7.511   3.246  73.541  1.00  0.00    -0.053 OA 
BRANCH  31  35
ATOM     35  CB  GLU A   1      -9.579   3.513  71.287  1.00  0.00    -0.242 C  
BRANCH  35  36
ATOM     36  CG  GLU A   1      -9.620   4.275  69.957  1.00  0.00    -0.274 C  
ATOM     37  CD  GLU A   1      -8.296   4.263  69.236  1.00  0.00    -0.073 C  
ATOM     38  OE2 GLU A   1      -7.274   3.740  69.648  1.00  0.00    -0.042 OA 
ATOM     39  OE1 GLU A   1      -8.364   4.905  68.042  1.00  0.00    -0.099 OA 
ENDBRANCH  35  36
ENDBRANCH  31  35
ENDBRANCH  29  31
ENDBRANCH  23  27
ENDBRANCH  19  21
ENDBRANCH  18  19
ENDBRANCH   3  18
TORSDOF 7
ENDMDL
MODEL       61
REMARK 921   NORMALIZED FREE ENERGY PREDICTED BY IDOCK:   -6.52 KCAL/MOL
REMARK 922        TOTAL FREE ENERGY PREDICTED BY IDOCK:  -10.43 KCAL/MOL
REMARK 923 INTER-LIGAND FREE ENERGY PREDICTED BY IDOCK:   -9.40 KCAL/MOL
REMARK 924 INTRA-LIGAND FREE ENERGY PREDICTED BY IDOCK:   -1.03 KCAL/MOL
REMARK 927      BINDING AFFINITY PREDICTED BY RF-SCORE:    0.00 PKD
ROOT
HETATM    1  C   UNK A   0      -8.826  15.861  66.210  1.00  0.00    -0.351 C  
HETATM    2  N   UNK A   0      -9.090  16.953  67.134  1.00  0.00    -0.213 NA 
HETATM    3  C   UNK A   0     -10.501  17.192  67.553  1.00  0.00    -0.348 C  
HETATM    4  O   UNK A   0      -6.203  16.429  67.009  1.00  0.00    -0.197 OA 
HETATM    5  C   UNK A   0     -10.735  18.722  67.629  1.00  0.00    -0.385 C  
HETATM    6  C   UNK A   0      -6.154  19.067  69.180  1.00  0.00    -0.252 C  
HETATM    7  N   UNK A   0      -9.688  19.389  68.422  1.00  0.00    -0.381 NA 
HETATM    8  H   UNK A   0      -9.917  20.208  68.986  1.00  0.00     0.000 HD 
HETATM    9  H2  UNK A   0      -4.396  19.462  70.171  1.00  0.00     0.000 HD 
HETATM   10  C   UNK A   0      -8.386  18.896  68.400  1.00  0.00    -0.347 C  
HETATM   11  H   UNK A   0      -4.763  17.696  68.691  1.00  0.00     0.000 HD 
HETATM   12  C   UNK A   0      -8.079  17.753  67.734  1.00  0.00    -0.226 C  
HETATM   13  H1  UNK A   0      -5.699  20.596  70.509  1.00  0.00     0.000 HD 
HETATM   14  C   UNK A   0      -6.594  17.350  67.723  1.00  0.00    -0.154 C  
HETATM   15  N   UNK A   0      -7.408  19.556  69.084  1.00  0.00    -0.362 NA 
HETATM   16  N   UNK A   0      -5.357  19.768  70.021  1.00  0.00    -0.201 NA 
HETATM   17  N   UNK A   0      -5.722  18.021  68.563  1.00  0.00    -0.171 N  
ENDROOT
BRANCH   3  18
HETATM   18  C   UNK A   0     -10.787  16.504  68.915  1.00  0.00    -0.336 C  
BRANCH  18  19
HETATM   19  N   UNK A   0     -12.030  15.710  68.872  1.00  0.00    -0.560 NA 
HETATM   20  H   UNK A   0     -12.939  16.150  68.727  1.00  0.00     0.000 HD 
BRANCH  19  21
HETATM   21  C   UNK A   0     -11.905  14.323  69.042  1.00  0.00    -0.335 A  
HETATM   22  C   UNK A   0     -11.365  12.173  68.028  1.00  0.00    -0.353 A  
HETATM   23  C   UNK A   0     -11.557  11.543  69.258  1.00  0.00    -0.388 A  
HETATM   24  C   UNK A   0     -12.222  13.659  70.230  1.00  0.00    -0.423 A  
HETATM   25  C   UNK A   0     -11.551  13.555  67.925  1.00  0.00    -0.377 A  
HETATM   26  C   UNK A   0     -12.037  12.279  70.346  1.00  0.00    -0.385 A  
BRANCH  23  27
HETATM   27  C   UNK A   0     -11.267  10.092  69.391  1.00  0.00    -0.215 C  
ATOM     28  H   GLU A   1     -11.887  10.137  71.381  1.00  0.00     0.000 HD 
ATOM     29  N   GLU A   1     -11.490   9.551  70.647  1.00  0.00    -0.281 N  
HETATM   30  O   UNK A   0     -10.881   9.433  68.439  1.00  0.00    -0.194 OA 
BRANCH  29  31
ATOM     31  CA  GLU A   1     -11.166   8.139  70.944  1.00  0.00    -0.266 C  
ATOM     32  C   GLU A   1     -12.317   7.490  71.748  1.00  0.00    -0.326 C  
ATOM     33  O   GLU A   1     -13.307   8.350  72.083  1.00  0.00    -0.336 OA 
ATOM     34  OXT GLU A   1     -12.335   6.320  72.105  1.00  0.00    -0.315 OA 
BRANCH  31  35
ATOM     35  CB  GLU A   1      -9.835   8.059  71.714  1.00  0.00    -0.240 C  
BRANCH  35  36
ATOM     36  CG  GLU A   1      -8.618   7.810  70.815  1.00  0.00    -0.133 C  
ATOM     37  CD  GLU A   1      -8.396   6.346  70.525  1.00  0.00    -0.129 C  
ATOM     38  OE2 GLU A   1      -9.072   5.430  70.964  1.00  0.00    -0.140 OA 
ATOM     39  OE1 GLU A   1      -7.342   6.149  69.694  1.00  0.00    -0.075 OA 
ENDBRANCH  35  36
ENDBRANCH  31  35
ENDBRANCH  29  31
ENDBRANCH  23  27
ENDBRANCH  19  21
ENDBRANCH  18  19
ENDBRANCH   3  18
TORSDOF 7
ENDMDL
MODEL       62
REMARK 921   NORMALIZED FREE ENERGY PREDICTED BY IDOCK:   -6.51 KCAL/MOL
REMARK 922        TOTAL FREE ENERGY PREDICTED BY IDOCK:  -10.41 KCAL/MOL
REMARK 923 INTER-LIGAND FREE ENERGY PREDICTED BY IDOCK:  -10.26 KCAL/MOL
REMARK 924 INTRA-LIGAND FREE ENERGY PREDICTED BY IDOCK:   -0.15 KCAL/MOL
REMARK 927      BINDING AFFINITY PREDICTED BY RF-SCORE:    0.00 PKD
ROOT
HETATM    1  C   UNK A   0      -8.329  16.555  66.057  1.00  0.00    -0.128 C  
HETATM    2  N   UNK A   0      -8.631  17.904  66.513  1.00  0.00    -0.275 NA 
HETATM    3  C   UNK A   0     -10.060  18.329  66.546  1.00  0.00    -0.385 C  
HETATM    4  O   UNK A   0      -5.838  17.244  67.135  1.00  0.00    -0.123 OA 
HETATM    5  C   UNK A   0     -10.141  19.806  66.082  1.00  0.00    -0.499 C  
HETATM    6  C   UNK A   0      -5.884  20.450  68.314  1.00  0.00    -0.272 C  
HETATM    7  N   UNK A   0      -9.181  20.653  66.811  1.00  0.00    -0.621 NA 
HETATM    8  H   UNK A   0      -9.415  21.623  67.027  1.00  0.00     0.000 HD 
HETATM    9  H2  UNK A   0      -4.291  21.077  69.454  1.00  0.00     0.000 HD 
HETATM   10  C   UNK A   0      -7.954  20.126  67.205  1.00  0.00    -0.326 C  
HETATM   11  H   UNK A   0      -4.583  18.935  68.574  1.00  0.00     0.000 HD 
HETATM   12  C   UNK A   0      -7.660  18.814  67.013  1.00  0.00    -0.229 C  
HETATM   13  H1  UNK A   0      -5.506  22.314  69.148  1.00  0.00     0.000 HD 
HETATM   14  C   UNK A   0      -6.246  18.366  67.426  1.00  0.00    -0.180 C  
HETATM   15  N   UNK A   0      -7.044  20.933  67.821  1.00  0.00    -0.274 NA 
HETATM   16  N   UNK A   0      -5.175  21.357  69.028  1.00  0.00    -0.458 NA 
HETATM   17  N   UNK A   0      -5.466  19.240  68.162  1.00  0.00    -0.188 N  
ENDROOT
BRANCH   3  18
HETATM   18  C   UNK A   0     -10.647  18.149  67.972  1.00  0.00    -0.341 C  
BRANCH  18  19
HETATM   19  N   UNK A   0      -9.875  17.164  68.756  1.00  0.00    -0.282 NA 
HETATM   20  H   UNK A   0      -8.993  17.414  69.205  1.00  0.00     0.000 HD 
BRANCH  19  21
HETATM   21  C   UNK A   0     -10.408  15.871  68.856  1.00  0.00    -0.228 A  
HETATM   22  C   UNK A   0     -10.053  13.478  68.563  1.00  0.00    -0.215 A  
HETATM   23  C   UNK A   0     -11.331  13.225  69.063  1.00  0.00    -0.334 A  
HETATM   24  C   UNK A   0     -11.730  15.608  69.228  1.00  0.00    -0.388 A  
HETATM   25  C   UNK A   0      -9.605  14.797  68.451  1.00  0.00    -0.213 A  
HETATM   26  C   UNK A   0     -12.188  14.293  69.347  1.00  0.00    -0.319 A  
BRANCH  23  27
HETATM   27  C   UNK A   0     -11.772  11.822  69.272  1.00  0.00    -0.335 C  
ATOM     28  H   GLU A   1     -11.012  11.858  71.213  1.00  0.00     0.000 HD 
ATOM     29  N   GLU A   1     -11.460  11.275  70.507  1.00  0.00    -0.135 N  
HETATM   30  O   UNK A   0     -12.387  11.216  68.409  1.00  0.00    -0.556 OA 
BRANCH  29  31
ATOM     31  CA  GLU A   1     -11.765   9.862  70.820  1.00  0.00    -0.341 C  
ATOM     32  C   GLU A   1     -12.971   9.784  71.786  1.00  0.00    -0.438 C  
ATOM     33  O   GLU A   1     -13.420  10.990  72.204  1.00  0.00    -0.377 OA 
ATOM     34  OXT GLU A   1     -13.463   8.739  72.191  1.00  0.00    -0.373 OA 
BRANCH  31  35
ATOM     35  CB  GLU A   1     -10.523   9.181  71.424  1.00  0.00    -0.414 C  
BRANCH  35  36
ATOM     36  CG  GLU A   1     -10.578   7.649  71.375  1.00  0.00    -0.236 C  
ATOM     37  CD  GLU A   1     -10.723   7.026  72.741  1.00  0.00    -0.274 C  
ATOM     38  OE2 GLU A   1     -10.767   7.640  73.795  1.00  0.00    -0.275 OA 
ATOM     39  OE1 GLU A   1     -10.813   5.674  72.674  1.00  0.00    -0.225 OA 
ENDBRANCH  35  36
ENDBRANCH  31  35
ENDBRANCH  29  31
ENDBRANCH  23  27
ENDBRANCH  19  21
ENDBRANCH  18  19
ENDBRANCH   3  18
TORSDOF 7
ENDMDL
MODEL       63
REMARK 921   NORMALIZED FREE ENERGY PREDICTED BY IDOCK:   -6.50 KCAL/MOL
REMARK 922        TOTAL FREE ENERGY PREDICTED BY IDOCK:  -10.39 KCAL/MOL
REMARK 923 INTER-LIGAND FREE ENERGY PREDICTED BY IDOCK:   -9.23 KCAL/MOL
REMARK 924 INTRA-LIGAND FREE ENERGY PREDICTED BY IDOCK:   -1.16 KCAL/MOL
REMARK 927      BINDING AFFINITY PREDICTED BY RF-SCORE:    0.00 PKD
ROOT
HETATM    1  C   UNK A   0      -9.645   4.857  70.193  1.00  0.00    -0.193 C  
HETATM    2  N   UNK A   0      -9.663   5.757  71.337  1.00  0.00    -0.165 NA 
HETATM    3  C   UNK A   0      -8.425   5.870  72.160  1.00  0.00    -0.125 C  
HETATM    4  O   UNK A   0     -12.022   6.235  69.654  1.00  0.00    -0.128 OA 
HETATM    5  C   UNK A   0      -8.838   5.971  73.651  1.00  0.00    -0.124 C  
HETATM    6  C   UNK A   0     -12.687   8.496  72.127  1.00  0.00    -0.373 C  
HETATM    7  N   UNK A   0      -9.866   7.006  73.856  1.00  0.00    -0.289 NA 
HETATM    8  H   UNK A   0      -9.881   7.547  74.721  1.00  0.00     0.000 HD 
HETATM    9  H2  UNK A   0     -14.187   9.864  71.799  1.00  0.00     0.000 HD 
HETATM   10  C   UNK A   0     -10.816   7.242  72.866  1.00  0.00    -0.337 C  
HETATM   11  H   UNK A   0     -13.452   8.252  70.281  1.00  0.00     0.000 HD 
HETATM   12  C   UNK A   0     -10.758   6.601  71.670  1.00  0.00    -0.229 C  
HETATM   13  H1  UNK A   0     -13.433   9.969  73.387  1.00  0.00     0.000 HD 
HETATM   14  C   UNK A   0     -11.903   6.893  70.685  1.00  0.00    -0.368 C  
HETATM   15  N   UNK A   0     -11.804   8.155  73.089  1.00  0.00    -0.498 NA 
HETATM   16  N   UNK A   0     -13.498   9.525  72.471  1.00  0.00    -0.649 NA 
HETATM   17  N   UNK A   0     -12.768   7.936  70.969  1.00  0.00    -0.520 N  
ENDROOT
BRANCH   3  18
HETATM   18  C   UNK A   0      -7.589   7.101  71.716  1.00  0.00    -0.087 C  
BRANCH  18  19
HETATM   19  N   UNK A   0      -7.566   7.240  70.246  1.00  0.00    -0.088 NA 
HETATM   20  H   UNK A   0      -6.947   6.672  69.667  1.00  0.00     0.000 HD 
BRANCH  19  21
HETATM   21  C   UNK A   0      -8.433   8.188  69.683  1.00  0.00    -0.126 A  
HETATM   22  C   UNK A   0      -9.796   8.841  67.772  1.00  0.00    -0.217 A  
HETATM   23  C   UNK A   0     -10.226   9.975  68.462  1.00  0.00    -0.196 A  
HETATM   24  C   UNK A   0      -8.768   9.393  70.307  1.00  0.00    -0.261 A  
HETATM   25  C   UNK A   0      -8.895   7.962  68.381  1.00  0.00    -0.130 A  
HETATM   26  C   UNK A   0      -9.670  10.278  69.710  1.00  0.00    -0.183 A  
BRANCH  23  27
HETATM   27  C   UNK A   0     -11.254  10.857  67.855  1.00  0.00    -0.321 C  
ATOM     28  H   GLU A   1      -9.877  11.504  66.429  1.00  0.00     0.000 HD 
ATOM     29  N   GLU A   1     -10.827  11.621  66.781  1.00  0.00    -0.264 N  
HETATM   30  O   UNK A   0     -12.401  10.875  68.274  1.00  0.00    -0.400 OA 
BRANCH  29  31
ATOM     31  CA  GLU A   1     -11.722  12.604  66.132  1.00  0.00    -0.406 C  
ATOM     32  C   GLU A   1     -11.773  12.347  64.608  1.00  0.00    -0.365 C  
ATOM     33  O   GLU A   1     -10.939  11.368  64.187  1.00  0.00    -0.357 OA 
ATOM     34  OXT GLU A   1     -12.458  12.988  63.823  1.00  0.00    -0.636 OA 
BRANCH  31  35
ATOM     35  CB  GLU A   1     -11.240  14.034  66.440  1.00  0.00    -0.321 C  
BRANCH  35  36
ATOM     36  CG  GLU A   1      -9.831  14.091  67.042  1.00  0.00    -0.260 C  
ATOM     37  CD  GLU A   1      -9.792  14.802  68.372  1.00  0.00    -0.220 C  
ATOM     38  OE2 GLU A   1     -10.751  15.314  68.925  1.00  0.00    -0.229 OA 
ATOM     39  OE1 GLU A   1      -8.546  14.805  68.908  1.00  0.00    -0.170 OA 
ENDBRANCH  35  36
ENDBRANCH  31  35
ENDBRANCH  29  31
ENDBRANCH  23  27
ENDBRANCH  19  21
ENDBRANCH  18  19
ENDBRANCH   3  18
TORSDOF 7
ENDMDL
MODEL       64
REMARK 921   NORMALIZED FREE ENERGY PREDICTED BY IDOCK:   -6.49 KCAL/MOL
REMARK 922        TOTAL FREE ENERGY PREDICTED BY IDOCK:  -10.38 KCAL/MOL
REMARK 923 INTER-LIGAND FREE ENERGY PREDICTED BY IDOCK:   -8.74 KCAL/MOL
REMARK 924 INTRA-LIGAND FREE ENERGY PREDICTED BY IDOCK:   -1.64 KCAL/MOL
REMARK 927      BINDING AFFINITY PREDICTED BY RF-SCORE:    0.00 PKD
ROOT
HETATM    1  C   UNK A   0      -8.258   3.741  62.766  1.00  0.00    -0.076 C  
HETATM    2  N   UNK A   0      -8.042   4.813  63.726  1.00  0.00    -0.098 NA 
HETATM    3  C   UNK A   0      -6.909   5.753  63.484  1.00  0.00    -0.040 C  
HETATM    4  O   UNK A   0     -10.654   3.560  64.203  1.00  0.00    -0.239 OA 
HETATM    5  C   UNK A   0      -6.249   6.082  64.847  1.00  0.00    -0.030 C  
HETATM    6  C   UNK A   0     -10.702   5.836  66.751  1.00  0.00    -0.297 C  
HETATM    7  N   UNK A   0      -7.250   6.496  65.845  1.00  0.00    -0.073 NA 
HETATM    8  H   UNK A   0      -7.011   7.192  66.552  1.00  0.00     0.000 HD 
HETATM    9  H2  UNK A   0     -12.481   6.135  67.738  1.00  0.00     0.000 HD 
HETATM   10  C   UNK A   0      -8.524   5.933  65.821  1.00  0.00    -0.148 C  
HETATM   11  H   UNK A   0     -12.150   4.712  65.919  1.00  0.00     0.000 HD 
HETATM   12  C   UNK A   0      -8.894   5.077  64.833  1.00  0.00    -0.140 C  
HETATM   13  H1  UNK A   0     -11.125   7.061  68.374  1.00  0.00     0.000 HD 
HETATM   14  C   UNK A   0     -10.301   4.467  64.954  1.00  0.00    -0.106 C  
HETATM   15  N   UNK A   0      -9.425   6.271  66.787  1.00  0.00    -0.140 NA 
HETATM   16  N   UNK A   0     -11.494   6.392  67.699  1.00  0.00    -0.654 NA 
HETATM   17  N   UNK A   0     -11.168   4.990  65.898  1.00  0.00    -0.825 N  
ENDROOT
BRANCH   3  18
HETATM   18  C   UNK A   0      -7.413   7.037  62.771  1.00  0.00    -0.091 C  
BRANCH  18  19
HETATM   19  N   UNK A   0      -7.039   8.255  63.518  1.00  0.00    -0.084 NA 
HETATM   20  H   UNK A   0      -6.154   8.321  64.020  1.00  0.00     0.000 HD 
BRANCH  19  21
HETATM   21  C   UNK A   0      -7.957   9.315  63.505  1.00  0.00    -0.144 A  
HETATM   22  C   UNK A   0      -9.651  10.577  64.720  1.00  0.00    -0.342 A  
HETATM   23  C   UNK A   0      -9.788  11.443  63.635  1.00  0.00    -0.380 A  
HETATM   24  C   UNK A   0      -8.203  10.109  62.380  1.00  0.00    -0.170 A  
HETATM   25  C   UNK A   0      -8.746   9.514  64.645  1.00  0.00    -0.233 A  
HETATM   26  C   UNK A   0      -9.102  11.176  62.445  1.00  0.00    -0.292 A  
BRANCH  23  27
HETATM   27  C   UNK A   0     -10.677  12.627  63.750  1.00  0.00    -0.417 C  
ATOM     28  H   GLU A   1      -9.502  13.374  65.302  1.00  0.00     0.000 HD 
ATOM     29  N   GLU A   1     -10.346  13.528  64.749  1.00  0.00    -0.398 N  
HETATM   30  O   UNK A   0     -11.618  12.789  62.989  1.00  0.00    -0.320 OA 
BRANCH  29  31
ATOM     31  CA  GLU A   1     -11.191  14.709  65.031  1.00  0.00    -0.386 C  
ATOM     32  C   GLU A   1     -10.322  15.859  65.590  1.00  0.00    -0.390 C  
ATOM     33  O   GLU A   1      -9.026  15.523  65.789  1.00  0.00    -0.235 OA 
ATOM     34  OXT GLU A   1     -10.750  16.967  65.883  1.00  0.00    -0.268 OA 
BRANCH  31  35
ATOM     35  CB  GLU A   1     -12.311  14.327  66.016  1.00  0.00    -0.416 C  
BRANCH  35  36
ATOM     36  CG  GLU A   1     -11.841  13.422  67.161  1.00  0.00    -0.429 C  
ATOM     37  CD  GLU A   1     -11.795  14.137  68.489  1.00  0.00    -0.355 C  
ATOM     38  OE2 GLU A   1     -12.066  15.313  68.666  1.00  0.00    -0.263 OA 
ATOM     39  OE1 GLU A   1     -11.418  13.310  69.496  1.00  0.00    -0.268 OA 
ENDBRANCH  35  36
ENDBRANCH  31  35
ENDBRANCH  29  31
ENDBRANCH  23  27
ENDBRANCH  19  21
ENDBRANCH  18  19
ENDBRANCH   3  18
TORSDOF 7
ENDMDL
MODEL       65
REMARK 921   NORMALIZED FREE ENERGY PREDICTED BY IDOCK:   -6.48 KCAL/MOL
REMARK 922        TOTAL FREE ENERGY PREDICTED BY IDOCK:  -10.37 KCAL/MOL
REMARK 923 INTER-LIGAND FREE ENERGY PREDICTED BY IDOCK:  -10.13 KCAL/MOL
REMARK 924 INTRA-LIGAND FREE ENERGY PREDICTED BY IDOCK:   -0.24 KCAL/MOL
REMARK 927      BINDING AFFINITY PREDICTED BY RF-SCORE:    0.00 PKD
ROOT
HETATM    1  C   UNK A   0     -10.455   7.677  67.469  1.00  0.00    -0.266 C  
HETATM    2  N   UNK A   0      -9.998   8.584  68.511  1.00  0.00    -0.178 NA 
HETATM    3  C   UNK A   0      -9.743  10.006  68.141  1.00  0.00    -0.140 C  
HETATM    4  O   UNK A   0     -10.940   6.076  69.715  1.00  0.00    -0.337 OA 
HETATM    5  C   UNK A   0      -8.479  10.488  68.899  1.00  0.00    -0.152 C  
HETATM    6  C   UNK A   0      -9.941   7.671  72.566  1.00  0.00    -0.208 C  
HETATM    7  N   UNK A   0      -8.565  10.184  70.338  1.00  0.00    -0.338 NA 
HETATM    8  H   UNK A   0      -8.147  10.816  71.020  1.00  0.00     0.000 HD 
HETATM    9  H2  UNK A   0     -10.497   6.853  74.369  1.00  0.00     0.000 HD 
HETATM   10  C   UNK A   0      -9.218   9.029  70.762  1.00  0.00    -0.245 C  
HETATM   11  H   UNK A   0     -11.085   6.043  72.261  1.00  0.00     0.000 HD 
HETATM   12  C   UNK A   0      -9.863   8.223  69.880  1.00  0.00    -0.186 C  
HETATM   13  H1  UNK A   0      -9.485   8.289  74.496  1.00  0.00     0.000 HD 
HETATM   14  C   UNK A   0     -10.486   6.941  70.460  1.00  0.00    -0.211 C  
HETATM   15  N   UNK A   0      -9.237   8.720  72.090  1.00  0.00    -0.371 NA 
HETATM   16  N   UNK A   0      -9.973   7.604  73.918  1.00  0.00    -0.357 NA 
HETATM   17  N   UNK A   0     -10.558   6.806  71.836  1.00  0.00    -0.208 N  
ENDROOT
BRANCH   3  18
HETATM   18  C   UNK A   0     -10.978  10.884  68.479  1.00  0.00    -0.230 C  
BRANCH  18  19
HETATM   19  N   UNK A   0     -11.726  11.259  67.262  1.00  0.00    -0.553 NA 
HETATM   20  H   UNK A   0     -12.364  10.606  66.807  1.00  0.00     0.000 HD 
BRANCH  19  21
HETATM   21  C   UNK A   0     -11.518  12.552  66.761  1.00  0.00    -0.362 A  
HETATM   22  C   UNK A   0     -11.620  14.952  67.174  1.00  0.00    -0.327 A  
HETATM   23  C   UNK A   0     -11.090  15.195  65.906  1.00  0.00    -0.319 A  
HETATM   24  C   UNK A   0     -11.116  12.816  65.449  1.00  0.00    -0.317 A  
HETATM   25  C   UNK A   0     -11.841  13.636  67.589  1.00  0.00    -0.404 A  
HETATM   26  C   UNK A   0     -10.888  14.128  65.024  1.00  0.00    -0.408 A  
BRANCH  23  27
HETATM   27  C   UNK A   0     -10.766  16.586  65.501  1.00  0.00    -0.256 C  
ATOM     28  H   GLU A   1      -9.730  16.878  67.287  1.00  0.00     0.000 HD 
ATOM     29  N   GLU A   1     -10.046  17.325  66.426  1.00  0.00    -0.305 N  
HETATM   30  O   UNK A   0     -11.099  17.023  64.411  1.00  0.00    -1.144 OA 
BRANCH  29  31
ATOM     31  CA  GLU A   1      -9.725  18.750  66.191  1.00  0.00    -0.257 C  
ATOM     32  C   GLU A   1      -8.250  18.892  65.746  1.00  0.00     0.227 C  
ATOM     33  O   GLU A   1      -7.557  17.730  65.758  1.00  0.00    -0.536 OA 
ATOM     34  OXT GLU A   1      -7.719  19.954  65.453  1.00  0.00    -0.356 OA 
BRANCH  31  35
ATOM     35  CB  GLU A   1     -10.004  19.566  67.466  1.00  0.00    -0.495 C  
BRANCH  35  36
ATOM     36  CG  GLU A   1      -8.757  20.241  68.050  1.00  0.00    -0.148 C  
ATOM     37  CD  GLU A   1      -7.946  19.314  68.921  1.00  0.00    -0.318 C  
ATOM     38  OE2 GLU A   1      -8.235  18.158  69.181  1.00  0.00    -0.095 OA 
ATOM     39  OE1 GLU A   1      -6.825  19.915  69.394  1.00  0.00    -0.337 OA 
ENDBRANCH  35  36
ENDBRANCH  31  35
ENDBRANCH  29  31
ENDBRANCH  23  27
ENDBRANCH  19  21
ENDBRANCH  18  19
ENDBRANCH   3  18
TORSDOF 7
ENDMDL
MODEL       66
REMARK 921   NORMALIZED FREE ENERGY PREDICTED BY IDOCK:   -6.47 KCAL/MOL
REMARK 922        TOTAL FREE ENERGY PREDICTED BY IDOCK:  -10.36 KCAL/MOL
REMARK 923 INTER-LIGAND FREE ENERGY PREDICTED BY IDOCK:   -9.60 KCAL/MOL
REMARK 924 INTRA-LIGAND FREE ENERGY PREDICTED BY IDOCK:   -0.75 KCAL/MOL
REMARK 927      BINDING AFFINITY PREDICTED BY RF-SCORE:    0.00 PKD
ROOT
HETATM    1  C   UNK A   0      -8.093   9.575  70.445  1.00  0.00    -0.183 C  
HETATM    2  N   UNK A   0      -9.500   9.284  70.677  1.00  0.00    -0.256 NA 
HETATM    3  C   UNK A   0     -10.512  10.042  69.887  1.00  0.00    -0.274 C  
HETATM    4  O   UNK A   0      -7.833   7.228  71.950  1.00  0.00    -0.090 OA 
HETATM    5  C   UNK A   0     -11.709  10.370  70.815  1.00  0.00    -0.368 C  
HETATM    6  C   UNK A   0     -10.901   6.074  72.915  1.00  0.00    -0.258 C  
HETATM    7  N   UNK A   0     -12.187   9.170  71.523  1.00  0.00    -0.328 NA 
HETATM    8  H   UNK A   0     -13.179   9.062  71.737  1.00  0.00     0.000 HD 
HETATM    9  H2  UNK A   0     -11.004   4.192  73.736  1.00  0.00     0.000 HD 
HETATM   10  C   UNK A   0     -11.279   8.183  71.901  1.00  0.00    -0.290 C  
HETATM   11  H   UNK A   0      -9.077   5.222  72.917  1.00  0.00     0.000 HD 
HETATM   12  C   UNK A   0      -9.971   8.260  71.544  1.00  0.00    -0.199 C  
HETATM   13  H1  UNK A   0     -12.539   5.051  73.678  1.00  0.00     0.000 HD 
HETATM   14  C   UNK A   0      -9.053   7.147  72.080  1.00  0.00    -0.129 C  
HETATM   15  N   UNK A   0     -11.716   7.106  72.613  1.00  0.00    -0.505 NA 
HETATM   16  N   UNK A   0     -11.537   5.026  73.488  1.00  0.00    -0.424 NA 
HETATM   17  N   UNK A   0      -9.635   6.041  72.675  1.00  0.00    -0.150 N  
ENDROOT
BRANCH   3  18
HETATM   18  C   UNK A   0     -10.961   9.220  68.648  1.00  0.00     0.005 C  
BRANCH  18  19
HETATM   19  N   UNK A   0     -10.587   9.891  67.387  1.00  0.00    -0.271 NA 
HETATM   20  H   UNK A   0     -10.376   9.359  66.543  1.00  0.00     0.000 HD 
BRANCH  19  21
HETATM   21  C   UNK A   0     -10.536  11.293  67.404  1.00  0.00    -0.224 A  
HETATM   22  C   UNK A   0     -11.760  13.392  67.224  1.00  0.00    -0.424 A  
HETATM   23  C   UNK A   0     -10.585  14.101  67.474  1.00  0.00    -0.257 A  
HETATM   24  C   UNK A   0      -9.348  12.020  67.520  1.00  0.00    -0.179 A  
HETATM   25  C   UNK A   0     -11.727  11.995  67.178  1.00  0.00    -0.344 A  
HETATM   26  C   UNK A   0      -9.370  13.416  67.570  1.00  0.00    -0.218 A  
BRANCH  23  27
HETATM   27  C   UNK A   0     -10.638  15.579  67.618  1.00  0.00    -0.291 C  
ATOM     28  H   GLU A   1      -9.202  15.788  66.121  1.00  0.00     0.000 HD 
ATOM     29  N   GLU A   1      -9.772  16.289  66.801  1.00  0.00    -0.232 N  
HETATM   30  O   UNK A   0     -11.416  16.113  68.392  1.00  0.00    -0.369 OA 
BRANCH  29  31
ATOM     31  CA  GLU A   1      -9.659  17.761  66.897  1.00  0.00    -0.288 C  
ATOM     32  C   GLU A   1     -10.515  18.429  65.796  1.00  0.00    -0.227 C  
ATOM     33  O   GLU A   1     -11.094  17.554  64.942  1.00  0.00    -0.860 OA 
ATOM     34  OXT GLU A   1     -10.636  19.639  65.655  1.00  0.00    -0.503 OA 
BRANCH  31  35
ATOM     35  CB  GLU A   1      -8.182  18.180  66.786  1.00  0.00    -0.270 C  
BRANCH  35  36
ATOM     36  CG  GLU A   1      -7.499  18.393  68.142  1.00  0.00    -0.279 C  
ATOM     37  CD  GLU A   1      -7.233  19.848  68.440  1.00  0.00    -0.296 C  
ATOM     38  OE2 GLU A   1      -7.491  20.779  67.695  1.00  0.00    -0.298 OA 
ATOM     39  OE1 GLU A   1      -6.668  20.019  69.662  1.00  0.00    -0.326 OA 
ENDBRANCH  35  36
ENDBRANCH  31  35
ENDBRANCH  29  31
ENDBRANCH  23  27
ENDBRANCH  19  21
ENDBRANCH  18  19
ENDBRANCH   3  18
TORSDOF 7
ENDMDL
MODEL       67
REMARK 921   NORMALIZED FREE ENERGY PREDICTED BY IDOCK:   -6.47 KCAL/MOL
REMARK 922        TOTAL FREE ENERGY PREDICTED BY IDOCK:  -10.35 KCAL/MOL
REMARK 923 INTER-LIGAND FREE ENERGY PREDICTED BY IDOCK:   -9.20 KCAL/MOL
REMARK 924 INTRA-LIGAND FREE ENERGY PREDICTED BY IDOCK:   -1.15 KCAL/MOL
REMARK 927      BINDING AFFINITY PREDICTED BY RF-SCORE:    0.00 PKD
ROOT
HETATM    1  C   UNK A   0      -9.265   4.150  71.865  1.00  0.00    -0.126 C  
HETATM    2  N   UNK A   0     -10.017   5.106  71.065  1.00  0.00    -0.195 NA 
HETATM    3  C   UNK A   0     -10.726   6.210  71.775  1.00  0.00    -0.242 C  
HETATM    4  O   UNK A   0      -8.313   3.469  69.321  1.00  0.00    -0.059 OA 
HETATM    5  C   UNK A   0     -12.091   6.441  71.078  1.00  0.00    -0.124 C  
HETATM    6  C   UNK A   0      -9.837   5.364  66.921  1.00  0.00    -0.166 C  
HETATM    7  N   UNK A   0     -11.934   6.585  69.620  1.00  0.00    -0.520 NA 
HETATM    8  H   UNK A   0     -12.551   7.207  69.098  1.00  0.00     0.000 HD 
HETATM    9  H2  UNK A   0      -9.071   5.295  65.014  1.00  0.00     0.000 HD 
HETATM   10  C   UNK A   0     -10.940   5.868  68.958  1.00  0.00    -0.289 C  
HETATM   11  H   UNK A   0      -8.209   4.179  66.873  1.00  0.00     0.000 HD 
HETATM   12  C   UNK A   0     -10.048   5.108  69.644  1.00  0.00    -0.261 C  
HETATM   13  H1  UNK A   0     -10.506   6.300  65.192  1.00  0.00     0.000 HD 
HETATM   14  C   UNK A   0      -9.042   4.308  68.797  1.00  0.00    -0.128 C  
HETATM   15  N   UNK A   0     -10.842   5.955  67.601  1.00  0.00    -0.292 NA 
HETATM   16  N   UNK A   0      -9.807   5.682  65.605  1.00  0.00    -0.369 NA 
HETATM   17  N   UNK A   0      -8.954   4.583  67.443  1.00  0.00    -0.110 N  
ENDROOT
BRANCH   3  18
HETATM   18  C   UNK A   0      -9.860   7.499  71.773  1.00  0.00    -0.164 C  
BRANCH  18  19
HETATM   19  N   UNK A   0     -10.660   8.690  72.126  1.00  0.00    -0.341 NA 
HETATM   20  H   UNK A   0     -11.037   8.819  73.064  1.00  0.00     0.000 HD 
BRANCH  19  21
HETATM   21  C   UNK A   0     -10.877   9.633  71.110  1.00  0.00    -0.334 A  
HETATM   22  C   UNK A   0     -12.220  11.495  70.294  1.00  0.00    -0.415 A  
HETATM   23  C   UNK A   0     -11.387  11.611  69.181  1.00  0.00    -0.345 A  
HETATM   24  C   UNK A   0     -10.135   9.677  69.926  1.00  0.00    -0.279 A  
HETATM   25  C   UNK A   0     -11.968  10.501  71.244  1.00  0.00    -0.386 A  
HETATM   26  C   UNK A   0     -10.376  10.668  68.971  1.00  0.00    -0.237 A  
BRANCH  23  27
HETATM   27  C   UNK A   0     -11.597  12.726  68.222  1.00  0.00    -0.334 C  
ATOM     28  H   GLU A   1     -10.141  13.856  69.197  1.00  0.00     0.000 HD 
ATOM     29  N   GLU A   1     -10.832  13.859  68.447  1.00  0.00    -0.247 N  
HETATM   30  O   UNK A   0     -12.378  12.621  67.290  1.00  0.00    -0.352 OA 
BRANCH  29  31
ATOM     31  CA  GLU A   1     -10.998  15.075  67.620  1.00  0.00    -0.305 C  
ATOM     32  C   GLU A   1      -9.670  15.409  66.900  1.00  0.00    -0.231 C  
ATOM     33  O   GLU A   1      -8.640  14.601  67.243  1.00  0.00    -0.188 OA 
ATOM     34  OXT GLU A   1      -9.522  16.344  66.126  1.00  0.00    -0.295 OA 
BRANCH  31  35
ATOM     35  CB  GLU A   1     -11.464  16.248  68.502  1.00  0.00    -0.272 C  
BRANCH  35  36
ATOM     36  CG  GLU A   1     -10.933  16.186  69.939  1.00  0.00    -0.362 C  
ATOM     37  CD  GLU A   1     -11.929  15.596  70.905  1.00  0.00    -0.397 C  
ATOM     38  OE2 GLU A   1     -13.055  15.224  70.618  1.00  0.00    -0.402 OA 
ATOM     39  OE1 GLU A   1     -11.425  15.510  72.162  1.00  0.00    -0.432 OA 
ENDBRANCH  35  36
ENDBRANCH  31  35
ENDBRANCH  29  31
ENDBRANCH  23  27
ENDBRANCH  19  21
ENDBRANCH  18  19
ENDBRANCH   3  18
TORSDOF 7
ENDMDL
MODEL       68
REMARK 921   NORMALIZED FREE ENERGY PREDICTED BY IDOCK:   -6.40 KCAL/MOL
REMARK 922        TOTAL FREE ENERGY PREDICTED BY IDOCK:  -10.26 KCAL/MOL
REMARK 923 INTER-LIGAND FREE ENERGY PREDICTED BY IDOCK:   -9.30 KCAL/MOL
REMARK 924 INTRA-LIGAND FREE ENERGY PREDICTED BY IDOCK:   -0.96 KCAL/MOL
REMARK 927      BINDING AFFINITY PREDICTED BY RF-SCORE:    0.00 PKD
ROOT
HETATM    1  C   UNK A   0      -9.217   7.170  74.426  1.00  0.00    -0.175 C  
HETATM    2  N   UNK A   0      -9.369   6.588  73.101  1.00  0.00    -0.134 NA 
HETATM    3  C   UNK A   0     -10.486   5.624  72.883  1.00  0.00    -0.214 C  
HETATM    4  O   UNK A   0      -7.478   8.832  72.992  1.00  0.00    -0.360 OA 
HETATM    5  C   UNK A   0      -9.976   4.486  71.963  1.00  0.00    -0.191 C  
HETATM    6  C   UNK A   0      -7.320   7.866  69.718  1.00  0.00    -0.078 C  
HETATM    7  N   UNK A   0      -9.319   5.021  70.757  1.00  0.00    -0.147 NA 
HETATM    8  H   UNK A   0      -9.388   4.519  69.872  1.00  0.00     0.000 HD 
HETATM    9  H2  UNK A   0      -6.382   9.125  68.390  1.00  0.00     0.000 HD 
HETATM   10  C   UNK A   0      -8.602   6.213  70.832  1.00  0.00    -0.132 C  
HETATM   11  H   UNK A   0      -6.713   9.538  70.663  1.00  0.00     0.000 HD 
HETATM   12  C   UNK A   0      -8.576   6.945  71.976  1.00  0.00    -0.121 C  
HETATM   13  H1  UNK A   0      -6.960   7.617  67.688  1.00  0.00     0.000 HD 
HETATM   14  C   UNK A   0      -7.693   8.206  71.957  1.00  0.00    -0.108 C  
HETATM   15  N   UNK A   0      -7.942   6.669  69.730  1.00  0.00    -0.118 NA 
HETATM   16  N   UNK A   0      -6.852   8.226  68.499  1.00  0.00    -0.063 NA 
HETATM   17  N   UNK A   0      -7.184   8.636  70.743  1.00  0.00    -0.059 N  
ENDROOT
BRANCH   3  18
HETATM   18  C   UNK A   0     -11.714   6.347  72.266  1.00  0.00    -0.290 C  
BRANCH  18  19
HETATM   19  N   UNK A   0     -11.825   7.737  72.750  1.00  0.00    -0.598 NA 
HETATM   20  H   UNK A   0     -11.892   7.951  73.745  1.00  0.00     0.000 HD 
BRANCH  19  21
HETATM   21  C   UNK A   0     -11.836   8.750  71.780  1.00  0.00    -0.344 A  
HETATM   22  C   UNK A   0     -12.728  10.906  71.075  1.00  0.00    -0.505 A  
HETATM   23  C   UNK A   0     -11.909  10.877  69.945  1.00  0.00    -0.427 A  
HETATM   24  C   UNK A   0     -11.124   8.675  70.579  1.00  0.00    -0.268 A  
HETATM   25  C   UNK A   0     -12.695   9.838  71.977  1.00  0.00    -0.463 A  
HETATM   26  C   UNK A   0     -11.147   9.737  69.671  1.00  0.00    -0.251 A  
BRANCH  23  27
HETATM   27  C   UNK A   0     -11.873  12.052  69.037  1.00  0.00    -0.315 C  
ATOM     28  H   GLU A   1     -11.377  13.291  70.639  1.00  0.00     0.000 HD 
ATOM     29  N   GLU A   1     -11.596  13.267  69.643  1.00  0.00    -0.281 N  
HETATM   30  O   UNK A   0     -12.054  11.930  67.836  1.00  0.00    -0.558 OA 
BRANCH  29  31
ATOM     31  CA  GLU A   1     -11.609  14.531  68.874  1.00  0.00    -0.309 C  
ATOM     32  C   GLU A   1     -10.213  14.791  68.262  1.00  0.00    -0.227 C  
ATOM     33  O   GLU A   1      -9.275  13.887  68.627  1.00  0.00    -0.179 OA 
ATOM     34  OXT GLU A   1      -9.940  15.748  67.550  1.00  0.00    -0.232 OA 
BRANCH  31  35
ATOM     35  CB  GLU A   1     -12.044  15.693  69.785  1.00  0.00    -0.346 C  
BRANCH  35  36
ATOM     36  CG  GLU A   1     -13.093  15.295  70.831  1.00  0.00    -0.523 C  
ATOM     37  CD  GLU A   1     -12.633  15.549  72.245  1.00  0.00    -0.396 C  
ATOM     38  OE2 GLU A   1     -11.542  15.993  72.562  1.00  0.00    -0.433 OA 
ATOM     39  OE1 GLU A   1     -13.589  15.231  73.153  1.00  0.00    -0.459 OA 
ENDBRANCH  35  36
ENDBRANCH  31  35
ENDBRANCH  29  31
ENDBRANCH  23  27
ENDBRANCH  19  21
ENDBRANCH  18  19
ENDBRANCH   3  18
TORSDOF 7
ENDMDL
MODEL       69
REMARK 921   NORMALIZED FREE ENERGY PREDICTED BY IDOCK:   -6.39 KCAL/MOL
REMARK 922        TOTAL FREE ENERGY PREDICTED BY IDOCK:  -10.24 KCAL/MOL
REMARK 923 INTER-LIGAND FREE ENERGY PREDICTED BY IDOCK:   -9.04 KCAL/MOL
REMARK 924 INTRA-LIGAND FREE ENERGY PREDICTED BY IDOCK:   -1.20 KCAL/MOL
REMARK 927      BINDING AFFINITY PREDICTED BY RF-SCORE:    0.00 PKD
ROOT
HETATM    1  C   UNK A   0      -8.676   3.923  71.802  1.00  0.00    -0.099 C  
HETATM    2  N   UNK A   0      -9.600   4.969  71.389  1.00  0.00    -0.157 NA 
HETATM    3  C   UNK A   0     -10.110   5.905  72.432  1.00  0.00    -0.177 C  
HETATM    4  O   UNK A   0      -8.382   3.725  69.024  1.00  0.00    -0.071 OA 
HETATM    5  C   UNK A   0     -11.604   6.195  72.139  1.00  0.00    -0.317 C  
HETATM    6  C   UNK A   0     -10.447   5.936  67.436  1.00  0.00    -0.248 C  
HETATM    7  N   UNK A   0     -11.812   6.591  70.735  1.00  0.00    -0.371 NA 
HETATM    8  H   UNK A   0     -12.537   7.267  70.496  1.00  0.00     0.000 HD 
HETATM    9  H2  UNK A   0     -10.175   6.224  65.419  1.00  0.00     0.000 HD 
HETATM   10  C   UNK A   0     -11.013   6.039  69.736  1.00  0.00    -0.401 C  
HETATM   11  H   UNK A   0      -8.884   4.845  66.788  1.00  0.00     0.000 HD 
HETATM   12  C   UNK A   0      -9.980   5.211  70.040  1.00  0.00    -0.256 C  
HETATM   13  H1  UNK A   0     -11.520   7.123  66.113  1.00  0.00     0.000 HD 
HETATM   14  C   UNK A   0      -9.217   4.609  68.848  1.00  0.00    -0.129 C  
HETATM   15  N   UNK A   0     -11.253   6.360  68.433  1.00  0.00    -0.532 NA 
HETATM   16  N   UNK A   0     -10.743   6.474  66.229  1.00  0.00    -0.383 NA 
HETATM   17  N   UNK A   0      -9.464   5.115  67.583  1.00  0.00    -0.122 N  
ENDROOT
BRANCH   3  18
HETATM   18  C   UNK A   0      -9.270   7.211  72.445  1.00  0.00    -0.134 C  
BRANCH  18  19
HETATM   19  N   UNK A   0     -10.117   8.399  72.671  1.00  0.00    -0.285 NA 
HETATM   20  H   UNK A   0     -10.538   8.588  73.580  1.00  0.00     0.000 HD 
BRANCH  19  21
HETATM   21  C   UNK A   0     -10.315   9.255  71.578  1.00  0.00    -0.294 A  
HETATM   22  C   UNK A   0     -11.836  10.737  70.383  1.00  0.00    -0.450 A  
HETATM   23  C   UNK A   0     -10.827  11.040  69.469  1.00  0.00    -0.267 A  
HETATM   24  C   UNK A   0      -9.359   9.466  70.580  1.00  0.00    -0.319 A  
HETATM   25  C   UNK A   0     -11.579   9.839  71.423  1.00  0.00    -0.452 A  
HETATM   26  C   UNK A   0      -9.604  10.364  69.538  1.00  0.00    -0.182 A  
BRANCH  23  27
HETATM   27  C   UNK A   0     -11.070  12.065  68.422  1.00  0.00    -0.245 C  
ATOM     28  H   GLU A   1      -9.629  11.180  67.203  1.00  0.00     0.000 HD 
ATOM     29  N   GLU A   1     -10.278  11.962  67.289  1.00  0.00    -0.199 N  
HETATM   30  O   UNK A   0     -11.932  12.919  68.559  1.00  0.00    -0.309 OA 
BRANCH  29  31
ATOM     31  CA  GLU A   1     -10.355  12.963  66.204  1.00  0.00    -0.276 C  
ATOM     32  C   GLU A   1     -10.497  12.251  64.838  1.00  0.00    -0.289 C  
ATOM     33  O   GLU A   1     -10.427  10.902  64.911  1.00  0.00    -0.311 OA 
ATOM     34  OXT GLU A   1     -10.614  12.831  63.767  1.00  0.00    -0.412 OA 
BRANCH  31  35
ATOM     35  CB  GLU A   1      -9.107  13.865  66.234  1.00  0.00    -0.025 C  
BRANCH  35  36
ATOM     36  CG  GLU A   1      -9.346  15.223  66.904  1.00  0.00    -0.255 C  
ATOM     37  CD  GLU A   1      -9.963  16.235  65.970  1.00  0.00    -0.345 C  
ATOM     38  OE2 GLU A   1     -10.229  16.039  64.796  1.00  0.00    -0.425 OA 
ATOM     39  OE1 GLU A   1     -10.206  17.416  66.593  1.00  0.00    -0.305 OA 
ENDBRANCH  35  36
ENDBRANCH  31  35
ENDBRANCH  29  31
ENDBRANCH  23  27
ENDBRANCH  19  21
ENDBRANCH  18  19
ENDBRANCH   3  18
TORSDOF 7
ENDMDL
MODEL       70
REMARK 921   NORMALIZED FREE ENERGY PREDICTED BY IDOCK:   -6.37 KCAL/MOL
REMARK 922        TOTAL FREE ENERGY PREDICTED BY IDOCK:  -10.22 KCAL/MOL
REMARK 923 INTER-LIGAND FREE ENERGY PREDICTED BY IDOCK:   -9.40 KCAL/MOL
REMARK 924 INTRA-LIGAND FREE ENERGY PREDICTED BY IDOCK:   -0.82 KCAL/MOL
REMARK 927      BINDING AFFINITY PREDICTED BY RF-SCORE:    0.00 PKD
ROOT
HETATM    1  C   UNK A   0      -7.616  11.015  67.361  1.00  0.00    -0.110 C  
HETATM    2  N   UNK A   0      -8.954  10.561  67.706  1.00  0.00    -0.132 NA 
HETATM    3  C   UNK A   0      -9.918  11.564  68.244  1.00  0.00    -0.202 C  
HETATM    4  O   UNK A   0      -7.564   8.485  66.163  1.00  0.00    -0.087 OA 
HETATM    5  C   UNK A   0     -10.748  10.890  69.367  1.00  0.00    -0.225 C  
HETATM    6  C   UNK A   0     -10.496   6.826  66.734  1.00  0.00    -0.228 C  
HETATM    7  N   UNK A   0     -11.311   9.603  68.923  1.00  0.00    -0.464 NA 
HETATM    8  H   UNK A   0     -12.220   9.295  69.269  1.00  0.00     0.000 HD 
HETATM    9  H2  UNK A   0     -10.839   5.094  65.680  1.00  0.00     0.000 HD 
HETATM   10  C   UNK A   0     -10.597   8.809  68.029  1.00  0.00    -0.159 C  
HETATM   11  H   UNK A   0      -8.977   6.482  65.457  1.00  0.00     0.000 HD 
HETATM   12  C   UNK A   0      -9.432   9.240  67.482  1.00  0.00    -0.132 C  
HETATM   13  H1  UNK A   0     -12.097   5.508  66.840  1.00  0.00     0.000 HD 
HETATM   14  C   UNK A   0      -8.701   8.245  66.564  1.00  0.00    -0.141 C  
HETATM   15  N   UNK A   0     -11.093   7.589  67.673  1.00  0.00    -0.512 NA 
HETATM   16  N   UNK A   0     -11.205   5.723  66.395  1.00  0.00    -0.744 NA 
HETATM   17  N   UNK A   0      -9.368   7.097  66.172  1.00  0.00    -0.360 N  
ENDROOT
BRANCH   3  18
HETATM   18  C   UNK A   0     -10.830  12.103  67.108  1.00  0.00    -0.244 C  
BRANCH  18  19
HETATM   19  N   UNK A   0     -10.041  12.734  66.032  1.00  0.00    -0.265 NA 
HETATM   20  H   UNK A   0      -9.704  12.197  65.233  1.00  0.00     0.000 HD 
BRANCH  19  21
HETATM   21  C   UNK A   0      -9.774  14.106  66.160  1.00  0.00    -0.290 A  
HETATM   22  C   UNK A   0      -8.269  15.834  66.988  1.00  0.00    -0.262 A  
HETATM   23  C   UNK A   0      -9.089  16.817  66.433  1.00  0.00    -0.321 A  
HETATM   24  C   UNK A   0     -10.650  15.106  65.728  1.00  0.00    -0.364 A  
HETATM   25  C   UNK A   0      -8.622  14.487  66.859  1.00  0.00    -0.207 A  
HETATM   26  C   UNK A   0     -10.306  16.454  65.848  1.00  0.00    -0.378 A  
BRANCH  23  27
HETATM   27  C   UNK A   0      -8.666  18.240  66.487  1.00  0.00    -0.274 C  
ATOM     28  H   GLU A   1      -6.798  17.728  65.715  1.00  0.00     0.000 HD 
ATOM     29  N   GLU A   1      -7.366  18.493  66.078  1.00  0.00    -0.255 N  
HETATM   30  O   UNK A   0      -9.435  19.116  66.848  1.00  0.00    -0.300 OA 
BRANCH  29  31
ATOM     31  CA  GLU A   1      -6.786  19.851  66.158  1.00  0.00    -0.228 C  
ATOM     32  C   GLU A   1      -6.192  20.253  64.788  1.00  0.00    -0.280 C  
ATOM     33  O   GLU A   1      -6.240  19.271  63.858  1.00  0.00    -0.390 OA 
ATOM     34  OXT GLU A   1      -5.674  21.336  64.551  1.00  0.00    -0.219 OA 
BRANCH  31  35
ATOM     35  CB  GLU A   1      -5.716  19.899  67.264  1.00  0.00    -0.176 C  
BRANCH  35  36
ATOM     36  CG  GLU A   1      -6.169  20.643  68.526  1.00  0.00    -0.355 C  
ATOM     37  CD  GLU A   1      -6.173  19.765  69.752  1.00  0.00    -0.342 C  
ATOM     38  OE2 GLU A   1      -5.883  18.580  69.772  1.00  0.00    -0.239 OA 
ATOM     39  OE1 GLU A   1      -6.535  20.451  70.866  1.00  0.00    -0.514 OA 
ENDBRANCH  35  36
ENDBRANCH  31  35
ENDBRANCH  29  31
ENDBRANCH  23  27
ENDBRANCH  19  21
ENDBRANCH  18  19
ENDBRANCH   3  18
TORSDOF 7
ENDMDL
MODEL       71
REMARK 921   NORMALIZED FREE ENERGY PREDICTED BY IDOCK:   -6.37 KCAL/MOL
REMARK 922        TOTAL FREE ENERGY PREDICTED BY IDOCK:  -10.21 KCAL/MOL
REMARK 923 INTER-LIGAND FREE ENERGY PREDICTED BY IDOCK:   -9.25 KCAL/MOL
REMARK 924 INTRA-LIGAND FREE ENERGY PREDICTED BY IDOCK:   -0.97 KCAL/MOL
REMARK 927      BINDING AFFINITY PREDICTED BY RF-SCORE:    0.00 PKD
ROOT
HETATM    1  C   UNK A   0     -12.214   6.752  70.915  1.00  0.00    -0.331 C  
HETATM    2  N   UNK A   0     -11.118   6.093  70.220  1.00  0.00    -0.347 NA 
HETATM    3  C   UNK A   0     -10.922   6.396  68.773  1.00  0.00    -0.334 C  
HETATM    4  O   UNK A   0     -10.830   5.717  73.119  1.00  0.00    -0.245 OA 
HETATM    5  C   UNK A   0     -10.523   5.085  68.050  1.00  0.00     0.044 C  
HETATM    6  C   UNK A   0      -8.115   3.913  72.093  1.00  0.00    -0.084 C  
HETATM    7  N   UNK A   0      -9.412   4.405  68.740  1.00  0.00    -0.152 NA 
HETATM    8  H   UNK A   0      -8.720   3.883  68.203  1.00  0.00     0.000 HD 
HETATM    9  H2  UNK A   0      -6.751   3.337  73.520  1.00  0.00     0.000 HD 
HETATM   10  C   UNK A   0      -9.312   4.479  70.127  1.00  0.00    -0.147 C  
HETATM   11  H   UNK A   0      -8.656   4.632  73.895  1.00  0.00     0.000 HD 
HETATM   12  C   UNK A   0     -10.166   5.246  70.853  1.00  0.00    -0.234 C  
HETATM   13  H1  UNK A   0      -6.395   2.767  71.893  1.00  0.00     0.000 HD 
HETATM   14  C   UNK A   0     -10.000   5.191  72.381  1.00  0.00    -0.179 C  
HETATM   15  N   UNK A   0      -8.321   3.794  70.765  1.00  0.00    -0.068 NA 
HETATM   16  N   UNK A   0      -6.997   3.287  72.531  1.00  0.00    -0.037 NA 
HETATM   17  N   UNK A   0      -8.876   4.570  72.900  1.00  0.00    -0.115 N  
ENDROOT
BRANCH   3  18
HETATM   18  C   UNK A   0      -9.844   7.498  68.591  1.00  0.00    -0.165 C  
BRANCH  18  19
HETATM   19  N   UNK A   0      -9.961   8.160  67.277  1.00  0.00    -0.194 NA 
HETATM   20  H   UNK A   0      -9.717   7.677  66.413  1.00  0.00     0.000 HD 
BRANCH  19  21
HETATM   21  C   UNK A   0     -10.423   9.485  67.271  1.00  0.00    -0.262 A  
HETATM   22  C   UNK A   0     -11.475  11.295  68.518  1.00  0.00    -0.372 A  
HETATM   23  C   UNK A   0     -11.332  12.140  67.417  1.00  0.00    -0.393 A  
HETATM   24  C   UNK A   0     -10.409  10.302  66.137  1.00  0.00    -0.253 A  
HETATM   25  C   UNK A   0     -11.031   9.972  68.435  1.00  0.00    -0.266 A  
HETATM   26  C   UNK A   0     -10.847  11.627  66.209  1.00  0.00    -0.333 A  
BRANCH  23  27
HETATM   27  C   UNK A   0     -11.716  13.569  67.535  1.00  0.00    -0.367 C  
ATOM     28  H   GLU A   1     -10.663  13.717  69.329  1.00  0.00     0.000 HD 
ATOM     29  N   GLU A   1     -11.266  14.216  68.675  1.00  0.00    -0.252 N  
HETATM   30  O   UNK A   0     -12.364  14.126  66.663  1.00  0.00    -0.455 OA 
BRANCH  29  31
ATOM     31  CA  GLU A   1     -11.642  15.618  68.963  1.00  0.00    -0.386 C  
ATOM     32  C   GLU A   1     -10.382  16.513  68.964  1.00  0.00    -0.296 C  
ATOM     33  O   GLU A   1      -9.223  15.833  68.802  1.00  0.00    -0.191 OA 
ATOM     34  OXT GLU A   1     -10.396  17.724  69.144  1.00  0.00    -0.350 OA 
BRANCH  31  35
ATOM     35  CB  GLU A   1     -12.381  15.694  70.312  1.00  0.00    -0.402 C  
BRANCH  35  36
ATOM     36  CG  GLU A   1     -12.657  14.322  70.940  1.00  0.00    -0.426 C  
ATOM     37  CD  GLU A   1     -13.652  14.388  72.072  1.00  0.00    -0.424 C  
ATOM     38  OE2 GLU A   1     -14.178  15.407  72.490  1.00  0.00    -0.523 OA 
ATOM     39  OE1 GLU A   1     -13.916  13.161  72.587  1.00  0.00    -0.708 OA 
ENDBRANCH  35  36
ENDBRANCH  31  35
ENDBRANCH  29  31
ENDBRANCH  23  27
ENDBRANCH  19  21
ENDBRANCH  18  19
ENDBRANCH   3  18
TORSDOF 7
ENDMDL
MODEL       72
REMARK 921   NORMALIZED FREE ENERGY PREDICTED BY IDOCK:   -6.33 KCAL/MOL
REMARK 922        TOTAL FREE ENERGY PREDICTED BY IDOCK:  -10.15 KCAL/MOL
REMARK 923 INTER-LIGAND FREE ENERGY PREDICTED BY IDOCK:   -8.93 KCAL/MOL
REMARK 924 INTRA-LIGAND FREE ENERGY PREDICTED BY IDOCK:   -1.23 KCAL/MOL
REMARK 927      BINDING AFFINITY PREDICTED BY RF-SCORE:    0.00 PKD
ROOT
HETATM    1  C   UNK A   0     -10.532   8.171  67.097  1.00  0.00    -0.326 C  
HETATM    2  N   UNK A   0      -9.822   9.417  66.852  1.00  0.00    -0.186 NA 
HETATM    3  C   UNK A   0     -10.230  10.236  65.675  1.00  0.00    -0.231 C  
HETATM    4  O   UNK A   0      -9.157   8.401  69.526  1.00  0.00    -0.151 OA 
HETATM    5  C   UNK A   0      -8.953  10.829  65.026  1.00  0.00    -0.194 C  
HETATM    6  C   UNK A   0      -7.166  11.177  69.521  1.00  0.00    -0.057 C  
HETATM    7  N   UNK A   0      -8.097  11.489  66.027  1.00  0.00    -0.378 NA 
HETATM    8  H   UNK A   0      -7.552  12.312  65.770  1.00  0.00     0.000 HD 
HETATM    9  H2  UNK A   0      -6.318  11.753  71.303  1.00  0.00     0.000 HD 
HETATM   10  C   UNK A   0      -8.034  10.984  67.323  1.00  0.00    -0.126 C  
HETATM   11  H   UNK A   0      -7.775   9.956  71.002  1.00  0.00     0.000 HD 
HETATM   12  C   UNK A   0      -8.822   9.949  67.712  1.00  0.00    -0.129 C  
HETATM   13  H1  UNK A   0      -5.861  12.742  69.920  1.00  0.00     0.000 HD 
HETATM   14  C   UNK A   0      -8.612   9.435  69.147  1.00  0.00    -0.140 C  
HETATM   15  N   UNK A   0      -7.190  11.559  68.227  1.00  0.00    -0.078 NA 
HETATM   16  N   UNK A   0      -6.384  11.956  70.305  1.00  0.00    -0.450 NA 
HETATM   17  N   UNK A   0      -7.828  10.184  70.008  1.00  0.00    -0.287 N  
ENDROOT
BRANCH   3  18
HETATM   18  C   UNK A   0     -11.219  11.353  66.108  1.00  0.00    -0.137 C  
BRANCH  18  19
HETATM   19  N   UNK A   0     -11.567  12.238  64.979  1.00  0.00    -0.342 NA 
HETATM   20  H   UNK A   0     -11.967  11.869  64.116  1.00  0.00     0.000 HD 
BRANCH  19  21
HETATM   21  C   UNK A   0     -11.321  13.609  65.146  1.00  0.00    -0.309 A  
HETATM   22  C   UNK A   0     -10.362  15.366  66.536  1.00  0.00    -0.293 A  
HETATM   23  C   UNK A   0     -10.710  16.318  65.577  1.00  0.00    -0.326 A  
HETATM   24  C   UNK A   0     -11.779  14.589  64.260  1.00  0.00    -0.312 A  
HETATM   25  C   UNK A   0     -10.679  14.021  66.321  1.00  0.00    -0.289 A  
HETATM   26  C   UNK A   0     -11.465  15.935  64.463  1.00  0.00    -0.287 A  
BRANCH  23  27
HETATM   27  C   UNK A   0     -10.289  17.730  65.760  1.00  0.00    -0.186 C  
ATOM     28  H   GLU A   1      -8.669  17.111  66.918  1.00  0.00     0.000 HD 
ATOM     29  N   GLU A   1      -9.171  17.922  66.556  1.00  0.00    -0.278 N  
HETATM   30  O   UNK A   0     -10.887  18.645  65.217  1.00  0.00    -0.591 OA 
BRANCH  29  31
ATOM     31  CA  GLU A   1      -8.690  19.280  66.891  1.00  0.00    -0.299 C  
ATOM     32  C   GLU A   1      -7.473  19.642  66.007  1.00  0.00    -0.311 C  
ATOM     33  O   GLU A   1      -7.056  18.635  65.205  1.00  0.00    -0.513 OA 
ATOM     34  OXT GLU A   1      -6.888  20.716  66.045  1.00  0.00    -0.232 OA 
BRANCH  31  35
ATOM     35  CB  GLU A   1      -8.334  19.355  68.387  1.00  0.00    -0.385 C  
BRANCH  35  36
ATOM     36  CG  GLU A   1      -7.205  18.403  68.799  1.00  0.00    -0.300 C  
ATOM     37  CD  GLU A   1      -6.241  19.028  69.775  1.00  0.00    -0.239 C  
ATOM     38  OE2 GLU A   1      -6.303  20.173  70.192  1.00  0.00    -0.365 OA 
ATOM     39  OE1 GLU A   1      -5.274  18.158  70.161  1.00  0.00    -0.200 OA 
ENDBRANCH  35  36
ENDBRANCH  31  35
ENDBRANCH  29  31
ENDBRANCH  23  27
ENDBRANCH  19  21
ENDBRANCH  18  19
ENDBRANCH   3  18
TORSDOF 7
ENDMDL
MODEL       73
REMARK 921   NORMALIZED FREE ENERGY PREDICTED BY IDOCK:   -6.33 KCAL/MOL
REMARK 922        TOTAL FREE ENERGY PREDICTED BY IDOCK:  -10.15 KCAL/MOL
REMARK 923 INTER-LIGAND FREE ENERGY PREDICTED BY IDOCK:   -9.57 KCAL/MOL
REMARK 924 INTRA-LIGAND FREE ENERGY PREDICTED BY IDOCK:   -0.58 KCAL/MOL
REMARK 927      BINDING AFFINITY PREDICTED BY RF-SCORE:    0.00 PKD
ROOT
HETATM    1  C   UNK A   0      -8.508  13.383  68.187  1.00  0.00    -0.172 C  
HETATM    2  N   UNK A   0      -9.773  12.819  67.741  1.00  0.00    -0.201 NA 
HETATM    3  C   UNK A   0     -10.543  11.978  68.703  1.00  0.00    -0.229 C  
HETATM    4  O   UNK A   0      -8.857  14.849  65.827  1.00  0.00     0.154 OA 
HETATM    5  C   UNK A   0     -11.165  10.791  67.923  1.00  0.00    -0.318 C  
HETATM    6  C   UNK A   0     -11.706  13.869  64.215  1.00  0.00    -0.380 C  
HETATM    7  N   UNK A   0     -11.885  11.252  66.723  1.00  0.00    -0.245 NA 
HETATM    8  H   UNK A   0     -12.720  10.760  66.407  1.00  0.00     0.000 HD 
HETATM    9  H2  UNK A   0     -12.363  15.019  62.642  1.00  0.00     0.000 HD 
HETATM   10  C   UNK A   0     -11.419  12.362  66.022  1.00  0.00    -0.382 C  
HETATM   11  H   UNK A   0     -10.504  15.467  63.980  1.00  0.00     0.000 HD 
HETATM   12  C   UNK A   0     -10.366  13.088  66.477  1.00  0.00    -0.274 C  
HETATM   13  H1  UNK A   0     -13.329  13.581  62.953  1.00  0.00     0.000 HD 
HETATM   14  C   UNK A   0      -9.900  14.248  65.579  1.00  0.00    -0.252 C  
HETATM   15  N   UNK A   0     -12.050  12.744  64.876  1.00  0.00    -0.412 NA 
HETATM   16  N   UNK A   0     -12.535  14.175  63.189  1.00  0.00    -1.037 NA 
HETATM   17  N   UNK A   0     -10.702  14.620  64.514  1.00  0.00    -0.610 N  
ENDROOT
BRANCH   3  18
HETATM   18  C   UNK A   0     -11.633  12.827  69.412  1.00  0.00    -0.298 C  
BRANCH  18  19
HETATM   19  N   UNK A   0     -11.038  13.917  70.210  1.00  0.00    -0.411 NA 
HETATM   20  H   UNK A   0     -10.840  13.802  71.204  1.00  0.00     0.000 HD 
BRANCH  19  21
HETATM   21  C   UNK A   0     -10.760  15.117  69.540  1.00  0.00    -0.266 A  
HETATM   22  C   UNK A   0      -9.174  16.925  69.144  1.00  0.00    -0.105 A  
HETATM   23  C   UNK A   0     -10.049  17.492  68.217  1.00  0.00    -0.346 A  
HETATM   24  C   UNK A   0     -11.677  15.768  68.710  1.00  0.00    -0.387 A  
HETATM   25  C   UNK A   0      -9.539  15.750  69.808  1.00  0.00    -0.144 A  
HETATM   26  C   UNK A   0     -11.322  16.941  68.039  1.00  0.00     0.073 A  
BRANCH  23  27
HETATM   27  C   UNK A   0      -9.623  18.686  67.442  1.00  0.00    -0.296 C  
ATOM     28  H   GLU A   1      -7.684  17.929  67.319  1.00  0.00     0.000 HD 
ATOM     29  N   GLU A   1      -8.283  18.723  67.091  1.00  0.00    -0.261 N  
HETATM   30  O   UNK A   0     -10.421  19.553  67.126  1.00  0.00    -0.413 OA 
BRANCH  29  31
ATOM     31  CA  GLU A   1      -7.704  19.890  66.391  1.00  0.00    -0.304 C  
ATOM     32  C   GLU A   1      -6.745  19.414  65.274  1.00  0.00    -0.231 C  
ATOM     33  O   GLU A   1      -6.568  18.073  65.235  1.00  0.00    -0.350 OA 
ATOM     34  OXT GLU A   1      -6.148  20.163  64.513  1.00  0.00    -0.248 OA 
BRANCH  31  35
ATOM     35  CB  GLU A   1      -6.976  20.797  67.401  1.00  0.00    -0.418 C  
BRANCH  35  36
ATOM     36  CG  GLU A   1      -5.845  20.091  68.158  1.00  0.00    -0.260 C  
ATOM     37  CD  GLU A   1      -6.257  19.645  69.539  1.00  0.00    -0.314 C  
ATOM     38  OE2 GLU A   1      -7.352  19.833  70.044  1.00  0.00    -0.037 OA 
ATOM     39  OE1 GLU A   1      -5.258  18.985  70.177  1.00  0.00    -0.192 OA 
ENDBRANCH  35  36
ENDBRANCH  31  35
ENDBRANCH  29  31
ENDBRANCH  23  27
ENDBRANCH  19  21
ENDBRANCH  18  19
ENDBRANCH   3  18
TORSDOF 7
ENDMDL
MODEL       74
REMARK 921   NORMALIZED FREE ENERGY PREDICTED BY IDOCK:   -6.33 KCAL/MOL
REMARK 922        TOTAL FREE ENERGY PREDICTED BY IDOCK:  -10.15 KCAL/MOL
REMARK 923 INTER-LIGAND FREE ENERGY PREDICTED BY IDOCK:   -9.55 KCAL/MOL
REMARK 924 INTRA-LIGAND FREE ENERGY PREDICTED BY IDOCK:   -0.59 KCAL/MOL
REMARK 927      BINDING AFFINITY PREDICTED BY RF-SCORE:    0.00 PKD
ROOT
HETATM    1  C   UNK A   0     -10.985  14.494  69.193  1.00  0.00    -0.268 C  
HETATM    2  N   UNK A   0     -10.452  14.934  67.913  1.00  0.00    -0.248 NA 
HETATM    3  C   UNK A   0      -9.073  15.501  67.884  1.00  0.00    -0.175 C  
HETATM    4  O   UNK A   0     -12.900  13.368  67.489  1.00  0.00     0.537 OA 
HETATM    5  C   UNK A   0      -9.055  16.692  66.892  1.00  0.00    -0.228 C  
HETATM    6  C   UNK A   0     -12.230  14.167  64.235  1.00  0.00    -0.420 C  
HETATM    7  N   UNK A   0      -9.645  16.321  65.594  1.00  0.00    -0.487 NA 
HETATM    8  H   UNK A   0      -9.285  16.732  64.733  1.00  0.00     0.000 HD 
HETATM    9  H2  UNK A   0     -13.288  13.187  62.769  1.00  0.00     0.000 HD 
HETATM   10  C   UNK A   0     -10.696  15.408  65.548  1.00  0.00    -0.384 C  
HETATM   11  H   UNK A   0     -13.465  12.809  65.065  1.00  0.00     0.000 HD 
HETATM   12  C   UNK A   0     -11.127  14.778  66.671  1.00  0.00    -0.333 C  
HETATM   13  H1  UNK A   0     -12.170  14.410  62.174  1.00  0.00     0.000 HD 
HETATM   14  C   UNK A   0     -12.340  13.845  66.504  1.00  0.00    -0.404 C  
HETATM   15  N   UNK A   0     -11.280  15.119  64.351  1.00  0.00    -0.676 NA 
HETATM   16  N   UNK A   0     -12.587  13.905  62.955  1.00  0.00    -0.908 NA 
HETATM   17  N   UNK A   0     -12.758  13.529  65.223  1.00  0.00    -0.657 N  
ENDROOT
BRANCH   3  18
HETATM   18  C   UNK A   0      -8.046  14.409  67.480  1.00  0.00    -0.190 C  
BRANCH  18  19
HETATM   19  N   UNK A   0      -8.568  13.544  66.404  1.00  0.00    -0.371 NA 
HETATM   20  H   UNK A   0      -8.608  13.863  65.436  1.00  0.00     0.000 HD 
BRANCH  19  21
HETATM   21  C   UNK A   0      -9.008  12.264  66.774  1.00  0.00    -0.209 A  
HETATM   22  C   UNK A   0      -9.119  10.555  68.507  1.00  0.00    -0.154 A  
HETATM   23  C   UNK A   0      -9.882   9.746  67.664  1.00  0.00    -0.202 A  
HETATM   24  C   UNK A   0      -9.658  11.389  65.899  1.00  0.00    -0.254 A  
HETATM   25  C   UNK A   0      -8.677  11.801  68.054  1.00  0.00    -0.167 A  
HETATM   26  C   UNK A   0     -10.107  10.142  66.342  1.00  0.00    -0.300 A  
BRANCH  23  27
HETATM   27  C   UNK A   0     -10.432   8.466  68.178  1.00  0.00    -0.174 C  
ATOM     28  H   GLU A   1     -10.517   9.259  70.104  1.00  0.00     0.000 HD 
ATOM     29  N   GLU A   1     -10.668   8.421  69.542  1.00  0.00    -0.210 N  
HETATM   30  O   UNK A   0     -10.674   7.534  67.427  1.00  0.00    -0.280 OA 
BRANCH  29  31
ATOM     31  CA  GLU A   1     -11.136   7.182  70.201  1.00  0.00    -0.272 C  
ATOM     32  C   GLU A   1     -12.279   7.510  71.192  1.00  0.00    -0.301 C  
ATOM     33  O   GLU A   1     -12.537   8.832  71.315  1.00  0.00    -0.306 OA 
ATOM     34  OXT GLU A   1     -12.878   6.674  71.854  1.00  0.00    -0.328 OA 
BRANCH  31  35
ATOM     35  CB  GLU A   1      -9.959   6.494  70.916  1.00  0.00    -0.204 C  
BRANCH  35  36
ATOM     36  CG  GLU A   1      -8.839   7.458  71.325  1.00  0.00    -0.138 C  
ATOM     37  CD  GLU A   1      -8.916   7.860  72.776  1.00  0.00    -0.198 C  
ATOM     38  OE2 GLU A   1      -9.777   7.503  73.563  1.00  0.00    -0.261 OA 
ATOM     39  OE1 GLU A   1      -7.892   8.679  73.129  1.00  0.00    -0.385 OA 
ENDBRANCH  35  36
ENDBRANCH  31  35
ENDBRANCH  29  31
ENDBRANCH  23  27
ENDBRANCH  19  21
ENDBRANCH  18  19
ENDBRANCH   3  18
TORSDOF 7
ENDMDL
MODEL       75
REMARK 921   NORMALIZED FREE ENERGY PREDICTED BY IDOCK:   -6.31 KCAL/MOL
REMARK 922        TOTAL FREE ENERGY PREDICTED BY IDOCK:  -10.13 KCAL/MOL
REMARK 923 INTER-LIGAND FREE ENERGY PREDICTED BY IDOCK:   -9.32 KCAL/MOL
REMARK 924 INTRA-LIGAND FREE ENERGY PREDICTED BY IDOCK:   -0.80 KCAL/MOL
REMARK 927      BINDING AFFINITY PREDICTED BY RF-SCORE:    0.00 PKD
ROOT
HETATM    1  C   UNK A   0     -13.443   9.271  71.727  1.00  0.00    -0.415 C  
HETATM    2  N   UNK A   0     -12.292   9.819  71.024  1.00  0.00    -0.322 NA 
HETATM    3  C   UNK A   0     -12.512  10.987  70.124  1.00  0.00    -0.269 C  
HETATM    4  O   UNK A   0     -11.393   7.953  73.106  1.00  0.00    -0.361 OA 
HETATM    5  C   UNK A   0     -11.627  10.805  68.864  1.00  0.00    -0.291 C  
HETATM    6  C   UNK A   0      -8.345   8.777  71.802  1.00  0.00    -0.094 C  
HETATM    7  N   UNK A   0     -10.231  10.501  69.225  1.00  0.00    -0.219 NA 
HETATM    8  H   UNK A   0      -9.466  10.839  68.642  1.00  0.00     0.000 HD 
HETATM    9  H2  UNK A   0      -6.668   8.210  72.849  1.00  0.00     0.000 HD 
HETATM   10  C   UNK A   0      -9.961   9.748  70.366  1.00  0.00    -0.233 C  
HETATM   11  H   UNK A   0      -8.877   7.861  73.515  1.00  0.00     0.000 HD 
HETATM   12  C   UNK A   0     -10.956   9.367  71.208  1.00  0.00    -0.370 C  
HETATM   13  H1  UNK A   0      -6.339   9.022  71.322  1.00  0.00     0.000 HD 
HETATM   14  C   UNK A   0     -10.541   8.480  72.394  1.00  0.00    -0.298 C  
HETATM   15  N   UNK A   0      -8.672   9.414  70.658  1.00  0.00    -0.229 NA 
HETATM   16  N   UNK A   0      -7.010   8.663  72.001  1.00  0.00    -0.185 NA 
HETATM   17  N   UNK A   0      -9.192   8.323  72.661  1.00  0.00    -0.259 N  
ENDROOT
BRANCH   3  18
HETATM   18  C   UNK A   0     -12.182  12.311  70.864  1.00  0.00    -0.197 C  
BRANCH  18  19
HETATM   19  N   UNK A   0     -12.834  13.469  70.221  1.00  0.00    -0.038 NA 
HETATM   20  H   UNK A   0     -13.817  13.688  70.387  1.00  0.00     0.000 HD 
BRANCH  19  21
HETATM   21  C   UNK A   0     -12.042  14.254  69.370  1.00  0.00    -0.318 A  
HETATM   22  C   UNK A   0     -11.286  14.690  67.095  1.00  0.00    -0.365 A  
HETATM   23  C   UNK A   0     -10.547  15.783  67.547  1.00  0.00    -0.309 A  
HETATM   24  C   UNK A   0     -11.192  15.267  69.824  1.00  0.00    -0.300 A  
HETATM   25  C   UNK A   0     -12.018  13.926  68.008  1.00  0.00    -0.390 A  
HETATM   26  C   UNK A   0     -10.458  16.039  68.920  1.00  0.00    -0.245 A  
BRANCH  23  27
HETATM   27  C   UNK A   0      -9.847  16.651  66.566  1.00  0.00    -0.281 C  
ATOM     28  H   GLU A   1      -8.559  17.325  68.062  1.00  0.00     0.000 HD 
ATOM     29  N   GLU A   1      -8.819  17.426  67.080  1.00  0.00    -0.227 N  
HETATM   30  O   UNK A   0     -10.155  16.649  65.385  1.00  0.00    -0.578 OA 
BRANCH  29  31
ATOM     31  CA  GLU A   1      -8.091  18.397  66.235  1.00  0.00    -0.221 C  
ATOM     32  C   GLU A   1      -6.625  17.941  66.049  1.00  0.00    -0.281 C  
ATOM     33  O   GLU A   1      -6.300  16.834  66.757  1.00  0.00    -0.185 OA 
ATOM     34  OXT GLU A   1      -5.799  18.535  65.371  1.00  0.00    -0.191 OA 
BRANCH  31  35
ATOM     35  CB  GLU A   1      -8.163  19.799  66.867  1.00  0.00    -0.342 C  
BRANCH  35  36
ATOM     36  CG  GLU A   1      -7.511  19.882  68.253  1.00  0.00    -0.319 C  
ATOM     37  CD  GLU A   1      -6.286  20.763  68.269  1.00  0.00    -0.334 C  
ATOM     38  OE2 GLU A   1      -5.818  21.338  67.300  1.00  0.00    -0.271 OA 
ATOM     39  OE1 GLU A   1      -5.748  20.858  69.511  1.00  0.00    -0.382 OA 
ENDBRANCH  35  36
ENDBRANCH  31  35
ENDBRANCH  29  31
ENDBRANCH  23  27
ENDBRANCH  19  21
ENDBRANCH  18  19
ENDBRANCH   3  18
TORSDOF 7
ENDMDL
MODEL       76
REMARK 921   NORMALIZED FREE ENERGY PREDICTED BY IDOCK:   -6.31 KCAL/MOL
REMARK 922        TOTAL FREE ENERGY PREDICTED BY IDOCK:  -10.12 KCAL/MOL
REMARK 923 INTER-LIGAND FREE ENERGY PREDICTED BY IDOCK:   -9.08 KCAL/MOL
REMARK 924 INTRA-LIGAND FREE ENERGY PREDICTED BY IDOCK:   -1.04 KCAL/MOL
REMARK 927      BINDING AFFINITY PREDICTED BY RF-SCORE:    0.00 PKD
ROOT
HETATM    1  C   UNK A   0     -13.487   8.965  71.486  1.00  0.00    -0.332 C  
HETATM    2  N   UNK A   0     -12.298   9.570  70.907  1.00  0.00    -0.429 NA 
HETATM    3  C   UNK A   0     -12.476  10.747  70.008  1.00  0.00    -0.248 C  
HETATM    4  O   UNK A   0     -11.528   7.699  73.035  1.00  0.00    -0.342 OA 
HETATM    5  C   UNK A   0     -11.469  10.625  68.837  1.00  0.00    -0.265 C  
HETATM    6  C   UNK A   0      -8.404   8.664  72.044  1.00  0.00    -0.102 C  
HETATM    7  N   UNK A   0     -10.103  10.367  69.326  1.00  0.00    -0.220 NA 
HETATM    8  H   UNK A   0      -9.300  10.746  68.825  1.00  0.00     0.000 HD 
HETATM    9  H2  UNK A   0      -6.814   8.141  73.238  1.00  0.00     0.000 HD 
HETATM   10  C   UNK A   0      -9.913   9.602  70.475  1.00  0.00    -0.254 C  
HETATM   11  H   UNK A   0      -9.060   7.695  73.682  1.00  0.00     0.000 HD 
HETATM   12  C   UNK A   0     -10.968   9.167  71.210  1.00  0.00    -0.330 C  
HETATM   13  H1  UNK A   0      -6.373   8.996  71.763  1.00  0.00     0.000 HD 
HETATM   14  C   UNK A   0     -10.634   8.272  72.417  1.00  0.00    -0.337 C  
HETATM   15  N   UNK A   0      -8.645   9.312  70.885  1.00  0.00    -0.251 NA 
HETATM   16  N   UNK A   0      -7.091   8.598  72.369  1.00  0.00    -0.270 NA 
HETATM   17  N   UNK A   0      -9.311   8.162  72.810  1.00  0.00    -0.254 N  
ENDROOT
BRANCH   3  18
HETATM   18  C   UNK A   0     -12.273  12.068  70.799  1.00  0.00    -0.286 C  
BRANCH  18  19
HETATM   19  N   UNK A   0     -12.772  13.235  70.044  1.00  0.00     0.039 NA 
HETATM   20  H   UNK A   0     -13.770  13.428  69.961  1.00  0.00     0.000 HD 
BRANCH  19  21
HETATM   21  C   UNK A   0     -11.812  14.064  69.447  1.00  0.00    -0.333 A  
HETATM   22  C   UNK A   0     -10.784  14.857  67.384  1.00  0.00    -0.292 A  
HETATM   23  C   UNK A   0      -9.973  15.722  68.118  1.00  0.00    -0.214 A  
HETATM   24  C   UNK A   0     -10.901  14.838  70.173  1.00  0.00    -0.107 A  
HETATM   25  C   UNK A   0     -11.688  14.026  68.052  1.00  0.00    -0.394 A  
HETATM   26  C   UNK A   0      -9.995  15.674  69.516  1.00  0.00    -0.285 A  
BRANCH  23  27
HETATM   27  C   UNK A   0      -9.081  16.672  67.405  1.00  0.00    -0.201 C  
ATOM     28  H   GLU A   1      -8.465  17.481  69.226  1.00  0.00     0.000 HD 
ATOM     29  N   GLU A   1      -8.384  17.558  68.212  1.00  0.00    -0.256 N  
HETATM   30  O   UNK A   0      -8.966  16.643  66.191  1.00  0.00    -0.327 OA 
BRANCH  29  31
ATOM     31  CA  GLU A   1      -7.524  18.612  67.632  1.00  0.00    -0.229 C  
ATOM     32  C   GLU A   1      -6.250  18.786  68.492  1.00  0.00    -0.221 C  
ATOM     33  O   GLU A   1      -6.235  18.029  69.613  1.00  0.00    -0.243 OA 
ATOM     34  OXT GLU A   1      -5.344  19.568  68.233  1.00  0.00    -0.186 OA 
BRANCH  31  35
ATOM     35  CB  GLU A   1      -8.311  19.931  67.529  1.00  0.00    -0.366 C  
BRANCH  35  36
ATOM     36  CG  GLU A   1      -9.080  20.087  66.212  1.00  0.00    -0.402 C  
ATOM     37  CD  GLU A   1     -10.557  19.825  66.363  1.00  0.00    -0.464 C  
ATOM     38  OE2 GLU A   1     -11.112  19.494  67.398  1.00  0.00    -0.433 OA 
ATOM     39  OE1 GLU A   1     -11.226  20.009  65.197  1.00  0.00    -0.247 OA 
ENDBRANCH  35  36
ENDBRANCH  31  35
ENDBRANCH  29  31
ENDBRANCH  23  27
ENDBRANCH  19  21
ENDBRANCH  18  19
ENDBRANCH   3  18
TORSDOF 7
ENDMDL
MODEL       77
REMARK 921   NORMALIZED FREE ENERGY PREDICTED BY IDOCK:   -6.29 KCAL/MOL
REMARK 922        TOTAL FREE ENERGY PREDICTED BY IDOCK:  -10.10 KCAL/MOL
REMARK 923 INTER-LIGAND FREE ENERGY PREDICTED BY IDOCK:   -9.19 KCAL/MOL
REMARK 924 INTRA-LIGAND FREE ENERGY PREDICTED BY IDOCK:   -0.91 KCAL/MOL
REMARK 927      BINDING AFFINITY PREDICTED BY RF-SCORE:    0.00 PKD
ROOT
HETATM    1  C   UNK A   0      -7.238   7.488  67.169  1.00  0.00    -0.086 C  
HETATM    2  N   UNK A   0      -8.665   7.211  67.099  1.00  0.00    -0.120 NA 
HETATM    3  C   UNK A   0      -9.602   8.197  67.709  1.00  0.00    -0.151 C  
HETATM    4  O   UNK A   0      -7.207   5.389  65.315  1.00  0.00    -0.065 OA 
HETATM    5  C   UNK A   0     -10.748   7.417  68.402  1.00  0.00    -0.096 C  
HETATM    6  C   UNK A   0     -10.367   4.199  64.794  1.00  0.00    -0.188 C  
HETATM    7  N   UNK A   0     -11.340   6.414  67.500  1.00  0.00    -0.700 NA 
HETATM    8  H   UNK A   0     -12.335   6.197  67.558  1.00  0.00     0.000 HD 
HETATM    9  H2  UNK A   0     -10.655   2.892  63.233  1.00  0.00     0.000 HD 
HETATM   10  C   UNK A   0     -10.535   5.763  66.568  1.00  0.00    -0.220 C  
HETATM   11  H   UNK A   0      -8.641   3.928  63.793  1.00  0.00     0.000 HD 
HETATM   12  C   UNK A   0      -9.230   6.103  66.409  1.00  0.00    -0.152 C  
HETATM   13  H1  UNK A   0     -12.094   3.213  64.197  1.00  0.00     0.000 HD 
HETATM   14  C   UNK A   0      -8.426   5.264  65.400  1.00  0.00    -0.145 C  
HETATM   15  N   UNK A   0     -11.074   4.788  65.781  1.00  0.00    -0.876 NA 
HETATM   16  N   UNK A   0     -11.102   3.370  64.016  1.00  0.00    -0.572 NA 
HETATM   17  N   UNK A   0      -9.114   4.397  64.567  1.00  0.00    -0.150 N  
ENDROOT
BRANCH   3  18
HETATM   18  C   UNK A   0     -10.147   9.169  66.627  1.00  0.00    -0.273 C  
BRANCH  18  19
HETATM   19  N   UNK A   0     -11.023  10.200  67.216  1.00  0.00    -0.237 NA 
HETATM   20  H   UNK A   0     -11.835   9.951  67.781  1.00  0.00     0.000 HD 
BRANCH  19  21
HETATM   21  C   UNK A   0     -10.689  11.539  66.962  1.00  0.00    -0.259 A  
HETATM   22  C   UNK A   0      -8.932  13.221  66.812  1.00  0.00    -0.183 A  
HETATM   23  C   UNK A   0      -9.874  14.173  66.420  1.00  0.00    -0.308 A  
HETATM   24  C   UNK A   0     -11.635  12.534  66.699  1.00  0.00    -0.442 A  
HETATM   25  C   UNK A   0      -9.346  11.915  67.092  1.00  0.00    -0.180 A  
HETATM   26  C   UNK A   0     -11.233  13.841  66.415  1.00  0.00    -0.321 A  
BRANCH  23  27
HETATM   27  C   UNK A   0      -9.423  15.533  66.031  1.00  0.00    -0.352 C  
ATOM     28  H   GLU A   1      -7.733  15.332  67.236  1.00  0.00     0.000 HD 
ATOM     29  N   GLU A   1      -8.249  15.966  66.626  1.00  0.00    -0.271 N  
HETATM   30  O   UNK A   0     -10.046  16.200  65.221  1.00  0.00    -0.505 OA 
BRANCH  29  31
ATOM     31  CA  GLU A   1      -7.727  17.331  66.395  1.00  0.00    -0.311 C  
ATOM     32  C   GLU A   1      -6.183  17.330  66.493  1.00  0.00    -0.221 C  
ATOM     33  O   GLU A   1      -5.656  16.137  66.855  1.00  0.00    -0.341 OA 
ATOM     34  OXT GLU A   1      -5.480  18.315  66.315  1.00  0.00    -0.138 OA 
BRANCH  31  35
ATOM     35  CB  GLU A   1      -8.349  18.308  67.409  1.00  0.00    -0.245 C  
BRANCH  35  36
ATOM     36  CG  GLU A   1      -8.899  17.623  68.666  1.00  0.00    -0.259 C  
ATOM     37  CD  GLU A   1     -10.406  17.609  68.711  1.00  0.00    -0.348 C  
ATOM     38  OE2 GLU A   1     -11.142  18.104  67.874  1.00  0.00    -0.191 OA 
ATOM     39  OE1 GLU A   1     -10.873  16.961  69.809  1.00  0.00    -0.281 OA 
ENDBRANCH  35  36
ENDBRANCH  31  35
ENDBRANCH  29  31
ENDBRANCH  23  27
ENDBRANCH  19  21
ENDBRANCH  18  19
ENDBRANCH   3  18
TORSDOF 7
ENDMDL
MODEL       78
REMARK 921   NORMALIZED FREE ENERGY PREDICTED BY IDOCK:   -6.28 KCAL/MOL
REMARK 922        TOTAL FREE ENERGY PREDICTED BY IDOCK:  -10.08 KCAL/MOL
REMARK 923 INTER-LIGAND FREE ENERGY PREDICTED BY IDOCK:   -9.36 KCAL/MOL
REMARK 924 INTRA-LIGAND FREE ENERGY PREDICTED BY IDOCK:   -0.72 KCAL/MOL
REMARK 927      BINDING AFFINITY PREDICTED BY RF-SCORE:    0.00 PKD
ROOT
HETATM    1  C   UNK A   0     -10.830  18.780  65.463  1.00  0.00     0.122 C  
HETATM    2  N   UNK A   0     -10.089  17.655  66.012  1.00  0.00    -0.525 NA 
HETATM    3  C   UNK A   0      -9.299  17.876  67.257  1.00  0.00    -0.258 C  
HETATM    4  O   UNK A   0     -11.951  16.710  63.946  1.00  0.00    -0.863 OA 
HETATM    5  C   UNK A   0      -7.968  17.091  67.136  1.00  0.00    -0.188 C  
HETATM    6  C   UNK A   0     -10.494  13.721  64.731  1.00  0.00    -0.428 C  
HETATM    7  N   UNK A   0      -8.201  15.691  66.740  1.00  0.00    -0.255 NA 
HETATM    8  H   UNK A   0      -7.591  14.952  67.090  1.00  0.00     0.000 HD 
HETATM    9  H2  UNK A   0     -11.369  12.007  64.007  1.00  0.00     0.000 HD 
HETATM   10  C   UNK A   0      -9.258  15.381  65.887  1.00  0.00    -0.239 C  
HETATM   11  H   UNK A   0     -12.166  14.179  63.707  1.00  0.00     0.000 HD 
HETATM   12  C   UNK A   0     -10.139  16.334  65.487  1.00  0.00    -0.245 C  
HETATM   13  H1  UNK A   0      -9.888  11.744  64.923  1.00  0.00     0.000 HD 
HETATM   14  C   UNK A   0     -11.221  15.884  64.489  1.00  0.00    -0.312 C  
HETATM   15  N   UNK A   0      -9.429  14.094  65.473  1.00  0.00    -0.519 NA 
HETATM   16  N   UNK A   0     -10.585  12.384  64.542  1.00  0.00    -0.303 NA 
HETATM   17  N   UNK A   0     -11.375  14.529  64.250  1.00  0.00    -0.623 N  
ENDROOT
BRANCH   3  18
HETATM   18  C   UNK A   0     -10.113  17.428  68.502  1.00  0.00    -0.352 C  
BRANCH  18  19
HETATM   19  N   UNK A   0      -9.386  16.412  69.288  1.00  0.00    -0.222 NA 
HETATM   20  H   UNK A   0      -8.524  16.638  69.784  1.00  0.00     0.000 HD 
BRANCH  19  21
HETATM   21  C   UNK A   0      -9.935  15.122  69.321  1.00  0.00    -0.242 A  
HETATM   22  C   UNK A   0     -11.844  13.719  69.894  1.00  0.00    -0.394 A  
HETATM   23  C   UNK A   0     -11.178  12.602  69.390  1.00  0.00    -0.205 A  
HETATM   24  C   UNK A   0      -9.232  13.974  68.944  1.00  0.00     0.039 A  
HETATM   25  C   UNK A   0     -11.216  14.968  69.868  1.00  0.00    -0.303 A  
HETATM   26  C   UNK A   0      -9.851  12.721  68.963  1.00  0.00     0.285 A  
BRANCH  23  27
HETATM   27  C   UNK A   0     -11.880  11.295  69.330  1.00  0.00    -0.354 C  
ATOM     28  H   GLU A   1     -11.602  11.037  71.380  1.00  0.00     0.000 HD 
ATOM     29  N   GLU A   1     -11.962  10.605  70.529  1.00  0.00    -0.321 N  
HETATM   30  O   UNK A   0     -12.367  10.885  68.288  1.00  0.00    -0.400 OA 
BRANCH  29  31
ATOM     31  CA  GLU A   1     -12.560   9.254  70.599  1.00  0.00     0.111 C  
ATOM     32  C   GLU A   1     -13.428   9.127  71.873  1.00  0.00    -0.430 C  
ATOM     33  O   GLU A   1     -13.382  10.211  72.681  1.00  0.00    -0.085 OA 
ATOM     34  OXT GLU A   1     -14.069   8.129  72.174  1.00  0.00    -0.349 OA 
BRANCH  31  35
ATOM     35  CB  GLU A   1     -11.450   8.188  70.572  1.00  0.00    -0.179 C  
BRANCH  35  36
ATOM     36  CG  GLU A   1     -10.071   8.726  70.971  1.00  0.00    -0.301 C  
ATOM     37  CD  GLU A   1      -9.737   8.461  72.418  1.00  0.00    -0.306 C  
ATOM     38  OE2 GLU A   1     -10.470   7.908  73.221  1.00  0.00    -0.339 OA 
ATOM     39  OE1 GLU A   1      -8.496   8.906  72.741  1.00  0.00    -0.380 OA 
ENDBRANCH  35  36
ENDBRANCH  31  35
ENDBRANCH  29  31
ENDBRANCH  23  27
ENDBRANCH  19  21
ENDBRANCH  18  19
ENDBRANCH   3  18
TORSDOF 7
ENDMDL
MODEL       79
REMARK 921   NORMALIZED FREE ENERGY PREDICTED BY IDOCK:   -6.25 KCAL/MOL
REMARK 922        TOTAL FREE ENERGY PREDICTED BY IDOCK:  -10.05 KCAL/MOL
REMARK 923 INTER-LIGAND FREE ENERGY PREDICTED BY IDOCK:   -9.40 KCAL/MOL
REMARK 924 INTRA-LIGAND FREE ENERGY PREDICTED BY IDOCK:   -0.65 KCAL/MOL
REMARK 927      BINDING AFFINITY PREDICTED BY RF-SCORE:    0.00 PKD
ROOT
HETATM    1  C   UNK A   0     -10.508  14.931  69.223  1.00  0.00    -0.241 C  
HETATM    2  N   UNK A   0     -10.061  15.308  67.891  1.00  0.00    -0.231 NA 
HETATM    3  C   UNK A   0      -8.695  15.890  67.748  1.00  0.00    -0.170 C  
HETATM    4  O   UNK A   0     -12.506  13.693  67.702  1.00  0.00    -0.140 OA 
HETATM    5  C   UNK A   0      -8.756  17.026  66.696  1.00  0.00    -0.251 C  
HETATM    6  C   UNK A   0     -12.048  14.325  64.375  1.00  0.00    -0.468 C  
HETATM    7  N   UNK A   0      -9.417  16.579  65.457  1.00  0.00    -0.427 NA 
HETATM    8  H   UNK A   0      -9.117  16.947  64.555  1.00  0.00     0.000 HD 
HETATM    9  H2  UNK A   0     -13.177  13.255  63.031  1.00  0.00     0.000 HD 
HETATM   10  C   UNK A   0     -10.455  15.652  65.524  1.00  0.00    -0.404 C  
HETATM   11  H   UNK A   0     -13.208  12.999  65.350  1.00  0.00     0.000 HD 
HETATM   12  C   UNK A   0     -10.808  15.078  66.703  1.00  0.00    -0.318 C  
HETATM   13  H1  UNK A   0     -12.116  14.457  62.304  1.00  0.00     0.000 HD 
HETATM   14  C   UNK A   0     -12.015  14.124  66.661  1.00  0.00    -0.444 C  
HETATM   15  N   UNK A   0     -11.107  15.292  64.382  1.00  0.00    -0.685 NA 
HETATM   16  N   UNK A   0     -12.477  13.990  63.135  1.00  0.00    -1.070 NA 
HETATM   17  N   UNK A   0     -12.505  13.734  65.426  1.00  0.00    -0.473 N  
ENDROOT
BRANCH   3  18
HETATM   18  C   UNK A   0      -7.678  14.790  67.340  1.00  0.00    -0.204 C  
BRANCH  18  19
HETATM   19  N   UNK A   0      -8.325  13.711  66.567  1.00  0.00    -0.297 NA 
HETATM   20  H   UNK A   0      -8.680  13.871  65.624  1.00  0.00     0.000 HD 
BRANCH  19  21
HETATM   21  C   UNK A   0      -8.431  12.459  67.189  1.00  0.00    -0.185 A  
HETATM   22  C   UNK A   0      -9.455  10.247  67.186  1.00  0.00    -0.184 A  
HETATM   23  C   UNK A   0      -8.692   9.890  68.298  1.00  0.00    -0.119 A  
HETATM   24  C   UNK A   0      -7.776  12.130  68.379  1.00  0.00    -0.134 A  
HETATM   25  C   UNK A   0      -9.329  11.531  66.646  1.00  0.00    -0.201 A  
HETATM   26  C   UNK A   0      -7.891  10.850  68.926  1.00  0.00    -0.142 A  
BRANCH  23  27
HETATM   27  C   UNK A   0      -8.755   8.498  68.813  1.00  0.00    -0.139 C  
ATOM     28  H   GLU A   1     -10.150   8.004  67.344  1.00  0.00     0.000 HD 
ATOM     29  N   GLU A   1      -9.642   7.658  68.159  1.00  0.00    -0.148 N  
HETATM   30  O   UNK A   0      -8.046   8.132  69.736  1.00  0.00    -0.112 OA 
BRANCH  29  31
ATOM     31  CA  GLU A   1      -9.868   6.270  68.618  1.00  0.00    -0.136 C  
ATOM     32  C   GLU A   1      -9.943   5.318  67.401  1.00  0.00    -0.174 C  
ATOM     33  O   GLU A   1      -9.885   5.947  66.205  1.00  0.00    -0.148 OA 
ATOM     34  OXT GLU A   1     -10.092   4.106  67.483  1.00  0.00    -0.070 OA 
BRANCH  31  35
ATOM     35  CB  GLU A   1     -11.154   6.201  69.461  1.00  0.00    -0.490 C  
BRANCH  35  36
ATOM     36  CG  GLU A   1     -10.918   6.414  70.961  1.00  0.00    -0.328 C  
ATOM     37  CD  GLU A   1     -11.157   7.839  71.393  1.00  0.00    -0.238 C  
ATOM     38  OE2 GLU A   1     -11.474   8.756  70.653  1.00  0.00    -0.265 OA 
ATOM     39  OE1 GLU A   1     -10.985   7.999  72.729  1.00  0.00    -0.363 OA 
ENDBRANCH  35  36
ENDBRANCH  31  35
ENDBRANCH  29  31
ENDBRANCH  23  27
ENDBRANCH  19  21
ENDBRANCH  18  19
ENDBRANCH   3  18
TORSDOF 7
ENDMDL
MODEL       80
REMARK 921   NORMALIZED FREE ENERGY PREDICTED BY IDOCK:   -6.23 KCAL/MOL
REMARK 922        TOTAL FREE ENERGY PREDICTED BY IDOCK:  -10.01 KCAL/MOL
REMARK 923 INTER-LIGAND FREE ENERGY PREDICTED BY IDOCK:   -9.05 KCAL/MOL
REMARK 924 INTRA-LIGAND FREE ENERGY PREDICTED BY IDOCK:   -0.96 KCAL/MOL
REMARK 927      BINDING AFFINITY PREDICTED BY RF-SCORE:    0.00 PKD
ROOT
HETATM    1  C   UNK A   0     -11.255  16.458  67.983  1.00  0.00    -0.235 C  
HETATM    2  N   UNK A   0      -9.819  16.675  68.076  1.00  0.00    -0.240 NA 
HETATM    3  C   UNK A   0      -8.937  15.482  68.226  1.00  0.00    -0.185 C  
HETATM    4  O   UNK A   0     -11.148  19.148  67.214  1.00  0.00    -0.417 OA 
HETATM    5  C   UNK A   0      -7.800  15.838  69.217  1.00  0.00    -0.233 C  
HETATM    6  C   UNK A   0      -7.936  20.307  67.339  1.00  0.00    -0.329 C  
HETATM    7  N   UNK A   0      -7.142  17.104  68.851  1.00  0.00    -0.232 NA 
HETATM    8  H   UNK A   0      -6.145  17.232  69.022  1.00  0.00     0.000 HD 
HETATM    9  H2  UNK A   0      -7.545  22.143  66.501  1.00  0.00     0.000 HD 
HETATM   10  C   UNK A   0      -7.888  18.127  68.270  1.00  0.00    -0.293 C  
HETATM   11  H   UNK A   0      -9.610  21.057  66.507  1.00  0.00     0.000 HD 
HETATM   12  C   UNK A   0      -9.194  17.946  67.946  1.00  0.00    -0.263 C  
HETATM   13  H1  UNK A   0      -6.158  21.377  67.269  1.00  0.00     0.000 HD 
HETATM   14  C   UNK A   0      -9.930  19.172  67.376  1.00  0.00    -0.351 C  
HETATM   15  N   UNK A   0      -7.289  19.320  67.994  1.00  0.00    -0.255 NA 
HETATM   16  N   UNK A   0      -7.145  21.357  67.014  1.00  0.00    -0.835 NA 
HETATM   17  N   UNK A   0      -9.184  20.281  67.015  1.00  0.00    -0.427 N  
ENDROOT
BRANCH   3  18
HETATM   18  C   UNK A   0      -8.375  15.047  66.846  1.00  0.00    -0.212 C  
BRANCH  18  19
HETATM   19  N   UNK A   0      -9.398  14.355  66.037  1.00  0.00    -0.514 NA 
HETATM   20  H   UNK A   0      -9.812  14.793  65.214  1.00  0.00     0.000 HD 
BRANCH  19  21
HETATM   21  C   UNK A   0      -9.775  13.069  66.452  1.00  0.00    -0.268 A  
HETATM   22  C   UNK A   0      -9.227  10.696  66.531  1.00  0.00    -0.187 A  
HETATM   23  C   UNK A   0     -10.379  10.452  67.277  1.00  0.00    -0.278 A  
HETATM   24  C   UNK A   0     -10.990  12.788  67.084  1.00  0.00    -0.295 A  
HETATM   25  C   UNK A   0      -8.938  11.999  66.113  1.00  0.00    -0.079 A  
HETATM   26  C   UNK A   0     -11.288  11.491  67.509  1.00  0.00    -0.366 A  
BRANCH  23  27
HETATM   27  C   UNK A   0     -10.637   9.087  67.802  1.00  0.00    -0.214 C  
ATOM     28  H   GLU A   1     -10.865   9.856  69.727  1.00  0.00     0.000 HD 
ATOM     29  N   GLU A   1     -10.842   9.001  69.170  1.00  0.00    -0.149 N  
HETATM   30  O   UNK A   0     -10.685   8.121  67.058  1.00  0.00    -0.321 OA 
BRANCH  29  31
ATOM     31  CA  GLU A   1     -11.027   7.695  69.839  1.00  0.00    -0.200 C  
ATOM     32  C   GLU A   1     -11.836   7.881  71.145  1.00  0.00    -0.287 C  
ATOM     33  O   GLU A   1     -12.113   9.172  71.441  1.00  0.00    -0.301 OA 
ATOM     34  OXT GLU A   1     -12.166   6.967  71.888  1.00  0.00    -0.322 OA 
BRANCH  31  35
ATOM     35  CB  GLU A   1      -9.657   7.052  70.120  1.00  0.00    -0.164 C  
BRANCH  35  36
ATOM     36  CG  GLU A   1      -9.564   5.586  69.678  1.00  0.00    -0.210 C  
ATOM     37  CD  GLU A   1      -9.279   4.648  70.824  1.00  0.00    -0.140 C  
ATOM     38  OE2 GLU A   1      -9.107   4.984  71.984  1.00  0.00    -0.134 OA 
ATOM     39  OE1 GLU A   1      -9.243   3.353  70.421  1.00  0.00    -0.119 OA 
ENDBRANCH  35  36
ENDBRANCH  31  35
ENDBRANCH  29  31
ENDBRANCH  23  27
ENDBRANCH  19  21
ENDBRANCH  18  19
ENDBRANCH   3  18
TORSDOF 7
ENDMDL
MODEL       81
REMARK 921   NORMALIZED FREE ENERGY PREDICTED BY IDOCK:   -6.19 KCAL/MOL
REMARK 922        TOTAL FREE ENERGY PREDICTED BY IDOCK:   -9.95 KCAL/MOL
REMARK 923 INTER-LIGAND FREE ENERGY PREDICTED BY IDOCK:   -8.94 KCAL/MOL
REMARK 924 INTRA-LIGAND FREE ENERGY PREDICTED BY IDOCK:   -1.01 KCAL/MOL
REMARK 927      BINDING AFFINITY PREDICTED BY RF-SCORE:    0.00 PKD
ROOT
HETATM    1  C   UNK A   0     -11.334  15.291  68.185  1.00  0.00    -0.338 C  
HETATM    2  N   UNK A   0     -11.150  15.442  66.749  1.00  0.00    -0.287 NA 
HETATM    3  C   UNK A   0     -10.268  16.544  66.267  1.00  0.00    -0.332 C  
HETATM    4  O   UNK A   0     -12.440  12.867  67.324  1.00  0.00    -0.216 OA 
HETATM    5  C   UNK A   0     -10.905  17.155  64.993  1.00  0.00     0.073 C  
HETATM    6  C   UNK A   0     -12.390  12.667  63.914  1.00  0.00    -0.459 C  
HETATM    7  N   UNK A   0     -11.258  16.114  64.013  1.00  0.00    -1.196 NA 
HETATM    8  H   UNK A   0     -11.192  16.308  63.014  1.00  0.00     0.000 HD 
HETATM    9  H2  UNK A   0     -12.831  10.853  63.052  1.00  0.00     0.000 HD 
HETATM   10  C   UNK A   0     -11.682  14.863  64.456  1.00  0.00    -0.382 C  
HETATM   11  H   UNK A   0     -12.711  11.284  65.342  1.00  0.00     0.000 HD 
HETATM   12  C   UNK A   0     -11.686  14.552  65.778  1.00  0.00    -0.344 C  
HETATM   13  H1  UNK A   0     -12.531  12.156  61.906  1.00  0.00     0.000 HD 
HETATM   14  C   UNK A   0     -12.243  13.166  66.149  1.00  0.00    -0.385 C  
HETATM   15  N   UNK A   0     -12.069  13.925  63.546  1.00  0.00    -0.969 NA 
HETATM   16  N   UNK A   0     -12.600  11.830  62.870  1.00  0.00    -0.759 NA 
HETATM   17  N   UNK A   0     -12.477  12.255  65.132  1.00  0.00    -0.260 N  
ENDROOT
BRANCH   3  18
HETATM   18  C   UNK A   0      -8.837  16.010  65.988  1.00  0.00    -0.279 C  
BRANCH  18  19
HETATM   19  N   UNK A   0      -8.168  15.575  67.231  1.00  0.00    -0.180 NA 
HETATM   20  H   UNK A   0      -7.933  16.237  67.969  1.00  0.00     0.000 HD 
BRANCH  19  21
HETATM   21  C   UNK A   0      -7.872  14.209  67.348  1.00  0.00    -0.177 A  
HETATM   22  C   UNK A   0      -6.184  12.507  67.790  1.00  0.00    -0.119 A  
HETATM   23  C   UNK A   0      -7.154  11.511  67.671  1.00  0.00    -0.098 A  
HETATM   24  C   UNK A   0      -8.800  13.193  67.100  1.00  0.00    -0.222 A  
HETATM   25  C   UNK A   0      -6.546  13.846  67.616  1.00  0.00    -0.178 A  
HETATM   26  C   UNK A   0      -8.451  11.852  67.274  1.00  0.00    -0.172 A  
BRANCH  23  27
HETATM   27  C   UNK A   0      -6.791  10.098  67.949  1.00  0.00    -0.075 C  
ATOM     28  H   GLU A   1      -8.736   9.497  67.500  1.00  0.00     0.000 HD 
ATOM     29  N   GLU A   1      -7.822   9.181  67.824  1.00  0.00    -0.100 N  
HETATM   30  O   UNK A   0      -5.649   9.783  68.243  1.00  0.00    -0.040 OA 
BRANCH  29  31
ATOM     31  CA  GLU A   1      -7.624   7.752  68.151  1.00  0.00    -0.116 C  
ATOM     32  C   GLU A   1      -7.578   6.914  66.851  1.00  0.00    -0.094 C  
ATOM     33  O   GLU A   1      -7.819   7.629  65.727  1.00  0.00    -0.094 OA 
ATOM     34  OXT GLU A   1      -7.394   5.705  66.816  1.00  0.00    -0.080 OA 
BRANCH  31  35
ATOM     35  CB  GLU A   1      -8.747   7.268  69.086  1.00  0.00    -0.136 C  
BRANCH  35  36
ATOM     36  CG  GLU A   1      -9.687   8.389  69.549  1.00  0.00    -0.177 C  
ATOM     37  CD  GLU A   1     -10.748   7.903  70.505  1.00  0.00    -0.233 C  
ATOM     38  OE2 GLU A   1     -10.892   6.748  70.871  1.00  0.00    -0.234 OA 
ATOM     39  OE1 GLU A   1     -11.542   8.915  70.936  1.00  0.00    -0.279 OA 
ENDBRANCH  35  36
ENDBRANCH  31  35
ENDBRANCH  29  31
ENDBRANCH  23  27
ENDBRANCH  19  21
ENDBRANCH  18  19
ENDBRANCH   3  18
TORSDOF 7
ENDMDL
MODEL       82
REMARK 921   NORMALIZED FREE ENERGY PREDICTED BY IDOCK:   -6.18 KCAL/MOL
REMARK 922        TOTAL FREE ENERGY PREDICTED BY IDOCK:   -9.94 KCAL/MOL
REMARK 923 INTER-LIGAND FREE ENERGY PREDICTED BY IDOCK:   -8.86 KCAL/MOL
REMARK 924 INTRA-LIGAND FREE ENERGY PREDICTED BY IDOCK:   -1.08 KCAL/MOL
REMARK 927      BINDING AFFINITY PREDICTED BY RF-SCORE:    0.00 PKD
ROOT
HETATM    1  C   UNK A   0      -8.915  16.039  65.854  1.00  0.00    -0.221 C  
HETATM    2  N   UNK A   0     -10.067  15.178  66.080  1.00  0.00    -0.277 NA 
HETATM    3  C   UNK A   0     -10.621  14.428  64.917  1.00  0.00    -0.434 C  
HETATM    4  O   UNK A   0      -8.922  16.008  68.654  1.00  0.00    -0.190 OA 
HETATM    5  C   UNK A   0     -12.167  14.430  65.026  1.00  0.00    -0.414 C  
HETATM    6  C   UNK A   0     -11.552  14.170  69.829  1.00  0.00    -0.290 C  
HETATM    7  N   UNK A   0     -12.614  14.001  66.363  1.00  0.00    -0.502 NA 
HETATM    8  H   UNK A   0     -13.480  13.473  66.468  1.00  0.00     0.000 HD 
HETATM    9  H2  UNK A   0     -11.584  13.713  71.834  1.00  0.00     0.000 HD 
HETATM   10  C   UNK A   0     -11.848  14.320  67.482  1.00  0.00    -0.395 C  
HETATM   11  H   UNK A   0      -9.895  14.882  70.726  1.00  0.00     0.000 HD 
HETATM   12  C   UNK A   0     -10.646  14.938  67.357  1.00  0.00    -0.263 C  
HETATM   13  H1  UNK A   0     -12.985  13.147  70.930  1.00  0.00     0.000 HD 
HETATM   14  C   UNK A   0      -9.927  15.301  68.669  1.00  0.00    -0.216 C  
HETATM   15  N   UNK A   0     -12.299  13.978  68.723  1.00  0.00    -0.508 NA 
HETATM   16  N   UNK A   0     -12.088  13.632  70.950  1.00  0.00    -0.473 NA 
HETATM   17  N   UNK A   0     -10.417  14.782  69.855  1.00  0.00    -0.458 N  
ENDROOT
BRANCH   3  18
HETATM   18  C   UNK A   0     -10.055  12.983  64.884  1.00  0.00    -0.213 C  
BRANCH  18  19
HETATM   19  N   UNK A   0      -9.038  12.774  65.935  1.00  0.00    -0.431 NA 
HETATM   20  H   UNK A   0      -8.163  13.297  65.940  1.00  0.00     0.000 HD 
BRANCH  19  21
HETATM   21  C   UNK A   0      -9.332  11.823  66.924  1.00  0.00    -0.192 A  
HETATM   22  C   UNK A   0     -10.769   9.993  67.647  1.00  0.00    -0.340 A  
HETATM   23  C   UNK A   0      -9.992   9.834  68.795  1.00  0.00    -0.179 A  
HETATM   24  C   UNK A   0      -8.646  11.738  68.139  1.00  0.00    -0.160 A  
HETATM   25  C   UNK A   0     -10.442  10.993  66.726  1.00  0.00    -0.300 A  
HETATM   26  C   UNK A   0      -8.962  10.741  69.066  1.00  0.00    -0.141 A  
BRANCH  23  27
HETATM   27  C   UNK A   0     -10.281   8.713  69.725  1.00  0.00    -0.206 C  
ATOM     28  H   GLU A   1      -8.405   7.889  69.335  1.00  0.00     0.000 HD 
ATOM     29  N   GLU A   1      -9.285   7.755  69.834  1.00  0.00    -0.147 N  
HETATM   30  O   UNK A   0     -11.322   8.669  70.361  1.00  0.00    -0.257 OA 
BRANCH  29  31
ATOM     31  CA  GLU A   1      -9.471   6.542  70.660  1.00  0.00    -0.166 C  
ATOM     32  C   GLU A   1      -8.101   6.025  71.156  1.00  0.00    -0.121 C  
ATOM     33  O   GLU A   1      -7.043   6.713  70.666  1.00  0.00    -0.065 OA 
ATOM     34  OXT GLU A   1      -7.953   5.053  71.885  1.00  0.00    -0.105 OA 
BRANCH  31  35
ATOM     35  CB  GLU A   1     -10.213   5.465  69.847  1.00  0.00    -0.351 C  
BRANCH  35  36
ATOM     36  CG  GLU A   1      -9.467   5.029  68.579  1.00  0.00    -0.185 C  
ATOM     37  CD  GLU A   1     -10.112   5.546  67.317  1.00  0.00    -0.183 C  
ATOM     38  OE2 GLU A   1     -11.131   6.214  67.268  1.00  0.00    -0.333 OA 
ATOM     39  OE1 GLU A   1      -9.415   5.186  66.209  1.00  0.00    -0.142 OA 
ENDBRANCH  35  36
ENDBRANCH  31  35
ENDBRANCH  29  31
ENDBRANCH  23  27
ENDBRANCH  19  21
ENDBRANCH  18  19
ENDBRANCH   3  18
TORSDOF 7
ENDMDL
MODEL       83
REMARK 921   NORMALIZED FREE ENERGY PREDICTED BY IDOCK:   -6.17 KCAL/MOL
REMARK 922        TOTAL FREE ENERGY PREDICTED BY IDOCK:   -9.93 KCAL/MOL
REMARK 923 INTER-LIGAND FREE ENERGY PREDICTED BY IDOCK:   -8.86 KCAL/MOL
REMARK 924 INTRA-LIGAND FREE ENERGY PREDICTED BY IDOCK:   -1.07 KCAL/MOL
REMARK 927      BINDING AFFINITY PREDICTED BY RF-SCORE:    0.00 PKD
ROOT
HETATM    1  C   UNK A   0     -11.285  11.063  67.201  1.00  0.00    -0.217 C  
HETATM    2  N   UNK A   0     -10.531  12.303  67.102  1.00  0.00    -0.218 NA 
HETATM    3  C   UNK A   0      -9.199  12.369  67.770  1.00  0.00    -0.193 C  
HETATM    4  O   UNK A   0     -12.776  12.349  65.210  1.00  0.00    -0.617 OA 
HETATM    5  C   UNK A   0      -9.039  13.777  68.400  1.00  0.00    -0.175 C  
HETATM    6  C   UNK A   0     -11.516  15.462  64.587  1.00  0.00    -0.337 C  
HETATM    7  N   UNK A   0      -9.345  14.841  67.428  1.00  0.00    -0.193 NA 
HETATM    8  H   UNK A   0      -8.841  15.727  67.464  1.00  0.00     0.000 HD 
HETATM    9  H2  UNK A   0     -12.220  16.471  62.940  1.00  0.00     0.000 HD 
HETATM   10  C   UNK A   0     -10.325  14.632  66.461  1.00  0.00    -0.282 C  
HETATM   11  H   UNK A   0     -12.828  14.312  63.583  1.00  0.00     0.000 HD 
HETATM   12  C   UNK A   0     -10.941  13.428  66.335  1.00  0.00    -0.289 C  
HETATM   13  H1  UNK A   0     -11.062  17.373  63.911  1.00  0.00     0.000 HD 
HETATM   14  C   UNK A   0     -12.056  13.342  65.277  1.00  0.00    -0.418 C  
HETATM   15  N   UNK A   0     -10.650  15.643  65.606  1.00  0.00    -0.356 NA 
HETATM   16  N   UNK A   0     -11.602  16.523  63.750  1.00  0.00    -1.433 NA 
HETATM   17  N   UNK A   0     -12.199  14.389  64.383  1.00  0.00    -0.574 N  
ENDROOT
BRANCH   3  18
HETATM   18  C   UNK A   0      -8.066  12.070  66.752  1.00  0.00    -0.081 C  
BRANCH  18  19
HETATM   19  N   UNK A   0      -6.942  11.352  67.386  1.00  0.00    -0.097 NA 
HETATM   20  H   UNK A   0      -5.973  11.570  67.157  1.00  0.00     0.000 HD 
BRANCH  19  21
HETATM   21  C   UNK A   0      -7.270  10.355  68.317  1.00  0.00    -0.083 A  
HETATM   22  C   UNK A   0      -7.059   9.534  70.602  1.00  0.00    -0.128 A  
HETATM   23  C   UNK A   0      -7.899   8.462  70.297  1.00  0.00    -0.096 A  
HETATM   24  C   UNK A   0      -7.998   9.206  67.994  1.00  0.00    -0.101 A  
HETATM   25  C   UNK A   0      -6.741  10.465  69.610  1.00  0.00    -0.095 A  
HETATM   26  C   UNK A   0      -8.325   8.270  68.978  1.00  0.00    -0.120 A  
BRANCH  23  27
HETATM   27  C   UNK A   0      -8.313   7.526  71.373  1.00  0.00    -0.107 C  
ATOM     28  H   GLU A   1     -10.059   7.075  70.325  1.00  0.00     0.000 HD 
ATOM     29  N   GLU A   1      -9.541   6.910  71.189  1.00  0.00    -0.166 N  
HETATM   30  O   UNK A   0      -7.595   7.309  72.336  1.00  0.00    -0.085 OA 
BRANCH  29  31
ATOM     31  CA  GLU A   1     -10.117   6.019  72.219  1.00  0.00    -0.180 C  
ATOM     32  C   GLU A   1     -10.225   4.577  71.669  1.00  0.00    -0.144 C  
ATOM     33  O   GLU A   1      -9.872   4.456  70.369  1.00  0.00    -0.202 OA 
ATOM     34  OXT GLU A   1     -10.637   3.622  72.314  1.00  0.00    -0.064 OA 
BRANCH  31  35
ATOM     35  CB  GLU A   1     -11.492   6.551  72.663  1.00  0.00    -0.224 C  
BRANCH  35  36
ATOM     36  CG  GLU A   1     -11.656   8.064  72.474  1.00  0.00    -0.464 C  
ATOM     37  CD  GLU A   1     -13.042   8.449  72.020  1.00  0.00    -0.352 C  
ATOM     38  OE2 GLU A   1     -13.951   7.668  71.791  1.00  0.00    -0.371 OA 
ATOM     39  OE1 GLU A   1     -13.180   9.793  71.900  1.00  0.00    -0.393 OA 
ENDBRANCH  35  36
ENDBRANCH  31  35
ENDBRANCH  29  31
ENDBRANCH  23  27
ENDBRANCH  19  21
ENDBRANCH  18  19
ENDBRANCH   3  18
TORSDOF 7
ENDMDL
MODEL       84
REMARK 921   NORMALIZED FREE ENERGY PREDICTED BY IDOCK:   -6.16 KCAL/MOL
REMARK 922        TOTAL FREE ENERGY PREDICTED BY IDOCK:   -9.91 KCAL/MOL
REMARK 923 INTER-LIGAND FREE ENERGY PREDICTED BY IDOCK:   -9.02 KCAL/MOL
REMARK 924 INTRA-LIGAND FREE ENERGY PREDICTED BY IDOCK:   -0.89 KCAL/MOL
REMARK 927      BINDING AFFINITY PREDICTED BY RF-SCORE:    0.00 PKD
ROOT
HETATM    1  C   UNK A   0      -8.498  13.408  68.621  1.00  0.00     0.001 C  
HETATM    2  N   UNK A   0      -9.546  14.201  67.995  1.00  0.00    -0.211 NA 
HETATM    3  C   UNK A   0     -10.765  13.494  67.509  1.00  0.00    -0.259 C  
HETATM    4  O   UNK A   0      -7.616  15.970  69.325  1.00  0.00    -0.221 OA 
HETATM    5  C   UNK A   0     -11.199  14.136  66.166  1.00  0.00    -0.326 C  
HETATM    6  C   UNK A   0      -9.679  18.355  68.010  1.00  0.00    -0.316 C  
HETATM    7  N   UNK A   0     -11.283  15.603  66.272  1.00  0.00    -0.122 NA 
HETATM    8  H   UNK A   0     -11.985  16.115  65.738  1.00  0.00     0.000 HD 
HETATM    9  H2  UNK A   0      -9.444  20.292  68.661  1.00  0.00     0.000 HD 
HETATM   10  C   UNK A   0     -10.400  16.287  67.104  1.00  0.00    -0.285 C  
HETATM   11  H   UNK A   0      -8.245  18.441  69.422  1.00  0.00     0.000 HD 
HETATM   12  C   UNK A   0      -9.521  15.620  67.895  1.00  0.00    -0.204 C  
HETATM   13  H1  UNK A   0     -10.672  20.080  67.416  1.00  0.00     0.000 HD 
HETATM   14  C   UNK A   0      -8.550  16.487  68.716  1.00  0.00    -0.262 C  
HETATM   15  N   UNK A   0     -10.440  17.649  67.148  1.00  0.00    -0.338 NA 
HETATM   16  N   UNK A   0      -9.958  19.680  68.026  1.00  0.00    -0.401 NA 
HETATM   17  N   UNK A   0      -8.777  17.850  68.781  1.00  0.00    -0.248 N  
ENDROOT
BRANCH   3  18
HETATM   18  C   UNK A   0     -11.897  13.573  68.569  1.00  0.00    -0.362 C  
BRANCH  18  19
HETATM   19  N   UNK A   0     -11.417  13.169  69.905  1.00  0.00    -0.508 NA 
HETATM   20  H   UNK A   0     -10.890  13.810  70.499  1.00  0.00     0.000 HD 
BRANCH  19  21
HETATM   21  C   UNK A   0     -11.719  11.864  70.321  1.00  0.00    -0.205 A  
HETATM   22  C   UNK A   0     -11.217   9.486  70.141  1.00  0.00    -0.275 A  
HETATM   23  C   UNK A   0     -12.179   9.207  71.112  1.00  0.00    -0.350 A  
HETATM   24  C   UNK A   0     -12.768  11.554  71.192  1.00  0.00    -0.458 A  
HETATM   25  C   UNK A   0     -11.001  10.809  69.743  1.00  0.00    -0.314 A  
HETATM   26  C   UNK A   0     -12.991  10.236  71.599  1.00  0.00    -0.570 A  
BRANCH  23  27
HETATM   27  C   UNK A   0     -12.342   7.815  71.603  1.00  0.00    -0.321 C  
ATOM     28  H   GLU A   1     -10.281   7.657  71.880  1.00  0.00     0.000 HD 
ATOM     29  N   GLU A   1     -11.168   7.155  71.931  1.00  0.00    -0.243 N  
HETATM   30  O   UNK A   0     -13.447   7.311  71.726  1.00  0.00    -0.353 OA 
BRANCH  29  31
ATOM     31  CA  GLU A   1     -11.174   5.738  72.355  1.00  0.00    -0.290 C  
ATOM     32  C   GLU A   1     -10.752   5.628  73.839  1.00  0.00    -0.193 C  
ATOM     33  O   GLU A   1     -10.383   6.806  74.394  1.00  0.00    -0.340 OA 
ATOM     34  OXT GLU A   1     -10.698   4.578  74.464  1.00  0.00    -0.307 OA 
BRANCH  31  35
ATOM     35  CB  GLU A   1     -10.240   4.917  71.447  1.00  0.00    -0.257 C  
BRANCH  35  36
ATOM     36  CG  GLU A   1      -8.856   5.549  71.256  1.00  0.00    -0.142 C  
ATOM     37  CD  GLU A   1      -8.647   6.086  69.862  1.00  0.00    -0.131 C  
ATOM     38  OE2 GLU A   1      -9.455   6.017  68.951  1.00  0.00    -0.125 OA 
ATOM     39  OE1 GLU A   1      -7.434   6.679  69.725  1.00  0.00    -0.087 OA 
ENDBRANCH  35  36
ENDBRANCH  31  35
ENDBRANCH  29  31
ENDBRANCH  23  27
ENDBRANCH  19  21
ENDBRANCH  18  19
ENDBRANCH   3  18
TORSDOF 7
ENDMDL
MODEL       85
REMARK 921   NORMALIZED FREE ENERGY PREDICTED BY IDOCK:   -6.15 KCAL/MOL
REMARK 922        TOTAL FREE ENERGY PREDICTED BY IDOCK:   -9.90 KCAL/MOL
REMARK 923 INTER-LIGAND FREE ENERGY PREDICTED BY IDOCK:   -8.16 KCAL/MOL
REMARK 924 INTRA-LIGAND FREE ENERGY PREDICTED BY IDOCK:   -1.74 KCAL/MOL
REMARK 927      BINDING AFFINITY PREDICTED BY RF-SCORE:    0.00 PKD
ROOT
HETATM    1  C   UNK A   0     -10.984  17.067  68.022  1.00  0.00    -0.252 C  
HETATM    2  N   UNK A   0     -11.189  15.685  67.615  1.00  0.00    -0.309 NA 
HETATM    3  C   UNK A   0     -10.839  15.306  66.216  1.00  0.00    -0.312 C  
HETATM    4  O   UNK A   0     -11.426  15.912  70.533  1.00  0.00    -0.334 OA 
HETATM    5  C   UNK A   0     -11.910  14.313  65.697  1.00  0.00    -0.373 C  
HETATM    6  C   UNK A   0     -12.095  12.576  70.221  1.00  0.00    -0.294 C  
HETATM    7  N   UNK A   0     -12.127  13.208  66.647  1.00  0.00    -0.378 NA 
HETATM    8  H   UNK A   0     -12.356  12.275  66.304  1.00  0.00     0.000 HD 
HETATM    9  H2  UNK A   0     -12.120  11.437  71.933  1.00  0.00     0.000 HD 
HETATM   10  C   UNK A   0     -12.018  13.443  68.016  1.00  0.00    -0.322 C  
HETATM   11  H   UNK A   0     -11.624  13.714  71.814  1.00  0.00     0.000 HD 
HETATM   12  C   UNK A   0     -11.621  14.651  68.491  1.00  0.00    -0.317 C  
HETATM   13  H1  UNK A   0     -12.520  10.557  70.461  1.00  0.00     0.000 HD 
HETATM   14  C   UNK A   0     -11.608  14.809  70.022  1.00  0.00    -0.286 C  
HETATM   15  N   UNK A   0     -12.284  12.433  68.892  1.00  0.00    -0.087 NA 
HETATM   16  N   UNK A   0     -12.260  11.429  70.922  1.00  0.00    -0.368 NA 
HETATM   17  N   UNK A   0     -11.765  13.677  70.803  1.00  0.00    -0.501 N  
ENDROOT
BRANCH   3  18
HETATM   18  C   UNK A   0      -9.416  14.687  66.163  1.00  0.00    -0.276 C  
BRANCH  18  19
HETATM   19  N   UNK A   0      -9.434  13.334  65.573  1.00  0.00    -0.477 NA 
HETATM   20  H   UNK A   0      -9.707  13.179  64.603  1.00  0.00     0.000 HD 
BRANCH  19  21
HETATM   21  C   UNK A   0      -9.060  12.271  66.409  1.00  0.00    -0.158 A  
HETATM   22  C   UNK A   0      -8.945   9.859  66.733  1.00  0.00    -0.155 A  
HETATM   23  C   UNK A   0      -8.303  10.051  67.957  1.00  0.00    -0.117 A  
HETATM   24  C   UNK A   0      -8.538  12.447  67.694  1.00  0.00    -0.172 A  
HETATM   25  C   UNK A   0      -9.329  10.968  65.974  1.00  0.00    -0.225 A  
HETATM   26  C   UNK A   0      -8.147  11.347  68.461  1.00  0.00    -0.149 A  
BRANCH  23  27
HETATM   27  C   UNK A   0      -7.810   8.876  68.719  1.00  0.00    -0.101 C  
ATOM     28  H   GLU A   1      -9.552   8.871  69.865  1.00  0.00     0.000 HD 
ATOM     29  N   GLU A   1      -8.643   8.427  69.732  1.00  0.00    -0.130 N  
HETATM   30  O   UNK A   0      -6.749   8.339  68.440  1.00  0.00    -0.061 OA 
BRANCH  29  31
ATOM     31  CA  GLU A   1      -8.240   7.318  70.624  1.00  0.00    -0.116 C  
ATOM     32  C   GLU A   1      -8.790   5.978  70.080  1.00  0.00    -0.143 C  
ATOM     33  O   GLU A   1      -9.580   6.109  68.990  1.00  0.00    -0.126 OA 
ATOM     34  OXT GLU A   1      -8.586   4.888  70.599  1.00  0.00    -0.104 OA 
BRANCH  31  35
ATOM     35  CB  GLU A   1      -8.744   7.588  72.053  1.00  0.00    -0.132 C  
BRANCH  35  36
ATOM     36  CG  GLU A   1      -9.962   8.517  72.111  1.00  0.00    -0.387 C  
ATOM     37  CD  GLU A   1     -11.204   7.822  72.611  1.00  0.00    -0.381 C  
ATOM     38  OE2 GLU A   1     -11.277   6.643  72.917  1.00  0.00    -0.252 OA 
ATOM     39  OE1 GLU A   1     -12.260   8.670  72.696  1.00  0.00    -0.361 OA 
ENDBRANCH  35  36
ENDBRANCH  31  35
ENDBRANCH  29  31
ENDBRANCH  23  27
ENDBRANCH  19  21
ENDBRANCH  18  19
ENDBRANCH   3  18
TORSDOF 7
ENDMDL
MODEL       86
REMARK 921   NORMALIZED FREE ENERGY PREDICTED BY IDOCK:   -6.15 KCAL/MOL
REMARK 922        TOTAL FREE ENERGY PREDICTED BY IDOCK:   -9.89 KCAL/MOL
REMARK 923 INTER-LIGAND FREE ENERGY PREDICTED BY IDOCK:   -9.75 KCAL/MOL
REMARK 924 INTRA-LIGAND FREE ENERGY PREDICTED BY IDOCK:   -0.14 KCAL/MOL
REMARK 927      BINDING AFFINITY PREDICTED BY RF-SCORE:    0.00 PKD
ROOT
HETATM    1  C   UNK A   0      -7.004  19.962  70.156  1.00  0.00     0.055 C  
HETATM    2  N   UNK A   0      -6.930  20.019  68.704  1.00  0.00    -0.306 NA 
HETATM    3  C   UNK A   0      -5.581  20.003  68.069  1.00  0.00    -0.202 C  
HETATM    4  O   UNK A   0      -9.693  19.482  69.542  1.00  0.00    -0.269 OA 
HETATM    5  C   UNK A   0      -5.598  20.978  66.864  1.00  0.00    -0.229 C  
HETATM    6  C   UNK A   0     -10.193  19.598  66.164  1.00  0.00    -0.508 C  
HETATM    7  N   UNK A   0      -6.748  20.723  65.980  1.00  0.00    -0.420 NA 
HETATM    8  H   UNK A   0      -6.662  20.866  64.973  1.00  0.00     0.000 HD 
HETATM    9  H2  UNK A   0     -12.004  18.946  65.439  1.00  0.00     0.000 HD 
HETATM   10  C   UNK A   0      -7.954  20.287  66.523  1.00  0.00    -0.228 C  
HETATM   11  H   UNK A   0     -11.339  18.921  67.676  1.00  0.00     0.000 HD 
HETATM   12  C   UNK A   0      -8.065  20.000  67.846  1.00  0.00    -0.264 C  
HETATM   13  H1  UNK A   0     -10.905  19.570  64.213  1.00  0.00     0.000 HD 
HETATM   14  C   UNK A   0      -9.465  19.595  68.340  1.00  0.00    -0.370 C  
HETATM   15  N   UNK A   0      -9.034  20.115  65.708  1.00  0.00    -0.504 NA 
HETATM   16  N   UNK A   0     -11.102  19.354  65.190  1.00  0.00    -0.188 NA 
HETATM   17  N   UNK A   0     -10.444  19.325  67.399  1.00  0.00    -0.431 N  
ENDROOT
BRANCH   3  18
HETATM   18  C   UNK A   0      -5.205  18.562  67.629  1.00  0.00    -0.159 C  
BRANCH  18  19
HETATM   19  N   UNK A   0      -5.703  17.555  68.587  1.00  0.00    -0.160 NA 
HETATM   20  H   UNK A   0      -5.233  17.387  69.477  1.00  0.00     0.000 HD 
BRANCH  19  21
HETATM   21  C   UNK A   0      -6.852  16.840  68.218  1.00  0.00    -0.155 A  
HETATM   22  C   UNK A   0      -8.199  15.915  66.410  1.00  0.00    -0.264 A  
HETATM   23  C   UNK A   0      -9.082  15.370  67.343  1.00  0.00    -0.206 A  
HETATM   24  C   UNK A   0      -7.816  16.402  69.131  1.00  0.00    -0.214 A  
HETATM   25  C   UNK A   0      -7.098  16.655  66.851  1.00  0.00    -0.264 A  
HETATM   26  C   UNK A   0      -8.918  15.659  68.702  1.00  0.00    -0.202 A  
BRANCH  23  27
HETATM   27  C   UNK A   0     -10.196  14.505  66.879  1.00  0.00    -0.264 C  
ATOM     28  H   GLU A   1      -8.998  13.763  65.342  1.00  0.00     0.000 HD 
ATOM     29  N   GLU A   1      -9.932  13.743  65.752  1.00  0.00    -0.295 N  
HETATM   30  O   UNK A   0     -11.259  14.465  67.478  1.00  0.00    -0.291 OA 
BRANCH  29  31
ATOM     31  CA  GLU A   1     -10.976  12.899  65.132  1.00  0.00    -0.289 C  
ATOM     32  C   GLU A   1     -11.922  13.773  64.276  1.00  0.00    -0.443 C  
ATOM     33  O   GLU A   1     -11.662  15.099  64.348  1.00  0.00    -0.382 OA 
ATOM     34  OXT GLU A   1     -12.860  13.338  63.622  1.00  0.00    -0.620 OA 
BRANCH  31  35
ATOM     35  CB  GLU A   1     -11.754  12.142  66.225  1.00  0.00    -0.389 C  
BRANCH  35  36
ATOM     36  CG  GLU A   1     -10.941  11.030  66.900  1.00  0.00    -0.311 C  
ATOM     37  CD  GLU A   1     -11.383  10.763  68.317  1.00  0.00    -0.309 C  
ATOM     38  OE2 GLU A   1     -12.266  11.365  68.906  1.00  0.00    -0.458 OA 
ATOM     39  OE1 GLU A   1     -10.681   9.748  68.883  1.00  0.00    -0.216 OA 
ENDBRANCH  35  36
ENDBRANCH  31  35
ENDBRANCH  29  31
ENDBRANCH  23  27
ENDBRANCH  19  21
ENDBRANCH  18  19
ENDBRANCH   3  18
TORSDOF 7
ENDMDL
MODEL       87
REMARK 921   NORMALIZED FREE ENERGY PREDICTED BY IDOCK:   -6.15 KCAL/MOL
REMARK 922        TOTAL FREE ENERGY PREDICTED BY IDOCK:   -9.89 KCAL/MOL
REMARK 923 INTER-LIGAND FREE ENERGY PREDICTED BY IDOCK:   -8.47 KCAL/MOL
REMARK 924 INTRA-LIGAND FREE ENERGY PREDICTED BY IDOCK:   -1.42 KCAL/MOL
REMARK 927      BINDING AFFINITY PREDICTED BY RF-SCORE:    0.00 PKD
ROOT
HETATM    1  C   UNK A   0      -7.342  20.883  67.459  1.00  0.00    -0.281 C  
HETATM    2  N   UNK A   0      -7.218  19.458  67.194  1.00  0.00    -0.210 NA 
HETATM    3  C   UNK A   0      -6.044  18.738  67.768  1.00  0.00    -0.193 C  
HETATM    4  O   UNK A   0      -9.895  20.384  66.421  1.00  0.00    -0.400 OA 
HETATM    5  C   UNK A   0      -5.542  17.711  66.722  1.00  0.00    -0.159 C  
HETATM    6  C   UNK A   0     -10.193  17.111  65.487  1.00  0.00    -0.051 C  
HETATM    7  N   UNK A   0      -6.645  16.877  66.213  1.00  0.00    -0.181 NA 
HETATM    8  H   UNK A   0      -6.476  15.904  65.959  1.00  0.00     0.000 HD 
HETATM    9  H2  UNK A   0     -12.069  16.415  65.013  1.00  0.00     0.000 HD 
HETATM   10  C   UNK A   0      -7.919  17.424  66.078  1.00  0.00    -0.165 C  
HETATM   11  H   UNK A   0     -11.557  18.568  65.754  1.00  0.00     0.000 HD 
HETATM   12  C   UNK A   0      -8.188  18.687  66.497  1.00  0.00    -0.286 C  
HETATM   13  H1  UNK A   0     -10.778  15.234  64.817  1.00  0.00     0.000 HD 
HETATM   14  C   UNK A   0      -9.613  19.203  66.230  1.00  0.00    -0.348 C  
HETATM   15  N   UNK A   0      -8.920  16.667  65.544  1.00  0.00    -0.246 NA 
HETATM   16  N   UNK A   0     -11.079  16.175  65.072  1.00  0.00    -0.389 NA 
HETATM   17  N   UNK A   0     -10.574  18.300  65.809  1.00  0.00    -0.331 N  
ENDROOT
BRANCH   3  18
HETATM   18  C   UNK A   0      -6.432  18.047  69.104  1.00  0.00    -0.249 C  
BRANCH  18  19
HETATM   19  N   UNK A   0      -5.915  16.666  69.170  1.00  0.00    -0.153 NA 
HETATM   20  H   UNK A   0      -4.934  16.473  69.372  1.00  0.00     0.000 HD 
BRANCH  19  21
HETATM   21  C   UNK A   0      -6.834  15.631  68.941  1.00  0.00    -0.126 A  
HETATM   22  C   UNK A   0      -9.159  14.902  69.003  1.00  0.00    -0.175 A  
HETATM   23  C   UNK A   0      -8.788  13.667  68.470  1.00  0.00    -0.099 A  
HETATM   24  C   UNK A   0      -6.464  14.346  68.534  1.00  0.00    -0.094 A  
HETATM   25  C   UNK A   0      -8.180  15.870  69.246  1.00  0.00    -0.227 A  
HETATM   26  C   UNK A   0      -7.433  13.371  68.285  1.00  0.00    -0.129 A  
BRANCH  23  27
HETATM   27  C   UNK A   0      -9.836  12.674  68.123  1.00  0.00    -0.226 C  
ATOM     28  H   GLU A   1      -8.574  11.819  66.700  1.00  0.00     0.000 HD 
ATOM     29  N   GLU A   1      -9.509  11.790  67.107  1.00  0.00    -0.173 N  
HETATM   30  O   UNK A   0     -10.900  12.641  68.720  1.00  0.00    -0.237 OA 
BRANCH  29  31
ATOM     31  CA  GLU A   1     -10.488  10.802  66.603  1.00  0.00    -0.246 C  
ATOM     32  C   GLU A   1      -9.976   9.367  66.872  1.00  0.00    -0.229 C  
ATOM     33  O   GLU A   1      -8.735   9.317  67.409  1.00  0.00    -0.118 OA 
ATOM     34  OXT GLU A   1     -10.595   8.350  66.588  1.00  0.00    -0.262 OA 
BRANCH  31  35
ATOM     35  CB  GLU A   1     -10.736  11.033  65.101  1.00  0.00    -0.253 C  
BRANCH  35  36
ATOM     36  CG  GLU A   1     -10.983  12.502  64.737  1.00  0.00    -0.339 C  
ATOM     37  CD  GLU A   1     -12.135  12.681  63.781  1.00  0.00    -0.522 C  
ATOM     38  OE2 GLU A   1     -12.803  11.778  63.304  1.00  0.00    -0.627 OA 
ATOM     39  OE1 GLU A   1     -12.364  13.990  63.504  1.00  0.00    -0.748 OA 
ENDBRANCH  35  36
ENDBRANCH  31  35
ENDBRANCH  29  31
ENDBRANCH  23  27
ENDBRANCH  19  21
ENDBRANCH  18  19
ENDBRANCH   3  18
TORSDOF 7
ENDMDL
MODEL       88
REMARK 921   NORMALIZED FREE ENERGY PREDICTED BY IDOCK:   -6.11 KCAL/MOL
REMARK 922        TOTAL FREE ENERGY PREDICTED BY IDOCK:   -9.85 KCAL/MOL
REMARK 923 INTER-LIGAND FREE ENERGY PREDICTED BY IDOCK:   -8.19 KCAL/MOL
REMARK 924 INTRA-LIGAND FREE ENERGY PREDICTED BY IDOCK:   -1.66 KCAL/MOL
REMARK 927      BINDING AFFINITY PREDICTED BY RF-SCORE:    0.00 PKD
ROOT
HETATM    1  C   UNK A   0     -10.655   5.401  70.152  1.00  0.00    -0.274 C  
HETATM    2  N   UNK A   0      -9.794   6.158  69.256  1.00  0.00    -0.145 NA 
HETATM    3  C   UNK A   0      -9.871   5.865  67.796  1.00  0.00    -0.124 C  
HETATM    4  O   UNK A   0      -9.792   7.394  71.920  1.00  0.00    -0.162 OA 
HETATM    5  C   UNK A   0      -8.437   5.923  67.210  1.00  0.00    -0.103 C  
HETATM    6  C   UNK A   0      -7.585   9.496  70.376  1.00  0.00    -0.159 C  
HETATM    7  N   UNK A   0      -7.745   7.164  67.600  1.00  0.00    -0.110 NA 
HETATM    8  H   UNK A   0      -7.082   7.603  66.961  1.00  0.00     0.000 HD 
HETATM    9  H2  UNK A   0      -7.069  11.231  71.352  1.00  0.00     0.000 HD 
HETATM   10  C   UNK A   0      -7.999   7.734  68.845  1.00  0.00    -0.124 C  
HETATM   11  H   UNK A   0      -8.599   9.641  72.110  1.00  0.00     0.000 HD 
HETATM   12  C   UNK A   0      -8.945   7.221  69.673  1.00  0.00    -0.141 C  
HETATM   13  H1  UNK A   0      -6.245  10.980  69.816  1.00  0.00     0.000 HD 
HETATM   14  C   UNK A   0      -9.084   7.894  71.049  1.00  0.00    -0.143 C  
HETATM   15  N   UNK A   0      -7.306   8.845  69.227  1.00  0.00    -0.069 NA 
HETATM   16  N   UNK A   0      -6.910  10.661  70.521  1.00  0.00    -0.468 NA 
HETATM   17  N   UNK A   0      -8.425   9.092  71.267  1.00  0.00    -0.128 N  
ENDROOT
BRANCH   3  18
HETATM   18  C   UNK A   0     -10.815   6.876  67.090  1.00  0.00    -0.377 C  
BRANCH  18  19
HETATM   19  N   UNK A   0     -10.095   7.678  66.080  1.00  0.00    -0.413 NA 
HETATM   20  H   UNK A   0      -9.586   7.237  65.314  1.00  0.00     0.000 HD 
BRANCH  19  21
HETATM   21  C   UNK A   0     -10.143   9.072  66.224  1.00  0.00    -0.241 A  
HETATM   22  C   UNK A   0      -9.637  11.252  65.260  1.00  0.00    -0.265 A  
HETATM   23  C   UNK A   0     -10.230  11.878  66.357  1.00  0.00    -0.240 A  
HETATM   24  C   UNK A   0     -10.612   9.713  67.374  1.00  0.00    -0.333 A  
HETATM   25  C   UNK A   0      -9.586   9.856  65.205  1.00  0.00    -0.361 A  
HETATM   26  C   UNK A   0     -10.670  11.108  67.439  1.00  0.00    -0.294 A  
BRANCH  23  27
HETATM   27  C   UNK A   0     -10.369  13.356  66.370  1.00  0.00    -0.288 C  
ATOM     28  H   GLU A   1      -9.819  13.403  68.381  1.00  0.00     0.000 HD 
ATOM     29  N   GLU A   1     -10.129  13.968  67.590  1.00  0.00    -0.239 N  
HETATM   30  O   UNK A   0     -10.654  13.975  65.357  1.00  0.00    -0.306 OA 
BRANCH  29  31
ATOM     31  CA  GLU A   1     -10.311  15.425  67.769  1.00  0.00    -0.253 C  
ATOM     32  C   GLU A   1      -9.120  16.013  68.560  1.00  0.00    -0.203 C  
ATOM     33  O   GLU A   1      -8.235  15.085  68.994  1.00  0.00    -0.166 OA 
ATOM     34  OXT GLU A   1      -8.989  17.200  68.829  1.00  0.00    -0.264 OA 
BRANCH  31  35
ATOM     35  CB  GLU A   1     -11.646  15.701  68.484  1.00  0.00    -0.378 C  
BRANCH  35  36
ATOM     36  CG  GLU A   1     -12.085  14.572  69.424  1.00  0.00    -0.328 C  
ATOM     37  CD  GLU A   1     -12.222  15.025  70.856  1.00  0.00    -0.329 C  
ATOM     38  OE2 GLU A   1     -11.989  16.150  71.265  1.00  0.00    -0.427 OA 
ATOM     39  OE1 GLU A   1     -12.651  14.023  71.665  1.00  0.00    -0.331 OA 
ENDBRANCH  35  36
ENDBRANCH  31  35
ENDBRANCH  29  31
ENDBRANCH  23  27
ENDBRANCH  19  21
ENDBRANCH  18  19
ENDBRANCH   3  18
TORSDOF 7
ENDMDL
MODEL       89
REMARK 921   NORMALIZED FREE ENERGY PREDICTED BY IDOCK:   -6.11 KCAL/MOL
REMARK 922        TOTAL FREE ENERGY PREDICTED BY IDOCK:   -9.84 KCAL/MOL
REMARK 923 INTER-LIGAND FREE ENERGY PREDICTED BY IDOCK:   -8.38 KCAL/MOL
REMARK 924 INTRA-LIGAND FREE ENERGY PREDICTED BY IDOCK:   -1.46 KCAL/MOL
REMARK 927      BINDING AFFINITY PREDICTED BY RF-SCORE:    0.00 PKD
ROOT
HETATM    1  C   UNK A   0      -7.159   6.645  68.770  1.00  0.00    -0.082 C  
HETATM    2  N   UNK A   0      -8.361   7.206  68.170  1.00  0.00    -0.123 NA 
HETATM    3  C   UNK A   0      -9.606   7.236  68.991  1.00  0.00    -0.147 C  
HETATM    4  O   UNK A   0      -6.025   7.844  66.509  1.00  0.00    -0.039 OA 
HETATM    5  C   UNK A   0     -10.805   6.897  68.069  1.00  0.00    -0.200 C  
HETATM    6  C   UNK A   0      -8.443   9.291  64.576  1.00  0.00    -0.181 C  
HETATM    7  N   UNK A   0     -10.797   7.722  66.848  1.00  0.00    -0.490 NA 
HETATM    8  H   UNK A   0     -11.677   8.013  66.421  1.00  0.00     0.000 HD 
HETATM    9  H2  UNK A   0      -7.838  10.523  63.044  1.00  0.00     0.000 HD 
HETATM   10  C   UNK A   0      -9.584   8.102  66.280  1.00  0.00    -0.178 C  
HETATM   11  H   UNK A   0      -6.436   9.456  64.574  1.00  0.00     0.000 HD 
HETATM   12  C   UNK A   0      -8.403   7.808  66.882  1.00  0.00    -0.124 C  
HETATM   13  H1  UNK A   0      -9.580  10.291  63.154  1.00  0.00     0.000 HD 
HETATM   14  C   UNK A   0      -7.130   8.219  66.122  1.00  0.00    -0.065 C  
HETATM   15  N   UNK A   0      -9.583   8.810  65.114  1.00  0.00    -0.337 NA 
HETATM   16  N   UNK A   0      -8.642  10.098  63.507  1.00  0.00    -0.183 NA 
HETATM   17  N   UNK A   0      -7.258   9.048  65.021  1.00  0.00    -0.090 N  
ENDROOT
BRANCH   3  18
HETATM   18  C   UNK A   0      -9.779   8.625  69.663  1.00  0.00    -0.179 C  
BRANCH  18  19
HETATM   19  N   UNK A   0     -11.174   9.101  69.574  1.00  0.00    -0.437 NA 
HETATM   20  H   UNK A   0     -11.962   8.468  69.710  1.00  0.00     0.000 HD 
BRANCH  19  21
HETATM   21  C   UNK A   0     -11.364  10.462  69.293  1.00  0.00    -0.235 A  
HETATM   22  C   UNK A   0     -12.096  12.640  70.104  1.00  0.00    -0.368 A  
HETATM   23  C   UNK A   0     -11.739  13.217  68.885  1.00  0.00    -0.368 A  
HETATM   24  C   UNK A   0     -11.138  11.029  68.036  1.00  0.00    -0.343 A  
HETATM   25  C   UNK A   0     -11.918  11.267  70.297  1.00  0.00    -0.466 A  
HETATM   26  C   UNK A   0     -11.310  12.401  67.833  1.00  0.00    -0.344 A  
BRANCH  23  27
HETATM   27  C   UNK A   0     -11.839  14.688  68.713  1.00  0.00    -0.313 C  
ATOM     28  H   GLU A   1     -10.458  14.612  67.152  1.00  0.00     0.000 HD 
ATOM     29  N   GLU A   1     -11.024  15.232  67.732  1.00  0.00    -0.303 N  
HETATM   30  O   UNK A   0     -12.611  15.354  69.384  1.00  0.00    -0.096 OA 
BRANCH  29  31
ATOM     31  CA  GLU A   1     -10.959  16.693  67.509  1.00  0.00    -0.147 C  
ATOM     32  C   GLU A   1     -10.496  16.986  66.063  1.00  0.00    -0.274 C  
ATOM     33  O   GLU A   1     -10.164  15.880  65.357  1.00  0.00    -0.371 OA 
ATOM     34  OXT GLU A   1     -10.382  18.108  65.590  1.00  0.00    -0.603 OA 
BRANCH  31  35
ATOM     35  CB  GLU A   1     -10.014  17.338  68.539  1.00  0.00    -0.320 C  
BRANCH  35  36
ATOM     36  CG  GLU A   1      -8.716  16.551  68.760  1.00  0.00    -0.259 C  
ATOM     37  CD  GLU A   1      -7.496  17.436  68.800  1.00  0.00    -0.258 C  
ATOM     38  OE2 GLU A   1      -7.498  18.647  68.648  1.00  0.00    -0.291 OA 
ATOM     39  OE1 GLU A   1      -6.364  16.728  69.039  1.00  0.00    -0.164 OA 
ENDBRANCH  35  36
ENDBRANCH  31  35
ENDBRANCH  29  31
ENDBRANCH  23  27
ENDBRANCH  19  21
ENDBRANCH  18  19
ENDBRANCH   3  18
TORSDOF 7
ENDMDL
MODEL       90
REMARK 921   NORMALIZED FREE ENERGY PREDICTED BY IDOCK:   -6.11 KCAL/MOL
REMARK 922        TOTAL FREE ENERGY PREDICTED BY IDOCK:   -9.84 KCAL/MOL
REMARK 923 INTER-LIGAND FREE ENERGY PREDICTED BY IDOCK:   -8.64 KCAL/MOL
REMARK 924 INTRA-LIGAND FREE ENERGY PREDICTED BY IDOCK:   -1.20 KCAL/MOL
REMARK 927      BINDING AFFINITY PREDICTED BY RF-SCORE:    0.00 PKD
ROOT
HETATM    1  C   UNK A   0     -10.891  16.780  68.274  1.00  0.00    -0.366 C  
HETATM    2  N   UNK A   0      -9.680  16.673  67.474  1.00  0.00    -0.244 NA 
HETATM    3  C   UNK A   0      -9.224  15.312  67.070  1.00  0.00    -0.218 C  
HETATM    4  O   UNK A   0     -10.567  19.471  67.570  1.00  0.00    -0.444 OA 
HETATM    5  C   UNK A   0      -7.678  15.267  67.162  1.00  0.00    -0.203 C  
HETATM    6  C   UNK A   0      -7.734  19.893  65.708  1.00  0.00    -0.264 C  
HETATM    7  N   UNK A   0      -7.063  16.407  66.459  1.00  0.00    -0.172 NA 
HETATM    8  H   UNK A   0      -6.165  16.293  65.988  1.00  0.00     0.000 HD 
HETATM    9  H2  UNK A   0      -7.453  21.710  64.786  1.00  0.00     0.000 HD 
HETATM   10  C   UNK A   0      -7.712  17.639  66.440  1.00  0.00    -0.290 C  
HETATM   11  H   UNK A   0      -9.312  21.095  66.056  1.00  0.00     0.000 HD 
HETATM   12  C   UNK A   0      -8.950  17.788  66.978  1.00  0.00    -0.252 C  
HETATM   13  H1  UNK A   0      -6.136  20.562  64.562  1.00  0.00     0.000 HD 
HETATM   14  C   UNK A   0      -9.532  19.212  66.959  1.00  0.00    -0.316 C  
HETATM   15  N   UNK A   0      -7.107  18.706  65.845  1.00  0.00    -0.349 NA 
HETATM   16  N   UNK A   0      -7.048  20.789  64.958  1.00  0.00    -0.509 NA 
HETATM   17  N   UNK A   0      -8.886  20.180  66.209  1.00  0.00    -0.547 N  
ENDROOT
BRANCH   3  18
HETATM   18  C   UNK A   0      -9.719  14.978  65.636  1.00  0.00    -0.309 C  
BRANCH  18  19
HETATM   19  N   UNK A   0     -10.971  14.197  65.662  1.00  0.00    -0.300 NA 
HETATM   20  H   UNK A   0     -11.851  14.591  65.330  1.00  0.00     0.000 HD 
BRANCH  19  21
HETATM   21  C   UNK A   0     -10.895  12.890  66.164  1.00  0.00    -0.279 A  
HETATM   22  C   UNK A   0     -10.097  10.610  65.839  1.00  0.00    -0.321 A  
HETATM   23  C   UNK A   0     -10.615  10.248  67.082  1.00  0.00    -0.320 A  
HETATM   24  C   UNK A   0     -11.523  12.479  67.344  1.00  0.00    -0.404 A  
HETATM   25  C   UNK A   0     -10.250  11.923  65.383  1.00  0.00    -0.300 A  
HETATM   26  C   UNK A   0     -11.374  11.170  67.811  1.00  0.00    -0.364 A  
BRANCH  23  27
HETATM   27  C   UNK A   0     -10.370   8.882  67.609  1.00  0.00    -0.251 C  
ATOM     28  H   GLU A   1      -9.279   9.675  69.198  1.00  0.00     0.000 HD 
ATOM     29  N   GLU A   1      -9.589   8.812  68.751  1.00  0.00    -0.156 N  
HETATM   30  O   UNK A   0     -10.854   7.899  67.070  1.00  0.00    -0.305 OA 
BRANCH  29  31
ATOM     31  CA  GLU A   1      -9.197   7.511  69.337  1.00  0.00    -0.149 C  
ATOM     32  C   GLU A   1      -9.097   7.634  70.875  1.00  0.00    -0.149 C  
ATOM     33  O   GLU A   1      -9.289   8.889  71.341  1.00  0.00    -0.234 OA 
ATOM     34  OXT GLU A   1      -8.821   6.706  71.624  1.00  0.00    -0.134 OA 
BRANCH  31  35
ATOM     35  CB  GLU A   1      -7.863   7.045  68.727  1.00  0.00    -0.118 C  
BRANCH  35  36
ATOM     36  CG  GLU A   1      -8.007   5.855  67.769  1.00  0.00    -0.098 C  
ATOM     37  CD  GLU A   1      -7.809   6.242  66.325  1.00  0.00    -0.104 C  
ATOM     38  OE2 GLU A   1      -7.587   7.371  65.921  1.00  0.00    -0.083 OA 
ATOM     39  OE1 GLU A   1      -7.898   5.170  65.497  1.00  0.00    -0.089 OA 
ENDBRANCH  35  36
ENDBRANCH  31  35
ENDBRANCH  29  31
ENDBRANCH  23  27
ENDBRANCH  19  21
ENDBRANCH  18  19
ENDBRANCH   3  18
TORSDOF 7
ENDMDL
MODEL       91
REMARK 921   NORMALIZED FREE ENERGY PREDICTED BY IDOCK:   -6.10 KCAL/MOL
REMARK 922        TOTAL FREE ENERGY PREDICTED BY IDOCK:   -9.83 KCAL/MOL
REMARK 923 INTER-LIGAND FREE ENERGY PREDICTED BY IDOCK:   -8.87 KCAL/MOL
REMARK 924 INTRA-LIGAND FREE ENERGY PREDICTED BY IDOCK:   -0.95 KCAL/MOL
REMARK 927      BINDING AFFINITY PREDICTED BY RF-SCORE:    0.00 PKD
ROOT
HETATM    1  C   UNK A   0     -11.361   6.453  70.010  1.00  0.00    -0.430 C  
HETATM    2  N   UNK A   0     -10.282   7.382  70.307  1.00  0.00    -0.198 NA 
HETATM    3  C   UNK A   0     -10.296   8.712  69.632  1.00  0.00    -0.213 C  
HETATM    4  O   UNK A   0     -10.239   5.159  72.225  1.00  0.00    -0.188 OA 
HETATM    5  C   UNK A   0      -8.839   9.082  69.252  1.00  0.00    -0.139 C  
HETATM    6  C   UNK A   0      -7.501   6.865  73.353  1.00  0.00    -0.080 C  
HETATM    7  N   UNK A   0      -7.928   8.932  70.401  1.00  0.00    -0.102 NA 
HETATM    8  H   UNK A   0      -7.133   9.562  70.509  1.00  0.00     0.000 HD 
HETATM    9  H2  UNK A   0      -6.704   6.310  75.165  1.00  0.00     0.000 HD 
HETATM   10  C   UNK A   0      -8.157   7.927  71.338  1.00  0.00    -0.102 C  
HETATM   11  H   UNK A   0      -8.604   5.391  74.170  1.00  0.00     0.000 HD 
HETATM   12  C   UNK A   0      -9.261   7.139  71.266  1.00  0.00    -0.151 C  
HETATM   13  H1  UNK A   0      -5.826   7.594  74.340  1.00  0.00     0.000 HD 
HETATM   14  C   UNK A   0      -9.366   6.019  72.317  1.00  0.00    -0.143 C  
HETATM   15  N   UNK A   0      -7.274   7.753  72.362  1.00  0.00    -0.077 NA 
HETATM   16  N   UNK A   0      -6.603   6.933  74.363  1.00  0.00    -0.083 NA 
HETATM   17  N   UNK A   0      -8.482   6.029  73.382  1.00  0.00    -0.117 N  
ENDROOT
BRANCH   3  18
HETATM   18  C   UNK A   0     -10.932   9.783  70.558  1.00  0.00    -0.321 C  
BRANCH  18  19
HETATM   19  N   UNK A   0     -12.123  10.398  69.938  1.00  0.00    -0.467 NA 
HETATM   20  H   UNK A   0     -13.067  10.108  70.196  1.00  0.00     0.000 HD 
BRANCH  19  21
HETATM   21  C   UNK A   0     -11.898  11.396  68.979  1.00  0.00    -0.348 A  
HETATM   22  C   UNK A   0     -11.892  13.776  68.458  1.00  0.00    -0.406 A  
HETATM   23  C   UNK A   0     -11.424  13.496  67.174  1.00  0.00    -0.368 A  
HETATM   24  C   UNK A   0     -11.559  11.126  67.650  1.00  0.00    -0.266 A  
HETATM   25  C   UNK A   0     -12.137  12.726  69.347  1.00  0.00    -0.248 A  
HETATM   26  C   UNK A   0     -11.308  12.167  66.753  1.00  0.00    -0.398 A  
BRANCH  23  27
HETATM   27  C   UNK A   0     -11.074  14.615  66.262  1.00  0.00    -0.336 C  
ATOM     28  H   GLU A   1      -9.617  15.269  67.603  1.00  0.00     0.000 HD 
ATOM     29  N   GLU A   1     -10.085  15.472  66.719  1.00  0.00    -0.257 N  
HETATM   30  O   UNK A   0     -11.615  14.740  65.175  1.00  0.00    -0.354 OA 
BRANCH  29  31
ATOM     31  CA  GLU A   1      -9.694  16.674  65.952  1.00  0.00    -0.237 C  
ATOM     32  C   GLU A   1      -8.206  17.005  66.211  1.00  0.00    -0.287 C  
ATOM     33  O   GLU A   1      -7.616  16.206  67.131  1.00  0.00    -0.160 OA 
ATOM     34  OXT GLU A   1      -7.603  17.930  65.683  1.00  0.00    -0.546 OA 
BRANCH  31  35
ATOM     35  CB  GLU A   1     -10.602  17.857  66.336  1.00  0.00    -0.238 C  
BRANCH  35  36
ATOM     36  CG  GLU A   1     -10.534  18.228  67.822  1.00  0.00    -0.430 C  
ATOM     37  CD  GLU A   1      -9.966  19.606  68.054  1.00  0.00    -0.427 C  
ATOM     38  OE2 GLU A   1      -9.566  20.360  67.182  1.00  0.00    -0.412 OA 
ATOM     39  OE1 GLU A   1      -9.953  19.933  69.371  1.00  0.00    -0.345 OA 
ENDBRANCH  35  36
ENDBRANCH  31  35
ENDBRANCH  29  31
ENDBRANCH  23  27
ENDBRANCH  19  21
ENDBRANCH  18  19
ENDBRANCH   3  18
TORSDOF 7
ENDMDL
MODEL       92
REMARK 921   NORMALIZED FREE ENERGY PREDICTED BY IDOCK:   -6.09 KCAL/MOL
REMARK 922        TOTAL FREE ENERGY PREDICTED BY IDOCK:   -9.82 KCAL/MOL
REMARK 923 INTER-LIGAND FREE ENERGY PREDICTED BY IDOCK:   -8.95 KCAL/MOL
REMARK 924 INTRA-LIGAND FREE ENERGY PREDICTED BY IDOCK:   -0.87 KCAL/MOL
REMARK 927      BINDING AFFINITY PREDICTED BY RF-SCORE:    0.00 PKD
ROOT
HETATM    1  C   UNK A   0      -8.471  13.016  67.259  1.00  0.00    -0.199 C  
HETATM    2  N   UNK A   0      -9.486  13.458  66.314  1.00  0.00    -0.420 NA 
HETATM    3  C   UNK A   0     -10.407  12.433  65.745  1.00  0.00    -0.263 C  
HETATM    4  O   UNK A   0      -8.278  15.784  67.639  1.00  0.00    -0.143 OA 
HETATM    5  C   UNK A   0     -10.649  12.769  64.251  1.00  0.00    -0.400 C  
HETATM    6  C   UNK A   0     -10.420  17.435  65.551  1.00  0.00    -0.101 C  
HETATM    7  N   UNK A   0     -11.036  14.179  64.072  1.00  0.00    -0.504 NA 
HETATM    8  H   UNK A   0     -11.688  14.441  63.332  1.00  0.00     0.000 HD 
HETATM    9  H2  UNK A   0     -10.714  19.445  65.872  1.00  0.00     0.000 HD 
HETATM   10  C   UNK A   0     -10.508  15.153  64.916  1.00  0.00    -0.319 C  
HETATM   11  H   UNK A   0      -9.379  18.036  67.166  1.00  0.00     0.000 HD 
HETATM   12  C   UNK A   0      -9.715  14.818  65.965  1.00  0.00    -0.321 C  
HETATM   13  H1  UNK A   0     -11.571  18.792  64.479  1.00  0.00     0.000 HD 
HETATM   14  C   UNK A   0      -9.136  15.986  66.782  1.00  0.00    -0.244 C  
HETATM   15  N   UNK A   0     -10.819  16.464  64.704  1.00  0.00    -0.869 NA 
HETATM   16  N   UNK A   0     -10.946  18.652  65.274  1.00  0.00    -0.360 NA 
HETATM   17  N   UNK A   0      -9.631  17.259  66.555  1.00  0.00    -0.262 N  
ENDROOT
BRANCH   3  18
HETATM   18  C   UNK A   0     -11.739  12.398  66.543  1.00  0.00    -0.379 C  
BRANCH  18  19
HETATM   19  N   UNK A   0     -11.502  12.469  67.998  1.00  0.00    -0.294 NA 
HETATM   20  H   UNK A   0     -11.419  13.363  68.481  1.00  0.00     0.000 HD 
BRANCH  19  21
HETATM   21  C   UNK A   0     -11.396  11.250  68.685  1.00  0.00    -0.273 A  
HETATM   22  C   UNK A   0     -11.755  10.029  70.763  1.00  0.00    -0.437 A  
HETATM   23  C   UNK A   0     -11.294   8.859  70.158  1.00  0.00    -0.119 A  
HETATM   24  C   UNK A   0     -10.814  10.104  68.136  1.00  0.00    -0.310 A  
HETATM   25  C   UNK A   0     -11.791  11.218  70.028  1.00  0.00    -0.448 A  
HETATM   26  C   UNK A   0     -10.775   8.909  68.860  1.00  0.00    -0.132 A  
BRANCH  23  27
HETATM   27  C   UNK A   0     -11.345   7.578  70.907  1.00  0.00    -0.277 C  
ATOM     28  H   GLU A   1      -9.400   7.888  71.593  1.00  0.00     0.000 HD 
ATOM     29  N   GLU A   1     -10.186   7.238  71.588  1.00  0.00    -0.193 N  
HETATM   30  O   UNK A   0     -12.357   6.896  70.929  1.00  0.00    -0.386 OA 
BRANCH  29  31
ATOM     31  CA  GLU A   1     -10.067   5.951  72.307  1.00  0.00    -0.182 C  
ATOM     32  C   GLU A   1      -9.513   6.191  73.731  1.00  0.00    -0.146 C  
ATOM     33  O   GLU A   1      -9.173   7.477  73.979  1.00  0.00    -0.254 OA 
ATOM     34  OXT GLU A   1      -9.339   5.310  74.561  1.00  0.00    -0.120 OA 
BRANCH  31  35
ATOM     35  CB  GLU A   1      -9.164   4.990  71.513  1.00  0.00    -0.181 C  
BRANCH  35  36
ATOM     36  CG  GLU A   1      -9.898   4.239  70.395  1.00  0.00    -0.268 C  
ATOM     37  CD  GLU A   1      -9.588   4.786  69.024  1.00  0.00    -0.165 C  
ATOM     38  OE2 GLU A   1      -8.861   5.739  68.792  1.00  0.00    -0.110 OA 
ATOM     39  OE1 GLU A   1     -10.213   4.084  68.045  1.00  0.00     0.130 OA 
ENDBRANCH  35  36
ENDBRANCH  31  35
ENDBRANCH  29  31
ENDBRANCH  23  27
ENDBRANCH  19  21
ENDBRANCH  18  19
ENDBRANCH   3  18
TORSDOF 7
ENDMDL
MODEL       93
REMARK 921   NORMALIZED FREE ENERGY PREDICTED BY IDOCK:   -6.07 KCAL/MOL
REMARK 922        TOTAL FREE ENERGY PREDICTED BY IDOCK:   -9.79 KCAL/MOL
REMARK 923 INTER-LIGAND FREE ENERGY PREDICTED BY IDOCK:   -8.77 KCAL/MOL
REMARK 924 INTRA-LIGAND FREE ENERGY PREDICTED BY IDOCK:   -1.01 KCAL/MOL
REMARK 927      BINDING AFFINITY PREDICTED BY RF-SCORE:    0.00 PKD
ROOT
HETATM    1  C   UNK A   0     -13.481   9.964  70.852  1.00  0.00    -0.122 C  
HETATM    2  N   UNK A   0     -12.236  10.324  70.191  1.00  0.00    -0.467 NA 
HETATM    3  C   UNK A   0     -12.270  11.422  69.182  1.00  0.00    -0.175 C  
HETATM    4  O   UNK A   0     -11.677   8.573  72.481  1.00  0.00    -0.380 OA 
HETATM    5  C   UNK A   0     -11.333  11.036  68.009  1.00  0.00    -0.306 C  
HETATM    6  C   UNK A   0      -8.481   8.956  71.334  1.00  0.00    -0.153 C  
HETATM    7  N   UNK A   0     -10.004  10.624  68.493  1.00  0.00    -0.160 NA 
HETATM    8  H   UNK A   0      -9.172  10.828  67.940  1.00  0.00     0.000 HD 
HETATM    9  H2  UNK A   0      -6.945   8.317  72.542  1.00  0.00     0.000 HD 
HETATM   10  C   UNK A   0      -9.889   9.954  69.709  1.00  0.00    -0.236 C  
HETATM   11  H   UNK A   0      -9.216   8.259  73.075  1.00  0.00     0.000 HD 
HETATM   12  C   UNK A   0     -10.971   9.756  70.506  1.00  0.00    -0.321 C  
HETATM   13  H1  UNK A   0      -6.435   8.949  70.980  1.00  0.00     0.000 HD 
HETATM   14  C   UNK A   0     -10.730   8.942  71.790  1.00  0.00    -0.362 C  
HETATM   15  N   UNK A   0      -8.665   9.517  70.121  1.00  0.00    -0.215 NA 
HETATM   16  N   UNK A   0      -7.182   8.724  71.637  1.00  0.00    -0.196 NA 
HETATM   17  N   UNK A   0      -9.425   8.672  72.165  1.00  0.00    -0.305 N  
ENDROOT
BRANCH   3  18
HETATM   18  C   UNK A   0     -11.845  12.767  69.831  1.00  0.00    -0.301 C  
BRANCH  18  19
HETATM   19  N   UNK A   0     -12.073  13.905  68.918  1.00  0.00    -0.421 NA 
HETATM   20  H   UNK A   0     -12.965  14.036  68.442  1.00  0.00     0.000 HD 
BRANCH  19  21
HETATM   21  C   UNK A   0     -11.005  14.797  68.736  1.00  0.00    -0.259 A  
HETATM   22  C   UNK A   0      -8.683  15.107  68.064  1.00  0.00    -0.165 A  
HETATM   23  C   UNK A   0      -8.805  16.482  68.269  1.00  0.00    -0.210 A  
HETATM   24  C   UNK A   0     -11.070  16.155  69.063  1.00  0.00    -0.336 A  
HETATM   25  C   UNK A   0      -9.778  14.273  68.309  1.00  0.00    -0.221 A  
HETATM   26  C   UNK A   0      -9.983  16.998  68.819  1.00  0.00    -0.293 A  
BRANCH  23  27
HETATM   27  C   UNK A   0      -7.674  17.378  67.919  1.00  0.00    -0.199 C  
ATOM     28  H   GLU A   1      -8.340  18.784  69.307  1.00  0.00     0.000 HD 
ATOM     29  N   GLU A   1      -7.644  18.592  68.587  1.00  0.00    -0.304 N  
HETATM   30  O   UNK A   0      -6.824  17.039  67.110  1.00  0.00    -0.147 OA 
BRANCH  29  31
ATOM     31  CA  GLU A   1      -6.622  19.615  68.276  1.00  0.00    -0.259 C  
ATOM     32  C   GLU A   1      -6.064  20.218  69.587  1.00  0.00    -0.344 C  
ATOM     33  O   GLU A   1      -6.677  19.767  70.705  1.00  0.00     0.002 OA 
ATOM     34  OXT GLU A   1      -5.183  21.066  69.635  1.00  0.00    -0.362 OA 
BRANCH  31  35
ATOM     35  CB  GLU A   1      -7.230  20.705  67.376  1.00  0.00    -0.391 C  
BRANCH  35  36
ATOM     36  CG  GLU A   1      -6.277  21.201  66.281  1.00  0.00    -0.310 C  
ATOM     37  CD  GLU A   1      -6.272  20.309  65.064  1.00  0.00    -0.271 C  
ATOM     38  OE2 GLU A   1      -6.918  19.282  64.940  1.00  0.00    -0.391 OA 
ATOM     39  OE1 GLU A   1      -5.456  20.787  64.091  1.00  0.00    -0.193 OA 
ENDBRANCH  35  36
ENDBRANCH  31  35
ENDBRANCH  29  31
ENDBRANCH  23  27
ENDBRANCH  19  21
ENDBRANCH  18  19
ENDBRANCH   3  18
TORSDOF 7
ENDMDL
MODEL       94
REMARK 921   NORMALIZED FREE ENERGY PREDICTED BY IDOCK:   -6.07 KCAL/MOL
REMARK 922        TOTAL FREE ENERGY PREDICTED BY IDOCK:   -9.79 KCAL/MOL
REMARK 923 INTER-LIGAND FREE ENERGY PREDICTED BY IDOCK:   -8.35 KCAL/MOL
REMARK 924 INTRA-LIGAND FREE ENERGY PREDICTED BY IDOCK:   -1.44 KCAL/MOL
REMARK 927      BINDING AFFINITY PREDICTED BY RF-SCORE:    0.00 PKD
ROOT
HETATM    1  C   UNK A   0     -10.850   5.470  70.117  1.00  0.00    -0.229 C  
HETATM    2  N   UNK A   0      -9.960   6.213  69.237  1.00  0.00    -0.151 NA 
HETATM    3  C   UNK A   0     -10.047   5.956  67.771  1.00  0.00    -0.159 C  
HETATM    4  O   UNK A   0      -9.913   7.388  71.928  1.00  0.00    -0.170 OA 
HETATM    5  C   UNK A   0      -8.612   5.972  67.186  1.00  0.00    -0.106 C  
HETATM    6  C   UNK A   0      -7.625   9.438  70.432  1.00  0.00    -0.145 C  
HETATM    7  N   UNK A   0      -7.873   7.176  67.604  1.00  0.00    -0.111 NA 
HETATM    8  H   UNK A   0      -7.193   7.603  66.975  1.00  0.00     0.000 HD 
HETATM    9  H2  UNK A   0      -7.044  11.130  71.446  1.00  0.00     0.000 HD 
HETATM   10  C   UNK A   0      -8.105   7.728  68.862  1.00  0.00    -0.126 C  
HETATM   11  H   UNK A   0      -8.635   9.583  72.168  1.00  0.00     0.000 HD 
HETATM   12  C   UNK A   0      -9.071   7.233  69.678  1.00  0.00    -0.140 C  
HETATM   13  H1  UNK A   0      -6.229  10.882  69.905  1.00  0.00     0.000 HD 
HETATM   14  C   UNK A   0      -9.185   7.880  71.069  1.00  0.00    -0.151 C  
HETATM   15  N   UNK A   0      -7.371   8.802  69.269  1.00  0.00    -0.069 NA 
HETATM   16  N   UNK A   0      -6.906  10.572  70.602  1.00  0.00    -0.447 NA 
HETATM   17  N   UNK A   0      -8.481   9.047  71.313  1.00  0.00    -0.175 N  
ENDROOT
BRANCH   3  18
HETATM   18  C   UNK A   0     -10.952   7.018  67.088  1.00  0.00    -0.323 C  
BRANCH  18  19
HETATM   19  N   UNK A   0     -10.158   7.974  66.291  1.00  0.00    -0.481 NA 
HETATM   20  H   UNK A   0      -9.405   7.662  65.679  1.00  0.00     0.000 HD 
BRANCH  19  21
HETATM   21  C   UNK A   0     -10.488   9.332  66.414  1.00  0.00    -0.087 A  
HETATM   22  C   UNK A   0     -10.633  11.514  65.339  1.00  0.00    -0.336 A  
HETATM   23  C   UNK A   0     -11.168  12.057  66.507  1.00  0.00    -0.387 A  
HETATM   24  C   UNK A   0     -10.899   9.920  67.614  1.00  0.00    -0.318 A  
HETATM   25  C   UNK A   0     -10.286  10.160  65.303  1.00  0.00    -0.261 A  
HETATM   26  C   UNK A   0     -11.252  11.271  67.661  1.00  0.00    -0.357 A  
BRANCH  23  27
HETATM   27  C   UNK A   0     -11.626  13.470  66.515  1.00  0.00    -0.359 C  
ATOM     28  H   GLU A   1      -9.781  14.076  67.275  1.00  0.00     0.000 HD 
ATOM     29  N   GLU A   1     -10.714  14.390  67.007  1.00  0.00    -0.282 N  
HETATM   30  O   UNK A   0     -12.727  13.782  66.091  1.00  0.00    -0.407 OA 
BRANCH  29  31
ATOM     31  CA  GLU A   1     -11.065  15.820  67.151  1.00  0.00    -0.180 C  
ATOM     32  C   GLU A   1     -10.345  16.652  66.065  1.00  0.00    -0.340 C  
ATOM     33  O   GLU A   1      -9.494  15.935  65.295  1.00  0.00    -0.306 OA 
ATOM     34  OXT GLU A   1     -10.474  17.861  65.924  1.00  0.00    -0.497 OA 
BRANCH  31  35
ATOM     35  CB  GLU A   1     -10.698  16.309  68.564  1.00  0.00    -0.307 C  
BRANCH  35  36
ATOM     36  CG  GLU A   1      -9.610  15.468  69.242  1.00  0.00    -0.266 C  
ATOM     37  CD  GLU A   1      -8.250  16.117  69.186  1.00  0.00    -0.230 C  
ATOM     38  OE2 GLU A   1      -7.998  17.180  68.644  1.00  0.00    -0.248 OA 
ATOM     39  OE1 GLU A   1      -7.310  15.379  69.829  1.00  0.00    -0.197 OA 
ENDBRANCH  35  36
ENDBRANCH  31  35
ENDBRANCH  29  31
ENDBRANCH  23  27
ENDBRANCH  19  21
ENDBRANCH  18  19
ENDBRANCH   3  18
TORSDOF 7
ENDMDL
MODEL       95
REMARK 921   NORMALIZED FREE ENERGY PREDICTED BY IDOCK:   -6.06 KCAL/MOL
REMARK 922        TOTAL FREE ENERGY PREDICTED BY IDOCK:   -9.77 KCAL/MOL
REMARK 923 INTER-LIGAND FREE ENERGY PREDICTED BY IDOCK:   -8.79 KCAL/MOL
REMARK 924 INTRA-LIGAND FREE ENERGY PREDICTED BY IDOCK:   -0.97 KCAL/MOL
REMARK 927      BINDING AFFINITY PREDICTED BY RF-SCORE:    0.00 PKD
ROOT
HETATM    1  C   UNK A   0      -8.674   9.656  69.897  1.00  0.00    -0.219 C  
HETATM    2  N   UNK A   0      -9.266   8.563  70.653  1.00  0.00    -0.155 NA 
HETATM    3  C   UNK A   0     -10.198   8.904  71.766  1.00  0.00    -0.344 C  
HETATM    4  O   UNK A   0      -7.983   7.517  68.227  1.00  0.00    -0.119 OA 
HETATM    5  C   UNK A   0      -9.937   7.925  72.939  1.00  0.00    -0.294 C  
HETATM    6  C   UNK A   0      -9.043   4.558  69.566  1.00  0.00    -0.110 C  
HETATM    7  N   UNK A   0      -9.936   6.524  72.482  1.00  0.00    -0.170 NA 
HETATM    8  H   UNK A   0     -10.284   5.786  73.095  1.00  0.00     0.000 HD 
HETATM    9  H2  UNK A   0      -8.958   2.882  68.377  1.00  0.00     0.000 HD 
HETATM   10  C   UNK A   0      -9.458   6.212  71.212  1.00  0.00    -0.163 C  
HETATM   11  H   UNK A   0      -8.380   5.047  67.729  1.00  0.00     0.000 HD 
HETATM   12  C   UNK A   0      -9.080   7.187  70.345  1.00  0.00    -0.156 C  
HETATM   13  H1  UNK A   0      -9.521   2.588  70.020  1.00  0.00     0.000 HD 
HETATM   14  C   UNK A   0      -8.504   6.715  68.999  1.00  0.00    -0.130 C  
HETATM   15  N   UNK A   0      -9.399   4.908  70.820  1.00  0.00    -0.144 NA 
HETATM   16  N   UNK A   0      -9.188   3.237  69.306  1.00  0.00    -0.138 NA 
HETATM   17  N   UNK A   0      -8.621   5.377  68.664  1.00  0.00    -0.095 N  
ENDROOT
BRANCH   3  18
HETATM   18  C   UNK A   0     -11.671   8.830  71.280  1.00  0.00    -0.298 C  
BRANCH  18  19
HETATM   19  N   UNK A   0     -12.389  10.097  71.528  1.00  0.00    -0.397 NA 
HETATM   20  H   UNK A   0     -12.961  10.231  72.361  1.00  0.00     0.000 HD 
BRANCH  19  21
HETATM   21  C   UNK A   0     -12.248  11.106  70.563  1.00  0.00    -0.384 A  
HETATM   22  C   UNK A   0     -12.414  13.480  70.040  1.00  0.00    -0.231 A  
HETATM   23  C   UNK A   0     -11.949  13.230  68.748  1.00  0.00    -0.335 A  
HETATM   24  C   UNK A   0     -11.912  10.857  69.229  1.00  0.00    -0.382 A  
HETATM   25  C   UNK A   0     -12.572  12.417  70.934  1.00  0.00    -0.337 A  
HETATM   26  C   UNK A   0     -11.748  11.911  68.327  1.00  0.00    -0.385 A  
BRANCH  23  27
HETATM   27  C   UNK A   0     -11.691  14.368  67.830  1.00  0.00    -0.376 C  
ATOM     28  H   GLU A   1     -10.027  14.919  68.959  1.00  0.00     0.000 HD 
ATOM     29  N   GLU A   1     -10.611  15.171  68.162  1.00  0.00    -0.241 N  
HETATM   30  O   UNK A   0     -12.381  14.552  66.840  1.00  0.00    -0.319 OA 
BRANCH  29  31
ATOM     31  CA  GLU A   1     -10.289  16.386  67.383  1.00  0.00    -0.295 C  
ATOM     32  C   GLU A   1      -9.146  16.086  66.384  1.00  0.00    -0.319 C  
ATOM     33  O   GLU A   1      -8.631  14.840  66.496  1.00  0.00    -0.198 OA 
ATOM     34  OXT GLU A   1      -8.694  16.898  65.589  1.00  0.00    -0.460 OA 
BRANCH  31  35
ATOM     35  CB  GLU A   1      -9.908  17.533  68.337  1.00  0.00    -0.325 C  
BRANCH  35  36
ATOM     36  CG  GLU A   1     -10.256  18.925  67.794  1.00  0.00    -0.458 C  
ATOM     37  CD  GLU A   1      -9.035  19.771  67.532  1.00  0.00    -0.326 C  
ATOM     38  OE2 GLU A   1      -7.882  19.430  67.743  1.00  0.00    -0.267 OA 
ATOM     39  OE1 GLU A   1      -9.360  20.982  67.013  1.00  0.00    -0.223 OA 
ENDBRANCH  35  36
ENDBRANCH  31  35
ENDBRANCH  29  31
ENDBRANCH  23  27
ENDBRANCH  19  21
ENDBRANCH  18  19
ENDBRANCH   3  18
TORSDOF 7
ENDMDL
MODEL       96
REMARK 921   NORMALIZED FREE ENERGY PREDICTED BY IDOCK:   -6.04 KCAL/MOL
REMARK 922        TOTAL FREE ENERGY PREDICTED BY IDOCK:   -9.74 KCAL/MOL
REMARK 923 INTER-LIGAND FREE ENERGY PREDICTED BY IDOCK:   -8.26 KCAL/MOL
REMARK 924 INTRA-LIGAND FREE ENERGY PREDICTED BY IDOCK:   -1.48 KCAL/MOL
REMARK 927      BINDING AFFINITY PREDICTED BY RF-SCORE:    0.00 PKD
ROOT
HETATM    1  C   UNK A   0      -7.048  19.465  69.565  1.00  0.00    -0.209 C  
HETATM    2  N   UNK A   0      -7.062  18.446  68.526  1.00  0.00    -0.263 NA 
HETATM    3  C   UNK A   0      -6.007  17.392  68.563  1.00  0.00    -0.162 C  
HETATM    4  O   UNK A   0      -9.576  19.963  68.468  1.00  0.00    -0.337 OA 
HETATM    5  C   UNK A   0      -5.560  17.099  67.109  1.00  0.00    -0.158 C  
HETATM    6  C   UNK A   0     -10.169  17.883  65.824  1.00  0.00    -0.129 C  
HETATM    7  N   UNK A   0      -6.714  16.848  66.229  1.00  0.00    -0.164 NA 
HETATM    8  H   UNK A   0      -6.636  16.184  65.459  1.00  0.00     0.000 HD 
HETATM    9  H2  UNK A   0     -12.079  17.817  65.065  1.00  0.00     0.000 HD 
HETATM   10  C   UNK A   0      -7.912  17.523  66.453  1.00  0.00    -0.285 C  
HETATM   11  H   UNK A   0     -11.383  19.075  66.902  1.00  0.00     0.000 HD 
HETATM   12  C   UNK A   0      -8.068  18.339  67.527  1.00  0.00    -0.239 C  
HETATM   13  H1  UNK A   0     -10.913  16.816  64.205  1.00  0.00     0.000 HD 
HETATM   14  C   UNK A   0      -9.412  19.082  67.628  1.00  0.00    -0.306 C  
HETATM   15  N   UNK A   0      -8.957  17.336  65.596  1.00  0.00    -0.326 NA 
HETATM   16  N   UNK A   0     -11.126  17.469  64.959  1.00  0.00    -0.662 NA 
HETATM   17  N   UNK A   0     -10.438  18.708  66.777  1.00  0.00    -0.399 N  
ENDROOT
BRANCH   3  18
HETATM   18  C   UNK A   0      -6.543  16.113  69.262  1.00  0.00    -0.189 C  
BRANCH  18  19
HETATM   19  N   UNK A   0      -6.381  14.920  68.409  1.00  0.00    -0.097 NA 
HETATM   20  H   UNK A   0      -5.547  14.782  67.838  1.00  0.00     0.000 HD 
BRANCH  19  21
HETATM   21  C   UNK A   0      -7.427  13.985  68.418  1.00  0.00    -0.119 A  
HETATM   22  C   UNK A   0      -8.080  11.637  68.387  1.00  0.00    -0.153 A  
HETATM   23  C   UNK A   0      -9.421  12.006  68.491  1.00  0.00    -0.136 A  
HETATM   24  C   UNK A   0      -8.779  14.339  68.387  1.00  0.00    -0.181 A  
HETATM   25  C   UNK A   0      -7.093  12.627  68.339  1.00  0.00    -0.101 A  
HETATM   26  C   UNK A   0      -9.773  13.359  68.438  1.00  0.00    -0.201 A  
BRANCH  23  27
HETATM   27  C   UNK A   0     -10.461  10.956  68.639  1.00  0.00    -0.194 C  
ATOM     28  H   GLU A   1     -10.308  11.078  70.715  1.00  0.00     0.000 HD 
ATOM     29  N   GLU A   1     -10.757  10.587  69.941  1.00  0.00    -0.266 N  
HETATM   30  O   UNK A   0     -11.023  10.480  67.665  1.00  0.00    -0.279 OA 
BRANCH  29  31
ATOM     31  CA  GLU A   1     -11.712   9.496  70.233  1.00  0.00    -0.117 C  
ATOM     32  C   GLU A   1     -12.914  10.047  71.036  1.00  0.00    -0.360 C  
ATOM     33  O   GLU A   1     -12.798  11.351  71.376  1.00  0.00    -0.413 OA 
ATOM     34  OXT GLU A   1     -13.874   9.375  71.388  1.00  0.00    -0.336 OA 
BRANCH  31  35
ATOM     35  CB  GLU A   1     -10.999   8.368  71.001  1.00  0.00    -0.288 C  
BRANCH  35  36
ATOM     36  CG  GLU A   1      -9.548   8.698  71.371  1.00  0.00    -0.313 C  
ATOM     37  CD  GLU A   1      -9.226   8.381  72.810  1.00  0.00    -0.241 C  
ATOM     38  OE2 GLU A   1     -10.015   7.938  73.628  1.00  0.00    -0.249 OA 
ATOM     39  OE1 GLU A   1      -7.927   8.640  73.106  1.00  0.00    -0.392 OA 
ENDBRANCH  35  36
ENDBRANCH  31  35
ENDBRANCH  29  31
ENDBRANCH  23  27
ENDBRANCH  19  21
ENDBRANCH  18  19
ENDBRANCH   3  18
TORSDOF 7
ENDMDL
MODEL       97
REMARK 921   NORMALIZED FREE ENERGY PREDICTED BY IDOCK:   -6.03 KCAL/MOL
REMARK 922        TOTAL FREE ENERGY PREDICTED BY IDOCK:   -9.73 KCAL/MOL
REMARK 923 INTER-LIGAND FREE ENERGY PREDICTED BY IDOCK:   -8.81 KCAL/MOL
REMARK 924 INTRA-LIGAND FREE ENERGY PREDICTED BY IDOCK:   -0.92 KCAL/MOL
REMARK 927      BINDING AFFINITY PREDICTED BY RF-SCORE:    0.00 PKD
ROOT
HETATM    1  C   UNK A   0     -11.349   6.184  69.429  1.00  0.00    -0.331 C  
HETATM    2  N   UNK A   0     -10.260   7.136  69.588  1.00  0.00    -0.202 NA 
HETATM    3  C   UNK A   0      -9.828   7.913  68.391  1.00  0.00    -0.173 C  
HETATM    4  O   UNK A   0     -11.201   6.251  72.225  1.00  0.00    -0.254 OA 
HETATM    5  C   UNK A   0      -8.283   8.036  68.420  1.00  0.00    -0.123 C  
HETATM    6  C   UNK A   0      -8.671   8.308  73.246  1.00  0.00    -0.215 C  
HETATM    7  N   UNK A   0      -7.805   8.516  69.728  1.00  0.00    -0.092 NA 
HETATM    8  H   UNK A   0      -6.979   9.113  69.783  1.00  0.00     0.000 HD 
HETATM    9  H2  UNK A   0      -8.573   8.791  75.242  1.00  0.00     0.000 HD 
HETATM   10  C   UNK A   0      -8.484   8.152  70.888  1.00  0.00    -0.130 C  
HETATM   11  H   UNK A   0     -10.217   7.477  74.234  1.00  0.00     0.000 HD 
HETATM   12  C   UNK A   0      -9.638   7.438  70.831  1.00  0.00    -0.166 C  
HETATM   13  H1  UNK A   0      -7.270   9.455  74.262  1.00  0.00     0.000 HD 
HETATM   14  C   UNK A   0     -10.257   7.035  72.181  1.00  0.00    -0.186 C  
HETATM   15  N   UNK A   0      -7.999   8.545  72.100  1.00  0.00    -0.263 NA 
HETATM   16  N   UNK A   0      -8.123   8.900  74.333  1.00  0.00    -0.318 NA 
HETATM   17  N   UNK A   0      -9.750   7.607  73.336  1.00  0.00    -0.286 N  
ENDROOT
BRANCH   3  18
HETATM   18  C   UNK A   0     -10.510   9.309  68.375  1.00  0.00    -0.206 C  
BRANCH  18  19
HETATM   19  N   UNK A   0      -9.807  10.246  67.477  1.00  0.00    -0.169 NA 
HETATM   20  H   UNK A   0      -9.173   9.914  66.751  1.00  0.00     0.000 HD 
BRANCH  19  21
HETATM   21  C   UNK A   0     -10.050  11.614  67.669  1.00  0.00    -0.188 A  
HETATM   22  C   UNK A   0      -9.659  13.894  66.904  1.00  0.00    -0.271 A  
HETATM   23  C   UNK A   0     -10.504  14.377  67.903  1.00  0.00    -0.239 A  
HETATM   24  C   UNK A   0     -10.785  12.123  68.744  1.00  0.00    -0.252 A  
HETATM   25  C   UNK A   0      -9.428  12.519  66.800  1.00  0.00    -0.231 A  
HETATM   26  C   UNK A   0     -11.025  13.495  68.856  1.00  0.00    -0.286 A  
BRANCH  23  27
HETATM   27  C   UNK A   0     -10.825  15.826  67.955  1.00  0.00    -0.314 C  
ATOM     28  H   GLU A   1      -9.006  16.275  67.040  1.00  0.00     0.000 HD 
ATOM     29  N   GLU A   1      -9.847  16.673  67.458  1.00  0.00    -0.249 N  
HETATM   30  O   UNK A   0     -11.896  16.223  68.387  1.00  0.00    -0.202 OA 
BRANCH  29  31
ATOM     31  CA  GLU A   1      -9.997  18.143  67.523  1.00  0.00    -0.332 C  
ATOM     32  C   GLU A   1     -10.486  18.684  66.158  1.00  0.00    -0.430 C  
ATOM     33  O   GLU A   1     -10.578  17.740  65.193  1.00  0.00    -0.610 OA 
ATOM     34  OXT GLU A   1     -10.726  19.862  65.930  1.00  0.00    -0.465 OA 
BRANCH  31  35
ATOM     35  CB  GLU A   1      -8.661  18.788  67.932  1.00  0.00    -0.321 C  
BRANCH  35  36
ATOM     36  CG  GLU A   1      -7.466  17.830  67.855  1.00  0.00    -0.210 C  
ATOM     37  CD  GLU A   1      -6.911  17.699  66.459  1.00  0.00    -0.242 C  
ATOM     38  OE2 GLU A   1      -7.354  18.257  65.469  1.00  0.00    -0.539 OA 
ATOM     39  OE1 GLU A   1      -5.829  16.881  66.419  1.00  0.00    -0.320 OA 
ENDBRANCH  35  36
ENDBRANCH  31  35
ENDBRANCH  29  31
ENDBRANCH  23  27
ENDBRANCH  19  21
ENDBRANCH  18  19
ENDBRANCH   3  18
TORSDOF 7
ENDMDL
MODEL       98
REMARK 921   NORMALIZED FREE ENERGY PREDICTED BY IDOCK:   -6.03 KCAL/MOL
REMARK 922        TOTAL FREE ENERGY PREDICTED BY IDOCK:   -9.73 KCAL/MOL
REMARK 923 INTER-LIGAND FREE ENERGY PREDICTED BY IDOCK:   -8.40 KCAL/MOL
REMARK 924 INTRA-LIGAND FREE ENERGY PREDICTED BY IDOCK:   -1.32 KCAL/MOL
REMARK 927      BINDING AFFINITY PREDICTED BY RF-SCORE:    0.00 PKD
ROOT
HETATM    1  C   UNK A   0      -8.808  12.073  68.406  1.00  0.00    -0.149 C  
HETATM    2  N   UNK A   0      -9.124  11.187  67.296  1.00  0.00    -0.149 NA 
HETATM    3  C   UNK A   0     -10.555  10.839  67.062  1.00  0.00    -0.260 C  
HETATM    4  O   UNK A   0      -6.340  12.097  67.084  1.00  0.00    -0.147 OA 
HETATM    5  C   UNK A   0     -10.632   9.347  66.650  1.00  0.00    -0.100 C  
HETATM    6  C   UNK A   0      -6.420  10.048  64.352  1.00  0.00    -0.131 C  
HETATM    7  N   UNK A   0      -9.690   9.038  65.560  1.00  0.00    -0.461 NA 
HETATM    8  H   UNK A   0      -9.931   8.340  64.857  1.00  0.00     0.000 HD 
HETATM    9  H2  UNK A   0      -4.851  10.152  63.027  1.00  0.00     0.000 HD 
HETATM   10  C   UNK A   0      -8.468   9.703  65.496  1.00  0.00    -0.142 C  
HETATM   11  H   UNK A   0      -5.118  11.468  64.935  1.00  0.00     0.000 HD 
HETATM   12  C   UNK A   0      -8.165  10.702  66.364  1.00  0.00    -0.146 C  
HETATM   13  H1  UNK A   0      -6.065   8.939  62.632  1.00  0.00     0.000 HD 
HETATM   14  C   UNK A   0      -6.757  11.311  66.237  1.00  0.00    -0.011 C  
HETATM   15  N   UNK A   0      -7.572   9.367  64.523  1.00  0.00    -0.106 NA 
HETATM   16  N   UNK A   0      -5.728   9.679  63.248  1.00  0.00    -0.089 NA 
HETATM   17  N   UNK A   0      -5.994  10.983  65.130  1.00  0.00    -0.354 N  
ENDROOT
BRANCH   3  18
HETATM   18  C   UNK A   0     -11.167  11.762  65.974  1.00  0.00    -0.296 C  
BRANCH  18  19
HETATM   19  N   UNK A   0     -12.077  12.765  66.562  1.00  0.00    -0.509 NA 
HETATM   20  H   UNK A   0     -13.072  12.575  66.684  1.00  0.00     0.000 HD 
BRANCH  19  21
HETATM   21  C   UNK A   0     -11.512  13.990  66.944  1.00  0.00    -0.356 A  
HETATM   22  C   UNK A   0     -11.168  15.627  68.717  1.00  0.00    -0.332 A  
HETATM   23  C   UNK A   0     -10.383  16.396  67.858  1.00  0.00    -0.286 A  
HETATM   24  C   UNK A   0     -10.835  14.837  66.061  1.00  0.00    -0.318 A  
HETATM   25  C   UNK A   0     -11.737  14.437  68.252  1.00  0.00    -0.376 A  
HETATM   26  C   UNK A   0     -10.260  16.027  66.514  1.00  0.00    -0.301 A  
BRANCH  23  27
HETATM   27  C   UNK A   0      -9.701  17.609  68.377  1.00  0.00    -0.321 C  
ATOM     28  H   GLU A   1      -8.277  17.474  66.860  1.00  0.00     0.000 HD 
ATOM     29  N   GLU A   1      -8.556  17.989  67.695  1.00  0.00    -0.244 N  
HETATM   30  O   UNK A   0     -10.150  18.230  69.327  1.00  0.00    -0.281 OA 
BRANCH  29  31
ATOM     31  CA  GLU A   1      -7.732  19.129  68.152  1.00  0.00    -0.293 C  
ATOM     32  C   GLU A   1      -7.784  20.270  67.109  1.00  0.00    -0.323 C  
ATOM     33  O   GLU A   1      -8.473  19.960  65.987  1.00  0.00    -0.363 OA 
ATOM     34  OXT GLU A   1      -7.220  21.349  67.239  1.00  0.00    -0.538 OA 
BRANCH  31  35
ATOM     35  CB  GLU A   1      -6.285  18.663  68.396  1.00  0.00    -0.217 C  
BRANCH  35  36
ATOM     36  CG  GLU A   1      -6.169  17.173  68.739  1.00  0.00    -0.166 C  
ATOM     37  CD  GLU A   1      -5.614  16.934  70.122  1.00  0.00    -0.222 C  
ATOM     38  OE2 GLU A   1      -5.258  17.804  70.899  1.00  0.00    -0.266 OA 
ATOM     39  OE1 GLU A   1      -5.559  15.612  70.423  1.00  0.00    -0.153 OA 
ENDBRANCH  35  36
ENDBRANCH  31  35
ENDBRANCH  29  31
ENDBRANCH  23  27
ENDBRANCH  19  21
ENDBRANCH  18  19
ENDBRANCH   3  18
TORSDOF 7
ENDMDL
MODEL       99
REMARK 921   NORMALIZED FREE ENERGY PREDICTED BY IDOCK:   -6.02 KCAL/MOL
REMARK 922        TOTAL FREE ENERGY PREDICTED BY IDOCK:   -9.72 KCAL/MOL
REMARK 923 INTER-LIGAND FREE ENERGY PREDICTED BY IDOCK:   -8.72 KCAL/MOL
REMARK 924 INTRA-LIGAND FREE ENERGY PREDICTED BY IDOCK:   -1.00 KCAL/MOL
REMARK 927      BINDING AFFINITY PREDICTED BY RF-SCORE:    0.00 PKD
ROOT
HETATM    1  C   UNK A   0     -10.321   5.968  74.170  1.00  0.00    -0.288 C  
HETATM    2  N   UNK A   0      -9.956   6.155  72.774  1.00  0.00    -0.171 NA 
HETATM    3  C   UNK A   0     -10.911   5.685  71.730  1.00  0.00    -0.239 C  
HETATM    4  O   UNK A   0      -8.147   7.702  74.494  1.00  0.00    -0.183 OA 
HETATM    5  C   UNK A   0     -10.096   5.062  70.568  1.00  0.00    -0.253 C  
HETATM    6  C   UNK A   0      -6.747   8.452  71.469  1.00  0.00    -0.070 C  
HETATM    7  N   UNK A   0      -9.019   5.963  70.121  1.00  0.00    -0.140 NA 
HETATM    8  H   UNK A   0      -8.745   5.987  69.139  1.00  0.00     0.000 HD 
HETATM    9  H2  UNK A   0      -5.356   9.965  71.404  1.00  0.00     0.000 HD 
HETATM   10  C   UNK A   0      -8.376   6.782  71.047  1.00  0.00    -0.127 C  
HETATM   11  H   UNK A   0      -6.535   9.275  73.295  1.00  0.00     0.000 HD 
HETATM   12  C   UNK A   0      -8.786   6.838  72.340  1.00  0.00    -0.127 C  
HETATM   13  H1  UNK A   0      -5.632   9.156  69.864  1.00  0.00     0.000 HD 
HETATM   14  C   UNK A   0      -7.952   7.725  73.281  1.00  0.00    -0.139 C  
HETATM   15  N   UNK A   0      -7.336   7.566  70.640  1.00  0.00    -0.067 NA 
HETATM   16  N   UNK A   0      -5.841   9.252  70.858  1.00  0.00    -0.049 NA 
HETATM   17  N   UNK A   0      -7.009   8.573  72.725  1.00  0.00    -0.067 N  
ENDROOT
BRANCH   3  18
HETATM   18  C   UNK A   0     -11.798   6.860  71.237  1.00  0.00    -0.341 C  
BRANCH  18  19
HETATM   19  N   UNK A   0     -11.400   8.138  71.860  1.00  0.00    -0.277 NA 
HETATM   20  H   UNK A   0     -11.055   8.179  72.819  1.00  0.00     0.000 HD 
BRANCH  19  21
HETATM   21  C   UNK A   0     -11.519   9.293  71.073  1.00  0.00    -0.319 A  
HETATM   22  C   UNK A   0     -12.907  11.176  70.391  1.00  0.00    -0.176 A  
HETATM   23  C   UNK A   0     -11.867  11.658  69.595  1.00  0.00    -0.419 A  
HETATM   24  C   UNK A   0     -10.539   9.716  70.169  1.00  0.00    -0.320 A  
HETATM   25  C   UNK A   0     -12.732   9.993  71.114  1.00  0.00    -0.484 A  
HETATM   26  C   UNK A   0     -10.702  10.898  69.443  1.00  0.00    -0.265 A  
BRANCH  23  27
HETATM   27  C   UNK A   0     -12.019  12.962  68.902  1.00  0.00    -0.250 C  
ATOM     28  H   GLU A   1     -11.786  12.023  67.055  1.00  0.00     0.000 HD 
ATOM     29  N   GLU A   1     -11.904  12.923  67.521  1.00  0.00    -0.366 N  
HETATM   30  O   UNK A   0     -12.252  13.987  69.524  1.00  0.00    -0.330 OA 
BRANCH  29  31
ATOM     31  CA  GLU A   1     -11.950  14.159  66.710  1.00  0.00    -0.447 C  
ATOM     32  C   GLU A   1     -12.611  13.868  65.342  1.00  0.00    -0.507 C  
ATOM     33  O   GLU A   1     -12.911  12.564  65.142  1.00  0.00    -0.685 OA 
ATOM     34  OXT GLU A   1     -12.810  14.712  64.479  1.00  0.00    -0.579 OA 
BRANCH  31  35
ATOM     35  CB  GLU A   1     -10.529  14.723  66.534  1.00  0.00    -0.291 C  
BRANCH  35  36
ATOM     36  CG  GLU A   1      -9.464  13.644  66.298  1.00  0.00    -0.209 C  
ATOM     37  CD  GLU A   1      -8.611  13.389  67.516  1.00  0.00    -0.200 C  
ATOM     38  OE2 GLU A   1      -8.708  13.978  68.580  1.00  0.00    -0.170 OA 
ATOM     39  OE1 GLU A   1      -7.704  12.403  67.301  1.00  0.00    -0.160 OA 
ENDBRANCH  35  36
ENDBRANCH  31  35
ENDBRANCH  29  31
ENDBRANCH  23  27
ENDBRANCH  19  21
ENDBRANCH  18  19
ENDBRANCH   3  18
TORSDOF 7
ENDMDL
MODEL      100
REMARK 921   NORMALIZED FREE ENERGY PREDICTED BY IDOCK:   -6.00 KCAL/MOL
REMARK 922        TOTAL FREE ENERGY PREDICTED BY IDOCK:   -9.69 KCAL/MOL
REMARK 923 INTER-LIGAND FREE ENERGY PREDICTED BY IDOCK:   -9.96 KCAL/MOL
REMARK 924 INTRA-LIGAND FREE ENERGY PREDICTED BY IDOCK:    0.27 KCAL/MOL
REMARK 927      BINDING AFFINITY PREDICTED BY RF-SCORE:    0.00 PKD
ROOT
HETATM    1  C   UNK A   0     -10.355   7.941  66.726  1.00  0.00    -0.287 C  
HETATM    2  N   UNK A   0     -10.336   8.688  67.974  1.00  0.00    -0.227 NA 
HETATM    3  C   UNK A   0     -10.195  10.171  67.902  1.00  0.00    -0.180 C  
HETATM    4  O   UNK A   0     -11.202   5.928  68.478  1.00  0.00    -0.221 OA 
HETATM    5  C   UNK A   0      -9.269  10.630  69.058  1.00  0.00    -0.167 C  
HETATM    6  C   UNK A   0     -11.261   7.080  71.694  1.00  0.00    -0.245 C  
HETATM    7  N   UNK A   0      -9.701  10.069  70.350  1.00  0.00    -0.376 NA 
HETATM    8  H   UNK A   0      -9.580  10.607  71.207  1.00  0.00     0.000 HD 
HETATM    9  H2  UNK A   0     -12.167   5.906  73.118  1.00  0.00     0.000 HD 
HETATM   10  C   UNK A   0     -10.273   8.800  70.395  1.00  0.00    -0.197 C  
HETATM   11  H   UNK A   0     -12.033   5.429  70.838  1.00  0.00     0.000 HD 
HETATM   12  C   UNK A   0     -10.530   8.105  69.257  1.00  0.00    -0.214 C  
HETATM   13  H1  UNK A   0     -11.444   7.386  73.740  1.00  0.00     0.000 HD 
HETATM   14  C   UNK A   0     -11.099   6.687  69.439  1.00  0.00    -0.310 C  
HETATM   15  N   UNK A   0     -10.611   8.259  71.600  1.00  0.00    -0.227 NA 
HETATM   16  N   UNK A   0     -11.652   6.772  72.953  1.00  0.00    -0.494 NA 
HETATM   17  N   UNK A   0     -11.524   6.303  70.699  1.00  0.00    -0.354 N  
ENDROOT
BRANCH   3  18
HETATM   18  C   UNK A   0     -11.587  10.853  67.984  1.00  0.00    -0.215 C  
BRANCH  18  19
HETATM   19  N   UNK A   0     -11.784  11.819  66.884  1.00  0.00    -0.584 NA 
HETATM   20  H   UNK A   0     -12.353  11.589  66.069  1.00  0.00     0.000 HD 
BRANCH  19  21
HETATM   21  C   UNK A   0     -11.153  13.065  67.012  1.00  0.00    -0.281 A  
HETATM   22  C   UNK A   0      -9.797  14.795  65.959  1.00  0.00    -0.350 A  
HETATM   23  C   UNK A   0      -9.893  15.574  67.112  1.00  0.00    -0.236 A  
HETATM   24  C   UNK A   0     -11.126  13.798  68.202  1.00  0.00    -0.282 A  
HETATM   25  C   UNK A   0     -10.416  13.542  65.920  1.00  0.00    -0.292 A  
HETATM   26  C   UNK A   0     -10.514  15.052  68.252  1.00  0.00    -0.237 A  
BRANCH  23  27
HETATM   27  C   UNK A   0      -9.317  16.943  67.121  1.00  0.00    -0.234 C  
ATOM     28  H   GLU A   1     -10.047  17.253  69.049  1.00  0.00     0.000 HD 
ATOM     29  N   GLU A   1      -9.556  17.685  68.267  1.00  0.00    -0.293 N  
HETATM   30  O   UNK A   0      -8.660  17.360  66.180  1.00  0.00    -0.437 OA 
BRANCH  29  31
ATOM     31  CA  GLU A   1      -9.113  19.092  68.378  1.00  0.00    -0.359 C  
ATOM     32  C   GLU A   1      -9.981  19.993  67.467  1.00  0.00    -0.427 C  
ATOM     33  O   GLU A   1     -10.872  19.313  66.710  1.00  0.00    -0.438 OA 
ATOM     34  OXT GLU A   1      -9.859  21.207  67.382  1.00  0.00    -0.312 OA 
BRANCH  31  35
ATOM     35  CB  GLU A   1      -7.622  19.201  68.013  1.00  0.00    -0.311 C  
BRANCH  35  36
ATOM     36  CG  GLU A   1      -6.698  18.423  68.958  1.00  0.00    -0.280 C  
ATOM     37  CD  GLU A   1      -6.083  19.296  70.023  1.00  0.00    -0.230 C  
ATOM     38  OE2 GLU A   1      -6.255  20.498  70.135  1.00  0.00    -0.410 OA 
ATOM     39  OE1 GLU A   1      -5.304  18.582  70.874  1.00  0.00    -0.253 OA 
ENDBRANCH  35  36
ENDBRANCH  31  35
ENDBRANCH  29  31
ENDBRANCH  23  27
ENDBRANCH  19  21
ENDBRANCH  18  19
ENDBRANCH   3  18
TORSDOF 7
ENDMDL
MODEL      101
REMARK 921   NORMALIZED FREE ENERGY PREDICTED BY IDOCK:   -5.95 KCAL/MOL
REMARK 922        TOTAL FREE ENERGY PREDICTED BY IDOCK:   -9.61 KCAL/MOL
REMARK 923 INTER-LIGAND FREE ENERGY PREDICTED BY IDOCK:   -8.09 KCAL/MOL
REMARK 924 INTRA-LIGAND FREE ENERGY PREDICTED BY IDOCK:   -1.52 KCAL/MOL
REMARK 927      BINDING AFFINITY PREDICTED BY RF-SCORE:    0.00 PKD
ROOT
HETATM    1  C   UNK A   0     -10.729  15.702  65.372  1.00  0.00    -0.408 C  
HETATM    2  N   UNK A   0     -10.685  15.056  66.676  1.00  0.00    -0.306 NA 
HETATM    3  C   UNK A   0     -11.806  14.144  67.044  1.00  0.00    -0.429 C  
HETATM    4  O   UNK A   0      -8.082  16.278  66.081  1.00  0.00    -0.293 OA 
HETATM    5  C   UNK A   0     -12.135  14.356  68.544  1.00  0.00    -0.243 C  
HETATM    6  C   UNK A   0      -7.383  15.069  69.199  1.00  0.00    -0.164 C  
HETATM    7  N   UNK A   0     -10.922  14.284  69.377  1.00  0.00    -0.343 NA 
HETATM    8  H   UNK A   0     -10.971  13.900  70.321  1.00  0.00     0.000 HD 
HETATM    9  H2  UNK A   0      -5.419  15.064  69.809  1.00  0.00     0.000 HD 
HETATM   10  C   UNK A   0      -9.708  14.743  68.871  1.00  0.00    -0.215 C  
HETATM   11  H   UNK A   0      -6.199  15.753  67.720  1.00  0.00     0.000 HD 
HETATM   12  C   UNK A   0      -9.599  15.169  67.587  1.00  0.00    -0.206 C  
HETATM   13  H1  UNK A   0      -6.563  14.490  71.017  1.00  0.00     0.000 HD 
HETATM   14  C   UNK A   0      -8.225  15.718  67.166  1.00  0.00    -0.206 C  
HETATM   15  N   UNK A   0      -8.602  14.734  69.670  1.00  0.00    -0.417 NA 
HETATM   16  N   UNK A   0      -6.379  14.855  70.083  1.00  0.00    -0.166 NA 
HETATM   17  N   UNK A   0      -7.150  15.531  68.018  1.00  0.00    -0.116 N  
ENDROOT
BRANCH   3  18
HETATM   18  C   UNK A   0     -11.425  12.668  66.749  1.00  0.00    -0.351 C  
BRANCH  18  19
HETATM   19  N   UNK A   0     -12.153  11.733  67.628  1.00  0.00    -0.558 NA 
HETATM   20  H   UNK A   0     -13.163  11.797  67.755  1.00  0.00     0.000 HD 
BRANCH  19  21
HETATM   21  C   UNK A   0     -11.392  10.752  68.282  1.00  0.00    -0.309 A  
HETATM   22  C   UNK A   0      -9.914   8.826  68.075  1.00  0.00    -0.220 A  
HETATM   23  C   UNK A   0      -9.783   8.774  69.463  1.00  0.00    -0.172 A  
HETATM   24  C   UNK A   0     -11.356  10.603  69.672  1.00  0.00    -0.360 A  
HETATM   25  C   UNK A   0     -10.726   9.805  67.494  1.00  0.00    -0.327 A  
HETATM   26  C   UNK A   0     -10.546   9.631  70.263  1.00  0.00    -0.333 A  
BRANCH  23  27
HETATM   27  C   UNK A   0      -8.847   7.797  70.074  1.00  0.00    -0.142 C  
ATOM     28  H   GLU A   1     -10.352   6.354  70.102  1.00  0.00     0.000 HD 
ATOM     29  N   GLU A   1      -9.387   6.554  70.366  1.00  0.00    -0.162 N  
HETATM   30  O   UNK A   0      -7.677   8.080  70.276  1.00  0.00    -0.083 OA 
BRANCH  29  31
ATOM     31  CA  GLU A   1      -8.593   5.512  71.052  1.00  0.00    -0.126 C  
ATOM     32  C   GLU A   1      -8.840   4.137  70.388  1.00  0.00    -0.085 C  
ATOM     33  O   GLU A   1      -9.776   4.158  69.411  1.00  0.00    -0.192 OA 
ATOM     34  OXT GLU A   1      -8.291   3.098  70.729  1.00  0.00    -0.058 OA 
BRANCH  31  35
ATOM     35  CB  GLU A   1      -8.952   5.481  72.549  1.00  0.00    -0.134 C  
BRANCH  35  36
ATOM     36  CG  GLU A   1      -8.091   6.415  73.407  1.00  0.00    -0.109 C  
ATOM     37  CD  GLU A   1      -8.776   7.724  73.714  1.00  0.00    -0.262 C  
ATOM     38  OE2 GLU A   1      -9.882   8.051  73.315  1.00  0.00    -0.291 OA 
ATOM     39  OE1 GLU A   1      -8.017   8.519  74.509  1.00  0.00    -0.304 OA 
ENDBRANCH  35  36
ENDBRANCH  31  35
ENDBRANCH  29  31
ENDBRANCH  23  27
ENDBRANCH  19  21
ENDBRANCH  18  19
ENDBRANCH   3  18
TORSDOF 7
ENDMDL
MODEL      102
REMARK 921   NORMALIZED FREE ENERGY PREDICTED BY IDOCK:   -5.93 KCAL/MOL
REMARK 922        TOTAL FREE ENERGY PREDICTED BY IDOCK:   -9.59 KCAL/MOL
REMARK 923 INTER-LIGAND FREE ENERGY PREDICTED BY IDOCK:   -8.59 KCAL/MOL
REMARK 924 INTRA-LIGAND FREE ENERGY PREDICTED BY IDOCK:   -1.00 KCAL/MOL
REMARK 927      BINDING AFFINITY PREDICTED BY RF-SCORE:    0.00 PKD
ROOT
HETATM    1  C   UNK A   0     -11.164  16.445  68.426  1.00  0.00    -0.324 C  
HETATM    2  N   UNK A   0     -10.010  16.320  67.549  1.00  0.00    -0.244 NA 
HETATM    3  C   UNK A   0      -9.675  14.967  67.019  1.00  0.00    -0.236 C  
HETATM    4  O   UNK A   0     -10.689  19.155  67.904  1.00  0.00    -0.388 OA 
HETATM    5  C   UNK A   0      -8.132  14.813  67.015  1.00  0.00    -0.144 C  
HETATM    6  C   UNK A   0      -7.939  19.531  65.912  1.00  0.00    -0.223 C  
HETATM    7  N   UNK A   0      -7.477  15.960  66.363  1.00  0.00    -0.155 NA 
HETATM    8  H   UNK A   0      -6.617  15.824  65.832  1.00  0.00     0.000 HD 
HETATM    9  H2  UNK A   0      -7.581  21.391  65.111  1.00  0.00     0.000 HD 
HETATM   10  C   UNK A   0      -8.037  17.230  66.474  1.00  0.00    -0.278 C  
HETATM   11  H   UNK A   0      -9.407  20.805  66.441  1.00  0.00     0.000 HD 
HETATM   12  C   UNK A   0      -9.230  17.420  67.094  1.00  0.00    -0.237 C  
HETATM   13  H1  UNK A   0      -6.363  20.179  64.725  1.00  0.00     0.000 HD 
HETATM   14  C   UNK A   0      -9.711  18.877  67.215  1.00  0.00    -0.311 C  
HETATM   15  N   UNK A   0      -7.392  18.298  65.923  1.00  0.00    -0.469 NA 
HETATM   16  N   UNK A   0      -7.234  20.435  65.191  1.00  0.00    -0.452 NA 
HETATM   17  N   UNK A   0      -9.040  19.854  66.501  1.00  0.00    -0.367 N  
ENDROOT
BRANCH   3  18
HETATM   18  C   UNK A   0     -10.269  14.780  65.597  1.00  0.00    -0.358 C  
BRANCH  18  19
HETATM   19  N   UNK A   0     -11.384  13.812  65.598  1.00  0.00    -0.303 NA 
HETATM   20  H   UNK A   0     -12.301  14.055  65.223  1.00  0.00     0.000 HD 
BRANCH  19  21
HETATM   21  C   UNK A   0     -11.125  12.544  66.138  1.00  0.00    -0.298 A  
HETATM   22  C   UNK A   0     -10.079  10.363  65.842  1.00  0.00    -0.326 A  
HETATM   23  C   UNK A   0     -10.482   9.993  67.126  1.00  0.00    -0.305 A  
HETATM   24  C   UNK A   0     -11.633  12.110  67.366  1.00  0.00    -0.410 A  
HETATM   25  C   UNK A   0     -10.413  11.629  65.352  1.00  0.00    -0.324 A  
HETATM   26  C   UNK A   0     -11.304  10.848  67.867  1.00  0.00    -0.380 A  
BRANCH  23  27
HETATM   27  C   UNK A   0     -10.047   8.686  67.682  1.00  0.00    -0.213 C  
ATOM     28  H   GLU A   1     -10.576   9.312  69.599  1.00  0.00     0.000 HD 
ATOM     29  N   GLU A   1     -10.159   8.555  69.057  1.00  0.00    -0.195 N  
HETATM   30  O   UNK A   0      -9.644   7.791  66.956  1.00  0.00    -0.159 OA 
BRANCH  29  31
ATOM     31  CA  GLU A   1      -9.686   7.339  69.754  1.00  0.00    -0.166 C  
ATOM     32  C   GLU A   1     -10.887   6.581  70.367  1.00  0.00    -0.273 C  
ATOM     33  O   GLU A   1     -12.072   7.219  70.223  1.00  0.00    -0.096 OA 
ATOM     34  OXT GLU A   1     -10.797   5.523  70.975  1.00  0.00    -0.241 OA 
BRANCH  31  35
ATOM     35  CB  GLU A   1      -8.659   7.722  70.836  1.00  0.00    -0.128 C  
BRANCH  35  36
ATOM     36  CG  GLU A   1      -8.045   9.113  70.635  1.00  0.00    -0.198 C  
ATOM     37  CD  GLU A   1      -6.727   9.278  71.350  1.00  0.00    -0.001 C  
ATOM     38  OE2 GLU A   1      -6.192   8.431  72.045  1.00  0.00    -0.053 OA 
ATOM     39  OE1 GLU A   1      -6.179  10.499  71.126  1.00  0.00    -0.336 OA 
ENDBRANCH  35  36
ENDBRANCH  31  35
ENDBRANCH  29  31
ENDBRANCH  23  27
ENDBRANCH  19  21
ENDBRANCH  18  19
ENDBRANCH   3  18
TORSDOF 7
ENDMDL
MODEL      103
REMARK 921   NORMALIZED FREE ENERGY PREDICTED BY IDOCK:   -5.90 KCAL/MOL
REMARK 922        TOTAL FREE ENERGY PREDICTED BY IDOCK:   -9.55 KCAL/MOL
REMARK 923 INTER-LIGAND FREE ENERGY PREDICTED BY IDOCK:   -8.97 KCAL/MOL
REMARK 924 INTRA-LIGAND FREE ENERGY PREDICTED BY IDOCK:   -0.58 KCAL/MOL
REMARK 927      BINDING AFFINITY PREDICTED BY RF-SCORE:    0.00 PKD
ROOT
HETATM    1  C   UNK A   0      -7.107   5.144  67.182  1.00  0.00    -0.069 C  
HETATM    2  N   UNK A   0      -8.477   5.439  66.790  1.00  0.00    -0.108 NA 
HETATM    3  C   UNK A   0      -9.102   6.689  67.310  1.00  0.00    -0.118 C  
HETATM    4  O   UNK A   0      -7.416   3.255  65.138  1.00  0.00    -0.070 OA 
HETATM    5  C   UNK A   0     -10.582   6.388  67.658  1.00  0.00    -0.274 C  
HETATM    6  C   UNK A   0     -10.577   3.386  63.849  1.00  0.00    -0.243 C  
HETATM    7  N   UNK A   0     -11.272   5.717  66.542  1.00  0.00    -0.717 NA 
HETATM    8  H   UNK A   0     -12.261   5.897  66.370  1.00  0.00     0.000 HD 
HETATM    9  H2  UNK A   0     -10.952   2.341  62.118  1.00  0.00     0.000 HD 
HETATM   10  C   UNK A   0     -10.569   4.837  65.723  1.00  0.00    -0.218 C  
HETATM   11  H   UNK A   0      -8.888   2.506  63.194  1.00  0.00     0.000 HD 
HETATM   12  C   UNK A   0      -9.231   4.655  65.874  1.00  0.00    -0.144 C  
HETATM   13  H1  UNK A   0     -12.355   3.158  62.799  1.00  0.00     0.000 HD 
HETATM   14  C   UNK A   0      -8.580   3.605  64.957  1.00  0.00    -0.109 C  
HETATM   15  N   UNK A   0     -11.228   4.170  64.733  1.00  0.00    -0.940 NA 
HETATM   16  N   UNK A   0     -11.362   2.928  62.845  1.00  0.00    -0.136 NA 
HETATM   17  N   UNK A   0      -9.322   3.096  63.905  1.00  0.00    -0.110 N  
ENDROOT
BRANCH   3  18
HETATM   18  C   UNK A   0      -8.984   7.829  66.262  1.00  0.00    -0.174 C  
BRANCH  18  19
HETATM   19  N   UNK A   0     -10.248   8.583  66.137  1.00  0.00    -0.393 NA 
HETATM   20  H   UNK A   0     -11.150   8.109  66.100  1.00  0.00     0.000 HD 
BRANCH  19  21
HETATM   21  C   UNK A   0     -10.150   9.981  66.069  1.00  0.00    -0.248 A  
HETATM   22  C   UNK A   0     -10.451  12.115  67.205  1.00  0.00    -0.238 A  
HETATM   23  C   UNK A   0      -9.946  12.783  66.089  1.00  0.00    -0.272 A  
HETATM   24  C   UNK A   0      -9.774  10.673  64.914  1.00  0.00    -0.341 A  
HETATM   25  C   UNK A   0     -10.561  10.722  67.184  1.00  0.00    -0.306 A  
HETATM   26  C   UNK A   0      -9.657  12.065  64.924  1.00  0.00    -0.040 A  
BRANCH  23  27
HETATM   27  C   UNK A   0      -9.740  14.253  66.146  1.00  0.00    -0.303 C  
ATOM     28  H   GLU A   1      -9.367  14.134  68.194  1.00  0.00     0.000 HD 
ATOM     29  N   GLU A   1      -9.469  14.770  67.403  1.00  0.00    -0.204 N  
HETATM   30  O   UNK A   0      -9.787  14.939  65.137  1.00  0.00    -0.300 OA 
BRANCH  29  31
ATOM     31  CA  GLU A   1      -9.324  16.226  67.620  1.00  0.00    -0.218 C  
ATOM     32  C   GLU A   1      -8.126  16.503  68.559  1.00  0.00    -0.218 C  
ATOM     33  O   GLU A   1      -7.540  15.386  69.047  1.00  0.00    -0.146 OA 
ATOM     34  OXT GLU A   1      -7.752  17.621  68.889  1.00  0.00    -0.267 OA 
BRANCH  31  35
ATOM     35  CB  GLU A   1     -10.630  16.801  68.198  1.00  0.00    -0.350 C  
BRANCH  35  36
ATOM     36  CG  GLU A   1     -10.774  18.315  68.004  1.00  0.00    -0.290 C  
ATOM     37  CD  GLU A   1     -10.588  18.740  66.568  1.00  0.00    -0.374 C  
ATOM     38  OE2 GLU A   1     -10.322  17.993  65.641  1.00  0.00    -0.611 OA 
ATOM     39  OE1 GLU A   1     -10.762  20.076  66.409  1.00  0.00    -0.420 OA 
ENDBRANCH  35  36
ENDBRANCH  31  35
ENDBRANCH  29  31
ENDBRANCH  23  27
ENDBRANCH  19  21
ENDBRANCH  18  19
ENDBRANCH   3  18
TORSDOF 7
ENDMDL
MODEL      104
REMARK 921   NORMALIZED FREE ENERGY PREDICTED BY IDOCK:   -5.88 KCAL/MOL
REMARK 922        TOTAL FREE ENERGY PREDICTED BY IDOCK:   -9.51 KCAL/MOL
REMARK 923 INTER-LIGAND FREE ENERGY PREDICTED BY IDOCK:   -8.26 KCAL/MOL
REMARK 924 INTRA-LIGAND FREE ENERGY PREDICTED BY IDOCK:   -1.25 KCAL/MOL
REMARK 927      BINDING AFFINITY PREDICTED BY RF-SCORE:    0.00 PKD
ROOT
HETATM    1  C   UNK A   0     -11.750   5.819  72.232  1.00  0.00    -0.205 C  
HETATM    2  N   UNK A   0     -10.580   6.429  71.617  1.00  0.00    -0.217 NA 
HETATM    3  C   UNK A   0     -10.587   6.625  70.139  1.00  0.00    -0.221 C  
HETATM    4  O   UNK A   0     -10.450   6.744  74.534  1.00  0.00    -0.200 OA 
HETATM    5  C   UNK A   0      -9.168   6.316  69.599  1.00  0.00    -0.141 C  
HETATM    6  C   UNK A   0      -7.483   8.230  73.723  1.00  0.00    -0.143 C  
HETATM    7  N   UNK A   0      -8.133   7.040  70.357  1.00  0.00    -0.117 NA 
HETATM    8  H   UNK A   0      -7.289   7.368  69.887  1.00  0.00     0.000 HD 
HETATM    9  H2  UNK A   0      -6.505   9.286  75.192  1.00  0.00     0.000 HD 
HETATM   10  C   UNK A   0      -8.311   7.274  71.718  1.00  0.00    -0.104 C  
HETATM   11  H   UNK A   0      -8.573   8.229  75.416  1.00  0.00     0.000 HD 
HETATM   12  C   UNK A   0      -9.466   6.931  72.344  1.00  0.00    -0.139 C  
HETATM   13  H1  UNK A   0      -5.651   9.207  73.654  1.00  0.00     0.000 HD 
HETATM   14  C   UNK A   0      -9.516   7.176  73.863  1.00  0.00    -0.257 C  
HETATM   15  N   UNK A   0      -7.321   7.887  72.428  1.00  0.00    -0.084 NA 
HETATM   16  N   UNK A   0      -6.462   8.966  74.224  1.00  0.00    -0.311 NA 
HETATM   17  N   UNK A   0      -8.507   7.926  74.444  1.00  0.00    -0.388 N  
ENDROOT
BRANCH   3  18
HETATM   18  C   UNK A   0     -11.028   8.071  69.785  1.00  0.00    -0.137 C  
BRANCH  18  19
HETATM   19  N   UNK A   0     -10.683   8.419  68.392  1.00  0.00    -0.425 NA 
HETATM   20  H   UNK A   0     -10.400   7.706  67.720  1.00  0.00     0.000 HD 
BRANCH  19  21
HETATM   21  C   UNK A   0     -10.759   9.773  68.038  1.00  0.00    -0.247 A  
HETATM   22  C   UNK A   0     -10.672  11.436  66.258  1.00  0.00    -0.322 A  
HETATM   23  C   UNK A   0     -10.951  12.443  67.182  1.00  0.00    -0.304 A  
HETATM   24  C   UNK A   0     -10.905  10.807  68.967  1.00  0.00    -0.278 A  
HETATM   25  C   UNK A   0     -10.566  10.111  66.692  1.00  0.00    -0.214 A  
HETATM   26  C   UNK A   0     -11.015  12.135  68.544  1.00  0.00    -0.276 A  
BRANCH  23  27
HETATM   27  C   UNK A   0     -11.157  13.835  66.708  1.00  0.00    -0.308 C  
ATOM     28  H   GLU A   1      -9.366  14.419  67.601  1.00  0.00     0.000 HD 
ATOM     29  N   GLU A   1     -10.183  14.746  67.085  1.00  0.00    -0.244 N  
HETATM   30  O   UNK A   0     -12.116  14.132  66.013  1.00  0.00    -0.400 OA 
BRANCH  29  31
ATOM     31  CA  GLU A   1     -10.304  16.182  66.753  1.00  0.00    -0.291 C  
ATOM     32  C   GLU A   1      -8.898  16.803  66.575  1.00  0.00    -0.277 C  
ATOM     33  O   GLU A   1      -7.882  15.951  66.845  1.00  0.00    -0.212 OA 
ATOM     34  OXT GLU A   1      -8.693  17.969  66.266  1.00  0.00    -0.395 OA 
BRANCH  31  35
ATOM     35  CB  GLU A   1     -11.097  16.909  67.855  1.00  0.00    -0.153 C  
BRANCH  35  36
ATOM     36  CG  GLU A   1     -10.539  16.684  69.265  1.00  0.00    -0.343 C  
ATOM     37  CD  GLU A   1     -11.395  15.758  70.092  1.00  0.00    -0.355 C  
ATOM     38  OE2 GLU A   1     -12.441  15.247  69.723  1.00  0.00    -0.275 OA 
ATOM     39  OE1 GLU A   1     -10.863  15.537  71.320  1.00  0.00    -0.280 OA 
ENDBRANCH  35  36
ENDBRANCH  31  35
ENDBRANCH  29  31
ENDBRANCH  23  27
ENDBRANCH  19  21
ENDBRANCH  18  19
ENDBRANCH   3  18
TORSDOF 7
ENDMDL
MODEL      105
REMARK 921   NORMALIZED FREE ENERGY PREDICTED BY IDOCK:   -5.86 KCAL/MOL
REMARK 922        TOTAL FREE ENERGY PREDICTED BY IDOCK:   -9.49 KCAL/MOL
REMARK 923 INTER-LIGAND FREE ENERGY PREDICTED BY IDOCK:   -8.07 KCAL/MOL
REMARK 924 INTRA-LIGAND FREE ENERGY PREDICTED BY IDOCK:   -1.42 KCAL/MOL
REMARK 927      BINDING AFFINITY PREDICTED BY RF-SCORE:    0.00 PKD
ROOT
HETATM    1  C   UNK A   0     -10.494  16.937  65.467  1.00  0.00    -0.204 C  
HETATM    2  N   UNK A   0     -11.047  15.649  65.855  1.00  0.00    -0.221 NA 
HETATM    3  C   UNK A   0     -11.244  14.621  64.792  1.00  0.00    -0.389 C  
HETATM    4  O   UNK A   0     -10.272  17.161  68.250  1.00  0.00    -0.294 OA 
HETATM    5  C   UNK A   0     -12.574  13.878  65.072  1.00  0.00    -0.390 C  
HETATM    6  C   UNK A   0     -11.549  14.388  69.784  1.00  0.00    -0.298 C  
HETATM    7  N   UNK A   0     -12.647  13.409  66.467  1.00  0.00    -0.240 NA 
HETATM    8  H   UNK A   0     -13.128  12.537  66.689  1.00  0.00     0.000 HD 
HETATM    9  H2  UNK A   0     -11.199  14.158  71.797  1.00  0.00     0.000 HD 
HETATM   10  C   UNK A   0     -12.058  14.161  67.480  1.00  0.00    -0.328 C  
HETATM   11  H   UNK A   0     -10.400  15.897  70.462  1.00  0.00     0.000 HD 
HETATM   12  C   UNK A   0     -11.333  15.274  67.197  1.00  0.00    -0.247 C  
HETATM   13  H1  UNK A   0     -12.200  12.901  71.078  1.00  0.00     0.000 HD 
HETATM   14  C   UNK A   0     -10.791  16.059  68.405  1.00  0.00    -0.310 C  
HETATM   15  N   UNK A   0     -12.185  13.756  68.776  1.00  0.00    -0.428 NA 
HETATM   16  N   UNK A   0     -11.662  13.762  70.979  1.00  0.00    -0.433 NA 
HETATM   17  N   UNK A   0     -10.869  15.476  69.658  1.00  0.00    -0.259 N  
ENDROOT
BRANCH   3  18
HETATM   18  C   UNK A   0     -10.040  13.641  64.757  1.00  0.00    -0.239 C  
BRANCH  18  19
HETATM   19  N   UNK A   0     -10.406  12.355  64.131  1.00  0.00    -0.365 NA 
HETATM   20  H   UNK A   0     -10.973  12.317  63.284  1.00  0.00     0.000 HD 
BRANCH  19  21
HETATM   21  C   UNK A   0      -9.940  11.188  64.756  1.00  0.00    -0.287 A  
HETATM   22  C   UNK A   0     -10.215   9.581  66.567  1.00  0.00    -0.307 A  
HETATM   23  C   UNK A   0      -9.149   8.832  66.068  1.00  0.00    -0.265 A  
HETATM   24  C   UNK A   0      -8.793  10.500  64.348  1.00  0.00    -0.210 A  
HETATM   25  C   UNK A   0     -10.596  10.758  65.916  1.00  0.00    -0.216 A  
HETATM   26  C   UNK A   0      -8.405   9.321  64.988  1.00  0.00    -0.160 A  
BRANCH  23  27
HETATM   27  C   UNK A   0      -8.805   7.534  66.701  1.00  0.00    -0.146 C  
ATOM     28  H   GLU A   1     -10.131   7.930  68.261  1.00  0.00     0.000 HD 
ATOM     29  N   GLU A   1      -9.437   7.271  67.906  1.00  0.00    -0.135 N  
HETATM   30  O   UNK A   0      -8.033   6.753  66.168  1.00  0.00    -0.102 OA 
BRANCH  29  31
ATOM     31  CA  GLU A   1      -9.127   6.054  68.688  1.00  0.00    -0.116 C  
ATOM     32  C   GLU A   1     -10.328   5.685  69.589  1.00  0.00    -0.276 C  
ATOM     33  O   GLU A   1     -11.343   6.579  69.547  1.00  0.00    -0.362 OA 
ATOM     34  OXT GLU A   1     -10.365   4.706  70.322  1.00  0.00    -0.202 OA 
BRANCH  31  35
ATOM     35  CB  GLU A   1      -7.853   6.280  69.523  1.00  0.00    -0.101 C  
BRANCH  35  36
ATOM     36  CG  GLU A   1      -8.034   7.293  70.659  1.00  0.00    -0.099 C  
ATOM     37  CD  GLU A   1      -7.471   8.652  70.325  1.00  0.00    -0.066 C  
ATOM     38  OE2 GLU A   1      -6.901   8.943  69.286  1.00  0.00    -0.049 OA 
ATOM     39  OE1 GLU A   1      -7.678   9.546  71.325  1.00  0.00    -0.322 OA 
ENDBRANCH  35  36
ENDBRANCH  31  35
ENDBRANCH  29  31
ENDBRANCH  23  27
ENDBRANCH  19  21
ENDBRANCH  18  19
ENDBRANCH   3  18
TORSDOF 7
ENDMDL
MODEL      106
REMARK 921   NORMALIZED FREE ENERGY PREDICTED BY IDOCK:   -5.83 KCAL/MOL
REMARK 922        TOTAL FREE ENERGY PREDICTED BY IDOCK:   -9.45 KCAL/MOL
REMARK 923 INTER-LIGAND FREE ENERGY PREDICTED BY IDOCK:   -8.63 KCAL/MOL
REMARK 924 INTRA-LIGAND FREE ENERGY PREDICTED BY IDOCK:   -0.82 KCAL/MOL
REMARK 927      BINDING AFFINITY PREDICTED BY RF-SCORE:    0.00 PKD
ROOT
HETATM    1  C   UNK A   0      -7.333   4.398  67.629  1.00  0.00    -0.069 C  
HETATM    2  N   UNK A   0      -8.564   4.911  67.045  1.00  0.00    -0.105 NA 
HETATM    3  C   UNK A   0      -9.002   6.284  67.427  1.00  0.00    -0.109 C  
HETATM    4  O   UNK A   0      -7.732   2.472  65.636  1.00  0.00    -0.075 OA 
HETATM    5  C   UNK A   0     -10.544   6.278  67.582  1.00  0.00    -0.271 C  
HETATM    6  C   UNK A   0     -10.624   3.093  63.926  1.00  0.00    -0.180 C  
HETATM    7  N   UNK A   0     -11.202   5.676  66.409  1.00  0.00    -0.727 NA 
HETATM    8  H   UNK A   0     -12.110   6.022  66.098  1.00  0.00     0.000 HD 
HETATM    9  H2  UNK A   0     -10.968   2.027  62.202  1.00  0.00     0.000 HD 
HETATM   10  C   UNK A   0     -10.579   4.633  65.728  1.00  0.00    -0.223 C  
HETATM   11  H   UNK A   0      -9.063   1.882  63.541  1.00  0.00     0.000 HD 
HETATM   12  C   UNK A   0      -9.330   4.221  66.065  1.00  0.00    -0.163 C  
HETATM   13  H1  UNK A   0     -12.266   3.126  62.655  1.00  0.00     0.000 HD 
HETATM   14  C   UNK A   0      -8.778   3.014  65.286  1.00  0.00    -0.116 C  
HETATM   15  N   UNK A   0     -11.222   4.036  64.684  1.00  0.00    -0.819 NA 
HETATM   16  N   UNK A   0     -11.349   2.723  62.843  1.00  0.00    -0.170 NA 
HETATM   17  N   UNK A   0      -9.464   2.584  64.163  1.00  0.00    -0.126 N  
ENDROOT
BRANCH   3  18
HETATM   18  C   UNK A   0      -8.541   7.316  66.362  1.00  0.00    -0.138 C  
BRANCH  18  19
HETATM   19  N   UNK A   0      -9.645   8.210  65.959  1.00  0.00    -0.438 NA 
HETATM   20  H   UNK A   0     -10.365   7.905  65.304  1.00  0.00     0.000 HD 
BRANCH  19  21
HETATM   21  C   UNK A   0      -9.656   9.497  66.516  1.00  0.00    -0.201 A  
HETATM   22  C   UNK A   0      -9.467  10.864  68.525  1.00  0.00    -0.185 A  
HETATM   23  C   UNK A   0      -9.597  12.019  67.754  1.00  0.00    -0.193 A  
HETATM   24  C   UNK A   0      -9.918  10.655  65.779  1.00  0.00    -0.315 A  
HETATM   25  C   UNK A   0      -9.509   9.612  67.905  1.00  0.00    -0.148 A  
HETATM   26  C   UNK A   0      -9.875  11.912  66.387  1.00  0.00    -0.234 A  
BRANCH  23  27
HETATM   27  C   UNK A   0      -9.456  13.350  68.398  1.00  0.00    -0.176 C  
ATOM     28  H   GLU A   1     -11.504  13.390  68.791  1.00  0.00     0.000 HD 
ATOM     29  N   GLU A   1     -10.634  13.918  68.859  1.00  0.00    -0.236 N  
HETATM   30  O   UNK A   0      -8.364  13.880  68.525  1.00  0.00    -0.155 OA 
BRANCH  29  31
ATOM     31  CA  GLU A   1     -10.654  15.275  69.446  1.00  0.00    -0.256 C  
ATOM     32  C   GLU A   1     -11.462  15.267  70.765  1.00  0.00    -0.325 C  
ATOM     33  O   GLU A   1     -12.044  14.079  71.047  1.00  0.00    -0.336 OA 
ATOM     34  OXT GLU A   1     -11.619  16.245  71.483  1.00  0.00    -0.457 OA 
BRANCH  31  35
ATOM     35  CB  GLU A   1     -11.247  16.274  68.436  1.00  0.00    -0.349 C  
BRANCH  35  36
ATOM     36  CG  GLU A   1     -10.379  16.473  67.187  1.00  0.00    -0.298 C  
ATOM     37  CD  GLU A   1     -10.425  17.887  66.664  1.00  0.00    -0.316 C  
ATOM     38  OE2 GLU A   1     -11.091  18.793  67.137  1.00  0.00    -0.284 OA 
ATOM     39  OE1 GLU A   1      -9.619  18.054  65.585  1.00  0.00    -0.437 OA 
ENDBRANCH  35  36
ENDBRANCH  31  35
ENDBRANCH  29  31
ENDBRANCH  23  27
ENDBRANCH  19  21
ENDBRANCH  18  19
ENDBRANCH   3  18
TORSDOF 7
ENDMDL
MODEL      107
REMARK 921   NORMALIZED FREE ENERGY PREDICTED BY IDOCK:   -5.79 KCAL/MOL
REMARK 922        TOTAL FREE ENERGY PREDICTED BY IDOCK:   -9.39 KCAL/MOL
REMARK 923 INTER-LIGAND FREE ENERGY PREDICTED BY IDOCK:   -8.84 KCAL/MOL
REMARK 924 INTRA-LIGAND FREE ENERGY PREDICTED BY IDOCK:   -0.55 KCAL/MOL
REMARK 927      BINDING AFFINITY PREDICTED BY RF-SCORE:    0.00 PKD
ROOT
HETATM    1  C   UNK A   0      -6.797  18.758  69.567  1.00  0.00    -0.109 C  
HETATM    2  N   UNK A   0      -6.895  18.817  68.116  1.00  0.00    -0.233 NA 
HETATM    3  C   UNK A   0      -5.785  18.226  67.314  1.00  0.00    -0.135 C  
HETATM    4  O   UNK A   0      -9.477  19.528  69.320  1.00  0.00    -0.328 OA 
HETATM    5  C   UNK A   0      -5.527  19.142  66.090  1.00  0.00    -0.155 C  
HETATM    6  C   UNK A   0     -10.309  19.946  66.032  1.00  0.00    -0.486 C  
HETATM    7  N   UNK A   0      -6.776  19.444  65.370  1.00  0.00    -0.322 NA 
HETATM    8  H   UNK A   0      -6.767  19.562  64.357  1.00  0.00     0.000 HD 
HETATM    9  H2  UNK A   0     -12.298  20.179  65.568  1.00  0.00     0.000 HD 
HETATM   10  C   UNK A   0      -7.969  19.569  66.078  1.00  0.00    -0.303 C  
HETATM   11  H   UNK A   0     -11.429  19.802  67.700  1.00  0.00     0.000 HD 
HETATM   12  C   UNK A   0      -8.022  19.323  67.413  1.00  0.00    -0.264 C  
HETATM   13  H1  UNK A   0     -11.206  20.289  64.191  1.00  0.00     0.000 HD 
HETATM   14  C   UNK A   0      -9.380  19.563  68.095  1.00  0.00    -0.350 C  
HETATM   15  N   UNK A   0      -9.109  19.913  65.415  1.00  0.00    -0.183 NA 
HETATM   16  N   UNK A   0     -11.350  20.155  65.192  1.00  0.00     0.177 NA 
HETATM   17  N   UNK A   0     -10.491  19.777  67.297  1.00  0.00    -0.445 N  
ENDROOT
BRANCH   3  18
HETATM   18  C   UNK A   0      -6.142  16.780  66.877  1.00  0.00    -0.177 C  
BRANCH  18  19
HETATM   19  N   UNK A   0      -7.465  16.721  66.223  1.00  0.00    -0.264 NA 
HETATM   20  H   UNK A   0      -7.725  17.379  65.489  1.00  0.00     0.000 HD 
BRANCH  19  21
HETATM   21  C   UNK A   0      -8.345  15.720  66.659  1.00  0.00    -0.284 A  
HETATM   22  C   UNK A   0     -10.562  14.723  66.489  1.00  0.00    -0.299 A  
HETATM   23  C   UNK A   0     -10.189  13.733  67.400  1.00  0.00    -0.252 A  
HETATM   24  C   UNK A   0      -8.033  14.804  67.667  1.00  0.00    -0.191 A  
HETATM   25  C   UNK A   0      -9.644  15.715  66.134  1.00  0.00    -0.362 A  
HETATM   26  C   UNK A   0      -8.942  13.805  68.028  1.00  0.00    -0.187 A  
BRANCH  23  27
HETATM   27  C   UNK A   0     -11.130  12.625  67.704  1.00  0.00    -0.263 C  
ATOM     28  H   GLU A   1      -9.952  12.053  69.327  1.00  0.00     0.000 HD 
ATOM     29  N   GLU A   1     -10.779  11.821  68.777  1.00  0.00    -0.217 N  
HETATM   30  O   UNK A   0     -12.152  12.466  67.055  1.00  0.00    -0.549 OA 
BRANCH  29  31
ATOM     31  CA  GLU A   1     -11.581  10.632  69.141  1.00  0.00    -0.271 C  
ATOM     32  C   GLU A   1     -12.354  10.898  70.453  1.00  0.00    -0.351 C  
ATOM     33  O   GLU A   1     -12.070  12.090  71.027  1.00  0.00    -0.245 OA 
ATOM     34  OXT GLU A   1     -13.122  10.101  70.975  1.00  0.00    -0.380 OA 
BRANCH  31  35
ATOM     35  CB  GLU A   1     -10.662   9.404  69.274  1.00  0.00    -0.228 C  
BRANCH  35  36
ATOM     36  CG  GLU A   1      -9.530   9.590  70.292  1.00  0.00    -0.307 C  
ATOM     37  CD  GLU A   1      -9.680   8.701  71.501  1.00  0.00    -0.263 C  
ATOM     38  OE2 GLU A   1     -10.603   7.928  71.698  1.00  0.00    -0.214 OA 
ATOM     39  OE1 GLU A   1      -8.647   8.849  72.369  1.00  0.00    -0.399 OA 
ENDBRANCH  35  36
ENDBRANCH  31  35
ENDBRANCH  29  31
ENDBRANCH  23  27
ENDBRANCH  19  21
ENDBRANCH  18  19
ENDBRANCH   3  18
TORSDOF 7
ENDMDL
MODEL      108
REMARK 921   NORMALIZED FREE ENERGY PREDICTED BY IDOCK:   -5.77 KCAL/MOL
REMARK 922        TOTAL FREE ENERGY PREDICTED BY IDOCK:   -9.37 KCAL/MOL
REMARK 923 INTER-LIGAND FREE ENERGY PREDICTED BY IDOCK:   -7.20 KCAL/MOL
REMARK 924 INTRA-LIGAND FREE ENERGY PREDICTED BY IDOCK:   -2.17 KCAL/MOL
REMARK 927      BINDING AFFINITY PREDICTED BY RF-SCORE:    0.00 PKD
ROOT
HETATM    1  C   UNK A   0      -7.984  13.007  67.752  1.00  0.00    -0.164 C  
HETATM    2  N   UNK A   0      -9.360  12.553  67.618  1.00  0.00    -0.183 NA 
HETATM    3  C   UNK A   0     -10.176  13.107  66.500  1.00  0.00    -0.277 C  
HETATM    4  O   UNK A   0      -7.926  10.841  69.526  1.00  0.00    -0.118 OA 
HETATM    5  C   UNK A   0     -11.616  13.348  67.019  1.00  0.00    -0.356 C  
HETATM    6  C   UNK A   0     -11.006   9.376  69.734  1.00  0.00    -0.215 C  
HETATM    7  N   UNK A   0     -12.150  12.156  67.700  1.00  0.00    -0.488 NA 
HETATM    8  H   UNK A   0     -13.145  11.936  67.643  1.00  0.00     0.000 HD 
HETATM    9  H2  UNK A   0     -11.145   7.569  70.704  1.00  0.00     0.000 HD 
HETATM   10  C   UNK A   0     -11.292  11.330  68.423  1.00  0.00    -0.281 C  
HETATM   11  H   UNK A   0      -9.181   8.773  70.335  1.00  0.00     0.000 HD 
HETATM   12  C   UNK A   0      -9.952  11.549  68.434  1.00  0.00    -0.206 C  
HETATM   13  H1  UNK A   0     -12.680   8.212  70.129  1.00  0.00     0.000 HD 
HETATM   14  C   UNK A   0      -9.116  10.612  69.325  1.00  0.00    -0.100 C  
HETATM   15  N   UNK A   0     -11.802  10.266  69.105  1.00  0.00    -0.508 NA 
HETATM   16  N   UNK A   0     -11.668   8.303  70.226  1.00  0.00    -0.470 NA 
HETATM   17  N   UNK A   0      -9.728   9.491  69.858  1.00  0.00    -0.209 N  
ENDROOT
BRANCH   3  18
HETATM   18  C   UNK A   0     -10.163  12.136  65.287  1.00  0.00    -0.274 C  
BRANCH  18  19
HETATM   19  N   UNK A   0      -8.858  11.460  65.147  1.00  0.00    -0.394 NA 
HETATM   20  H   UNK A   0      -8.074  11.908  64.674  1.00  0.00     0.000 HD 
BRANCH  19  21
HETATM   21  C   UNK A   0      -8.747  10.173  65.694  1.00  0.00    -0.158 A  
HETATM   22  C   UNK A   0      -7.295   8.478  66.673  1.00  0.00    -0.081 A  
HETATM   23  C   UNK A   0      -8.395   7.641  66.863  1.00  0.00    -0.124 A  
HETATM   24  C   UNK A   0      -9.814   9.272  65.769  1.00  0.00    -0.302 A  
HETATM   25  C   UNK A   0      -7.475   9.731  66.080  1.00  0.00    -0.102 A  
HETATM   26  C   UNK A   0      -9.646   8.018  66.362  1.00  0.00    -0.267 A  
BRANCH  23  27
HETATM   27  C   UNK A   0      -8.220   6.352  67.578  1.00  0.00    -0.117 C  
ATOM     28  H   GLU A   1      -9.076   7.172  69.293  1.00  0.00     0.000 HD 
ATOM     29  N   GLU A   1      -8.632   6.341  68.901  1.00  0.00    -0.125 N  
HETATM   30  O   UNK A   0      -7.765   5.370  67.012  1.00  0.00    -0.098 OA 
BRANCH  29  31
ATOM     31  CA  GLU A   1      -8.441   5.150  69.756  1.00  0.00    -0.096 C  
ATOM     32  C   GLU A   1      -9.812   4.620  70.239  1.00  0.00    -0.243 C  
ATOM     33  O   GLU A   1     -10.860   5.391  69.867  1.00  0.00    -0.298 OA 
ATOM     34  OXT GLU A   1      -9.960   3.626  70.936  1.00  0.00    -0.149 OA 
BRANCH  31  35
ATOM     35  CB  GLU A   1      -7.529   5.502  70.946  1.00  0.00    -0.089 C  
BRANCH  35  36
ATOM     36  CG  GLU A   1      -7.506   6.998  71.282  1.00  0.00    -0.081 C  
ATOM     37  CD  GLU A   1      -8.487   7.368  72.366  1.00  0.00    -0.112 C  
ATOM     38  OE2 GLU A   1      -9.253   6.595  72.918  1.00  0.00    -0.136 OA 
ATOM     39  OE1 GLU A   1      -8.422   8.687  72.679  1.00  0.00    -0.378 OA 
ENDBRANCH  35  36
ENDBRANCH  31  35
ENDBRANCH  29  31
ENDBRANCH  23  27
ENDBRANCH  19  21
ENDBRANCH  18  19
ENDBRANCH   3  18
TORSDOF 7
ENDMDL
MODEL      109
REMARK 921   NORMALIZED FREE ENERGY PREDICTED BY IDOCK:   -5.75 KCAL/MOL
REMARK 922        TOTAL FREE ENERGY PREDICTED BY IDOCK:   -9.33 KCAL/MOL
REMARK 923 INTER-LIGAND FREE ENERGY PREDICTED BY IDOCK:   -7.84 KCAL/MOL
REMARK 924 INTRA-LIGAND FREE ENERGY PREDICTED BY IDOCK:   -1.50 KCAL/MOL
REMARK 927      BINDING AFFINITY PREDICTED BY RF-SCORE:    0.00 PKD
ROOT
HETATM    1  C   UNK A   0     -10.354   7.850  66.876  1.00  0.00    -0.330 C  
HETATM    2  N   UNK A   0      -9.671   9.052  66.420  1.00  0.00    -0.246 NA 
HETATM    3  C   UNK A   0      -9.903   9.499  65.016  1.00  0.00     0.055 C  
HETATM    4  O   UNK A   0      -9.442   8.823  69.338  1.00  0.00    -0.159 OA 
HETATM    5  C   UNK A   0      -8.561  10.020  64.442  1.00  0.00    -0.190 C  
HETATM    6  C   UNK A   0      -7.614  11.676  68.901  1.00  0.00    -0.087 C  
HETATM    7  N   UNK A   0      -7.926  10.991  65.350  1.00  0.00    -0.367 NA 
HETATM    8  H   UNK A   0      -7.384  11.767  64.971  1.00  0.00     0.000 HD 
HETATM    9  H2  UNK A   0      -7.121  12.766  70.573  1.00  0.00     0.000 HD 
HETATM   10  C   UNK A   0      -8.070  10.845  66.728  1.00  0.00    -0.142 C  
HETATM   11  H   UNK A   0      -8.417  10.826  70.540  1.00  0.00     0.000 HD 
HETATM   12  C   UNK A   0      -8.865   9.876  67.252  1.00  0.00    -0.132 C  
HETATM   13  H1  UNK A   0      -6.474  13.404  69.065  1.00  0.00     0.000 HD 
HETATM   14  C   UNK A   0      -8.887   9.770  68.787  1.00  0.00    -0.129 C  
HETATM   15  N   UNK A   0      -7.427  11.708  67.564  1.00  0.00    -0.115 NA 
HETATM   16  N   UNK A   0      -7.020  12.699  69.560  1.00  0.00    -0.334 NA 
HETATM   17  N   UNK A   0      -8.304  10.785  69.527  1.00  0.00    -0.385 N  
ENDROOT
BRANCH   3  18
HETATM   18  C   UNK A   0     -11.004  10.594  64.971  1.00  0.00     0.284 C  
BRANCH  18  19
HETATM   19  N   UNK A   0     -10.489  11.858  64.409  1.00  0.00    -0.290 NA 
HETATM   20  H   UNK A   0     -10.094  11.902  63.470  1.00  0.00     0.000 HD 
BRANCH  19  21
HETATM   21  C   UNK A   0     -10.568  12.996  65.226  1.00  0.00    -0.304 A  
HETATM   22  C   UNK A   0     -11.306  13.954  67.342  1.00  0.00    -0.349 A  
HETATM   23  C   UNK A   0     -10.741  15.180  66.986  1.00  0.00    -0.307 A  
HETATM   24  C   UNK A   0     -10.127  14.262  64.831  1.00  0.00    -0.267 A  
HETATM   25  C   UNK A   0     -11.227  12.875  66.457  1.00  0.00    -0.340 A  
HETATM   26  C   UNK A   0     -10.198  15.347  65.708  1.00  0.00    -0.378 A  
BRANCH  23  27
HETATM   27  C   UNK A   0     -10.741  16.298  67.964  1.00  0.00    -0.331 C  
ATOM     28  H   GLU A   1      -9.191  17.226  66.922  1.00  0.00     0.000 HD 
ATOM     29  N   GLU A   1      -9.788  17.281  67.747  1.00  0.00    -0.272 N  
HETATM   30  O   UNK A   0     -11.550  16.341  68.877  1.00  0.00    -0.330 OA 
BRANCH  29  31
ATOM     31  CA  GLU A   1      -9.620  18.409  68.689  1.00  0.00    -0.340 C  
ATOM     32  C   GLU A   1     -10.441  19.627  68.205  1.00  0.00    -0.329 C  
ATOM     33  O   GLU A   1     -11.046  19.444  67.009  1.00  0.00    -0.420 OA 
ATOM     34  OXT GLU A   1     -10.514  20.691  68.805  1.00  0.00    -0.004 OA 
BRANCH  31  35
ATOM     35  CB  GLU A   1      -8.127  18.761  68.822  1.00  0.00    -0.330 C  
BRANCH  35  36
ATOM     36  CG  GLU A   1      -7.329  18.553  67.530  1.00  0.00    -0.223 C  
ATOM     37  CD  GLU A   1      -7.113  19.834  66.764  1.00  0.00    -0.219 C  
ATOM     38  OE2 GLU A   1      -7.537  20.931  67.091  1.00  0.00    -0.327 OA 
ATOM     39  OE1 GLU A   1      -6.368  19.637  65.647  1.00  0.00    -0.196 OA 
ENDBRANCH  35  36
ENDBRANCH  31  35
ENDBRANCH  29  31
ENDBRANCH  23  27
ENDBRANCH  19  21
ENDBRANCH  18  19
ENDBRANCH   3  18
TORSDOF 7
ENDMDL
MODEL      110
REMARK 921   NORMALIZED FREE ENERGY PREDICTED BY IDOCK:   -5.73 KCAL/MOL
REMARK 922        TOTAL FREE ENERGY PREDICTED BY IDOCK:   -9.30 KCAL/MOL
REMARK 923 INTER-LIGAND FREE ENERGY PREDICTED BY IDOCK:   -7.98 KCAL/MOL
REMARK 924 INTRA-LIGAND FREE ENERGY PREDICTED BY IDOCK:   -1.32 KCAL/MOL
REMARK 927      BINDING AFFINITY PREDICTED BY RF-SCORE:    0.00 PKD
ROOT
HETATM    1  C   UNK A   0      -9.077  14.802  65.975  1.00  0.00    -0.026 C  
HETATM    2  N   UNK A   0     -10.167  13.840  65.908  1.00  0.00    -0.305 NA 
HETATM    3  C   UNK A   0     -10.696  13.473  64.563  1.00  0.00    -0.418 C  
HETATM    4  O   UNK A   0      -9.023  13.863  68.613  1.00  0.00    -0.166 OA 
HETATM    5  C   UNK A   0     -12.237  13.336  64.666  1.00  0.00    -0.407 C  
HETATM    6  C   UNK A   0     -11.506  11.573  69.124  1.00  0.00    -0.297 C  
HETATM    7  N   UNK A   0     -12.627  12.468  65.791  1.00  0.00    -0.454 NA 
HETATM    8  H   UNK A   0     -13.456  11.878  65.718  1.00  0.00     0.000 HD 
HETATM    9  H2  UNK A   0     -11.467  10.489  70.871  1.00  0.00     0.000 HD 
HETATM   10  C   UNK A   0     -11.860  12.456  66.953  1.00  0.00    -0.307 C  
HETATM   11  H   UNK A   0      -9.879  12.063  70.205  1.00  0.00     0.000 HD 
HETATM   12  C   UNK A   0     -10.702  13.160  67.037  1.00  0.00    -0.262 C  
HETATM   13  H1  UNK A   0     -12.849  10.155  69.832  1.00  0.00     0.000 HD 
HETATM   14  C   UNK A   0      -9.981  13.125  68.396  1.00  0.00    -0.223 C  
HETATM   15  N   UNK A   0     -12.263  11.701  68.014  1.00  0.00    -0.460 NA 
HETATM   16  N   UNK A   0     -11.984  10.666  70.009  1.00  0.00    -0.311 NA 
HETATM   17  N   UNK A   0     -10.413  12.218  69.348  1.00  0.00    -0.390 N  
ENDROOT
BRANCH   3  18
HETATM   18  C   UNK A   0     -10.041  12.157  64.063  1.00  0.00    -0.331 C  
BRANCH  18  19
HETATM   19  N   UNK A   0      -8.817  11.837  64.825  1.00  0.00    -0.161 NA 
HETATM   20  H   UNK A   0      -7.942  12.332  64.660  1.00  0.00     0.000 HD 
BRANCH  19  21
HETATM   21  C   UNK A   0      -8.915  10.819  65.785  1.00  0.00    -0.187 A  
HETATM   22  C   UNK A   0      -7.943   9.751  67.748  1.00  0.00    -0.101 A  
HETATM   23  C   UNK A   0      -9.020   8.865  67.803  1.00  0.00    -0.140 A  
HETATM   24  C   UNK A   0      -9.915   9.842  65.775  1.00  0.00    -0.349 A  
HETATM   25  C   UNK A   0      -7.891  10.712  66.735  1.00  0.00    -0.126 A  
HETATM   26  C   UNK A   0      -9.979   8.878  66.784  1.00  0.00    -0.338 A  
BRANCH  23  27
HETATM   27  C   UNK A   0      -9.125   7.907  68.932  1.00  0.00    -0.141 C  
ATOM     28  H   GLU A   1      -9.599   9.469  70.230  1.00  0.00     0.000 HD 
ATOM     29  N   GLU A   1      -9.416   8.467  70.166  1.00  0.00    -0.163 N  
HETATM   30  O   UNK A   0      -8.984   6.707  68.761  1.00  0.00    -0.126 OA 
BRANCH  29  31
ATOM     31  CA  GLU A   1      -9.468   7.642  71.392  1.00  0.00    -0.148 C  
ATOM     32  C   GLU A   1     -10.929   7.231  71.691  1.00  0.00    -0.226 C  
ATOM     33  O   GLU A   1     -11.837   7.776  70.848  1.00  0.00    -0.290 OA 
ATOM     34  OXT GLU A   1     -11.268   6.520  72.627  1.00  0.00    -0.253 OA 
BRANCH  31  35
ATOM     35  CB  GLU A   1      -8.856   8.419  72.572  1.00  0.00    -0.296 C  
BRANCH  35  36
ATOM     36  CG  GLU A   1      -7.709   7.676  73.269  1.00  0.00    -0.142 C  
ATOM     37  CD  GLU A   1      -6.373   8.346  73.070  1.00  0.00    -0.098 C  
ATOM     38  OE2 GLU A   1      -6.181   9.353  72.409  1.00  0.00    -0.296 OA 
ATOM     39  OE1 GLU A   1      -5.379   7.698  73.728  1.00  0.00    -0.045 OA 
ENDBRANCH  35  36
ENDBRANCH  31  35
ENDBRANCH  29  31
ENDBRANCH  23  27
ENDBRANCH  19  21
ENDBRANCH  18  19
ENDBRANCH   3  18
TORSDOF 7
ENDMDL
MODEL      111
REMARK 921   NORMALIZED FREE ENERGY PREDICTED BY IDOCK:   -5.71 KCAL/MOL
REMARK 922        TOTAL FREE ENERGY PREDICTED BY IDOCK:   -9.28 KCAL/MOL
REMARK 923 INTER-LIGAND FREE ENERGY PREDICTED BY IDOCK:   -8.34 KCAL/MOL
REMARK 924 INTRA-LIGAND FREE ENERGY PREDICTED BY IDOCK:   -0.93 KCAL/MOL
REMARK 927      BINDING AFFINITY PREDICTED BY RF-SCORE:    0.00 PKD
ROOT
HETATM    1  C   UNK A   0      -7.557   5.018  65.201  1.00  0.00    -0.081 C  
HETATM    2  N   UNK A   0      -7.773   5.802  66.408  1.00  0.00    -0.098 NA 
HETATM    3  C   UNK A   0      -7.706   7.288  66.300  1.00  0.00    -0.097 C  
HETATM    4  O   UNK A   0      -8.551   3.010  66.881  1.00  0.00    -0.100 OA 
HETATM    5  C   UNK A   0      -6.998   7.837  67.564  1.00  0.00    -0.078 C  
HETATM    6  C   UNK A   0      -9.171   4.253  70.002  1.00  0.00    -0.137 C  
HETATM    7  N   UNK A   0      -7.592   7.290  68.796  1.00  0.00    -0.101 NA 
HETATM    8  H   UNK A   0      -7.636   7.860  69.641  1.00  0.00     0.000 HD 
HETATM    9  H2  UNK A   0     -10.219   3.068  71.316  1.00  0.00     0.000 HD 
HETATM   10  C   UNK A   0      -8.093   5.990  68.803  1.00  0.00    -0.104 C  
HETATM   11  H   UNK A   0      -9.707   2.532  69.104  1.00  0.00     0.000 HD 
HETATM   12  C   UNK A   0      -8.131   5.246  67.667  1.00  0.00    -0.100 C  
HETATM   13  H1  UNK A   0      -9.685   4.608  71.983  1.00  0.00     0.000 HD 
HETATM   14  C   UNK A   0      -8.640   3.802  67.816  1.00  0.00    -0.098 C  
HETATM   15  N   UNK A   0      -8.581   5.466  69.963  1.00  0.00    -0.120 NA 
HETATM   16  N   UNK A   0      -9.734   3.958  71.198  1.00  0.00    -0.177 NA 
HETATM   17  N   UNK A   0      -9.233   3.431  69.011  1.00  0.00    -0.148 N  
ENDROOT
BRANCH   3  18
HETATM   18  C   UNK A   0      -9.131   7.885  66.141  1.00  0.00    -0.163 C  
BRANCH  18  19
HETATM   19  N   UNK A   0      -9.213   8.793  64.980  1.00  0.00    -0.433 NA 
HETATM   20  H   UNK A   0      -8.832   8.530  64.070  1.00  0.00     0.000 HD 
BRANCH  19  21
HETATM   21  C   UNK A   0      -9.836  10.032  65.185  1.00  0.00    -0.318 A  
HETATM   22  C   UNK A   0     -10.859  11.577  66.768  1.00  0.00    -0.330 A  
HETATM   23  C   UNK A   0     -11.041  12.508  65.746  1.00  0.00    -0.343 A  
HETATM   24  C   UNK A   0     -10.146  10.921  64.151  1.00  0.00    -0.416 A  
HETATM   25  C   UNK A   0     -10.270  10.342  66.480  1.00  0.00    -0.289 A  
HETATM   26  C   UNK A   0     -10.732  12.159  64.427  1.00  0.00    -0.366 A  
BRANCH  23  27
HETATM   27  C   UNK A   0     -11.579  13.855  66.068  1.00  0.00    -0.349 C  
ATOM     28  H   GLU A   1      -9.786  14.361  67.004  1.00  0.00     0.000 HD 
ATOM     29  N   GLU A   1     -10.730  14.680  66.788  1.00  0.00    -0.296 N  
HETATM   30  O   UNK A   0     -12.688  14.200  65.694  1.00  0.00    -0.514 OA 
BRANCH  29  31
ATOM     31  CA  GLU A   1     -11.166  16.017  67.249  1.00  0.00    -0.041 C  
ATOM     32  C   GLU A   1     -10.266  17.110  66.625  1.00  0.00    -0.319 C  
ATOM     33  O   GLU A   1      -9.240  16.624  65.888  1.00  0.00    -0.471 OA 
ATOM     34  OXT GLU A   1     -10.414  18.311  66.806  1.00  0.00    -0.371 OA 
BRANCH  31  35
ATOM     35  CB  GLU A   1     -11.131  16.077  68.787  1.00  0.00    -0.338 C  
BRANCH  35  36
ATOM     36  CG  GLU A   1     -11.365  14.719  69.460  1.00  0.00    -0.312 C  
ATOM     37  CD  GLU A   1     -12.506  14.747  70.448  1.00  0.00    -0.349 C  
ATOM     38  OE2 GLU A   1     -13.172  15.730  70.728  1.00  0.00    -0.542 OA 
ATOM     39  OE1 GLU A   1     -12.725  13.527  71.001  1.00  0.00    -0.343 OA 
ENDBRANCH  35  36
ENDBRANCH  31  35
ENDBRANCH  29  31
ENDBRANCH  23  27
ENDBRANCH  19  21
ENDBRANCH  18  19
ENDBRANCH   3  18
TORSDOF 7
ENDMDL
MODEL      112
REMARK 921   NORMALIZED FREE ENERGY PREDICTED BY IDOCK:   -5.71 KCAL/MOL
REMARK 922        TOTAL FREE ENERGY PREDICTED BY IDOCK:   -9.27 KCAL/MOL
REMARK 923 INTER-LIGAND FREE ENERGY PREDICTED BY IDOCK:   -8.09 KCAL/MOL
REMARK 924 INTRA-LIGAND FREE ENERGY PREDICTED BY IDOCK:   -1.19 KCAL/MOL
REMARK 927      BINDING AFFINITY PREDICTED BY RF-SCORE:    0.00 PKD
ROOT
HETATM    1  C   UNK A   0     -10.041   4.990  70.785  1.00  0.00    -0.237 C  
HETATM    2  N   UNK A   0      -9.674   6.364  70.480  1.00  0.00    -0.168 NA 
HETATM    3  C   UNK A   0      -8.461   6.597  69.644  1.00  0.00    -0.132 C  
HETATM    4  O   UNK A   0     -12.381   6.285  71.616  1.00  0.00    -0.241 OA 
HETATM    5  C   UNK A   0      -7.713   7.834  70.204  1.00  0.00    -0.090 C  
HETATM    6  C   UNK A   0     -12.083   9.667  71.234  1.00  0.00    -0.371 C  
HETATM    7  N   UNK A   0      -8.622   8.979  70.383  1.00  0.00    -0.172 NA 
HETATM    8  H   UNK A   0      -8.282   9.930  70.240  1.00  0.00     0.000 HD 
HETATM    9  H2  UNK A   0     -13.777  10.810  71.452  1.00  0.00     0.000 HD 
HETATM   10  C   UNK A   0      -9.948   8.757  70.750  1.00  0.00    -0.213 C  
HETATM   11  H   UNK A   0     -13.674   8.483  71.579  1.00  0.00     0.000 HD 
HETATM   12  C   UNK A   0     -10.446   7.499  70.853  1.00  0.00    -0.213 C  
HETATM   13  H1  UNK A   0     -12.307  11.730  71.148  1.00  0.00     0.000 HD 
HETATM   14  C   UNK A   0     -11.904   7.381  71.334  1.00  0.00    -0.300 C  
HETATM   15  N   UNK A   0     -10.767   9.823  70.978  1.00  0.00    -0.317 NA 
HETATM   16  N   UNK A   0     -12.772  10.831  71.281  1.00  0.00    -0.408 NA 
HETATM   17  N   UNK A   0     -12.671   8.532  71.401  1.00  0.00    -0.404 N  
ENDROOT
BRANCH   3  18
HETATM   18  C   UNK A   0      -8.858   6.798  68.156  1.00  0.00    -0.120 C  
BRANCH  18  19
HETATM   19  N   UNK A   0      -8.225   8.003  67.584  1.00  0.00    -0.123 NA 
HETATM   20  H   UNK A   0      -7.223   8.040  67.395  1.00  0.00     0.000 HD 
BRANCH  19  21
HETATM   21  C   UNK A   0      -9.064   9.093  67.312  1.00  0.00    -0.126 A  
HETATM   22  C   UNK A   0      -9.253  11.497  66.960  1.00  0.00    -0.180 A  
HETATM   23  C   UNK A   0     -10.620  11.356  66.715  1.00  0.00    -0.298 A  
HETATM   24  C   UNK A   0     -10.453   8.988  67.196  1.00  0.00    -0.333 A  
HETATM   25  C   UNK A   0      -8.487  10.369  67.268  1.00  0.00    -0.122 A  
HETATM   26  C   UNK A   0     -11.228  10.108  66.885  1.00  0.00     0.190 A  
BRANCH  23  27
HETATM   27  C   UNK A   0     -11.415  12.537  66.294  1.00  0.00    -0.370 C  
ATOM     28  H   GLU A   1      -9.902  13.809  66.961  1.00  0.00     0.000 HD 
ATOM     29  N   GLU A   1     -10.839  13.770  66.558  1.00  0.00    -0.286 N  
HETATM   30  O   UNK A   0     -12.491  12.410  65.732  1.00  0.00    -0.615 OA 
BRANCH  29  31
ATOM     31  CA  GLU A   1     -11.556  15.031  66.269  1.00  0.00    -0.160 C  
ATOM     32  C   GLU A   1     -10.929  15.723  65.035  1.00  0.00    -0.417 C  
ATOM     33  O   GLU A   1      -9.830  15.098  64.553  1.00  0.00     0.095 OA 
ATOM     34  OXT GLU A   1     -11.338  16.769  64.549  1.00  0.00    -0.959 OA 
BRANCH  31  35
ATOM     35  CB  GLU A   1     -11.516  15.951  67.503  1.00  0.00    -0.005 C  
BRANCH  35  36
ATOM     36  CG  GLU A   1     -10.241  16.796  67.600  1.00  0.00    -0.289 C  
ATOM     37  CD  GLU A   1      -9.291  16.301  68.662  1.00  0.00    -0.219 C  
ATOM     38  OE2 GLU A   1      -9.494  15.353  69.402  1.00  0.00    -0.246 OA 
ATOM     39  OE1 GLU A   1      -8.151  17.035  68.703  1.00  0.00    -0.237 OA 
ENDBRANCH  35  36
ENDBRANCH  31  35
ENDBRANCH  29  31
ENDBRANCH  23  27
ENDBRANCH  19  21
ENDBRANCH  18  19
ENDBRANCH   3  18
TORSDOF 7
ENDMDL
MODEL      113
REMARK 921   NORMALIZED FREE ENERGY PREDICTED BY IDOCK:   -5.70 KCAL/MOL
REMARK 922        TOTAL FREE ENERGY PREDICTED BY IDOCK:   -9.26 KCAL/MOL
REMARK 923 INTER-LIGAND FREE ENERGY PREDICTED BY IDOCK:   -8.74 KCAL/MOL
REMARK 924 INTRA-LIGAND FREE ENERGY PREDICTED BY IDOCK:   -0.53 KCAL/MOL
REMARK 927      BINDING AFFINITY PREDICTED BY RF-SCORE:    0.00 PKD
ROOT
HETATM    1  C   UNK A   0      -8.017   9.926  67.468  1.00  0.00    -0.106 C  
HETATM    2  N   UNK A   0      -9.208   9.198  67.880  1.00  0.00    -0.134 NA 
HETATM    3  C   UNK A   0     -10.161   9.877  68.804  1.00  0.00    -0.174 C  
HETATM    4  O   UNK A   0      -7.906   7.799  65.650  1.00  0.00    -0.095 OA 
HETATM    5  C   UNK A   0     -10.684   8.831  69.821  1.00  0.00    -0.218 C  
HETATM    6  C   UNK A   0     -10.472   5.612  66.200  1.00  0.00    -0.031 C  
HETATM    7  N   UNK A   0     -11.172   7.617  69.143  1.00  0.00    -0.413 NA 
HETATM    8  H   UNK A   0     -11.959   7.097  69.530  1.00  0.00     0.000 HD 
HETATM    9  H2  UNK A   0     -10.809   4.154  64.790  1.00  0.00     0.000 HD 
HETATM   10  C   UNK A   0     -10.553   7.184  67.973  1.00  0.00    -0.196 C  
HETATM   11  H   UNK A   0      -9.190   5.829  64.662  1.00  0.00     0.000 HD 
HETATM   12  C   UNK A   0      -9.566   7.912  67.389  1.00  0.00    -0.152 C  
HETATM   13  H1  UNK A   0     -11.867   4.074  66.196  1.00  0.00     0.000 HD 
HETATM   14  C   UNK A   0      -8.913   7.294  66.141  1.00  0.00    -0.149 C  
HETATM   15  N   UNK A   0     -10.966   6.024  67.387  1.00  0.00    -0.447 NA 
HETATM   16  N   UNK A   0     -11.103   4.527  65.693  1.00  0.00    -0.806 NA 
HETATM   17  N   UNK A   0      -9.507   6.184  65.565  1.00  0.00    -0.356 N  
ENDROOT
BRANCH   3  18
HETATM   18  C   UNK A   0     -11.324  10.524  68.003  1.00  0.00    -0.246 C  
BRANCH  18  19
HETATM   19  N   UNK A   0     -10.928  10.815  66.611  1.00  0.00    -0.166 NA 
HETATM   20  H   UNK A   0     -10.661  10.071  65.966  1.00  0.00     0.000 HD 
BRANCH  19  21
HETATM   21  C   UNK A   0     -10.935  12.161  66.216  1.00  0.00    -0.295 A  
HETATM   22  C   UNK A   0     -10.929  14.500  66.902  1.00  0.00    -0.316 A  
HETATM   23  C   UNK A   0     -10.887  14.894  65.564  1.00  0.00    -0.365 A  
HETATM   24  C   UNK A   0     -11.028  12.574  64.884  1.00  0.00    -0.335 A  
HETATM   25  C   UNK A   0     -10.965  13.139  67.219  1.00  0.00    -0.288 A  
HETATM   26  C   UNK A   0     -10.990  13.931  64.554  1.00  0.00    -0.379 A  
BRANCH  23  27
HETATM   27  C   UNK A   0     -10.753  16.335  65.229  1.00  0.00    -0.332 C  
ATOM     28  H   GLU A   1      -9.347  16.571  66.750  1.00  0.00     0.000 HD 
ATOM     29  N   GLU A   1      -9.882  17.056  66.030  1.00  0.00    -0.271 N  
HETATM   30  O   UNK A   0     -11.359  16.826  64.290  1.00  0.00    -1.170 OA 
BRANCH  29  31
ATOM     31  CA  GLU A   1      -9.714  18.516  65.863  1.00  0.00     0.056 C  
ATOM     32  C   GLU A   1      -8.215  18.860  65.697  1.00  0.00     0.460 C  
ATOM     33  O   GLU A   1      -7.389  17.796  65.832  1.00  0.00    -0.438 OA 
ATOM     34  OXT GLU A   1      -7.783  19.989  65.510  1.00  0.00    -0.308 OA 
BRANCH  31  35
ATOM     35  CB  GLU A   1     -10.325  19.255  67.068  1.00  0.00    -0.526 C  
BRANCH  35  36
ATOM     36  CG  GLU A   1     -11.078  18.334  68.036  1.00  0.00     0.185 C  
ATOM     37  CD  GLU A   1     -10.162  17.645  69.017  1.00  0.00    -0.314 C  
ATOM     38  OE2 GLU A   1      -8.948  17.759  69.048  1.00  0.00    -0.160 OA 
ATOM     39  OE1 GLU A   1     -10.850  16.868  69.892  1.00  0.00    -0.254 OA 
ENDBRANCH  35  36
ENDBRANCH  31  35
ENDBRANCH  29  31
ENDBRANCH  23  27
ENDBRANCH  19  21
ENDBRANCH  18  19
ENDBRANCH   3  18
TORSDOF 7
ENDMDL
MODEL      114
REMARK 921   NORMALIZED FREE ENERGY PREDICTED BY IDOCK:   -5.70 KCAL/MOL
REMARK 922        TOTAL FREE ENERGY PREDICTED BY IDOCK:   -9.26 KCAL/MOL
REMARK 923 INTER-LIGAND FREE ENERGY PREDICTED BY IDOCK:   -8.42 KCAL/MOL
REMARK 924 INTRA-LIGAND FREE ENERGY PREDICTED BY IDOCK:   -0.84 KCAL/MOL
REMARK 927      BINDING AFFINITY PREDICTED BY RF-SCORE:    0.00 PKD
ROOT
HETATM    1  C   UNK A   0     -12.482   6.977  71.324  1.00  0.00    -0.386 C  
HETATM    2  N   UNK A   0     -11.295   6.468  70.653  1.00  0.00    -0.328 NA 
HETATM    3  C   UNK A   0     -10.903   7.089  69.355  1.00  0.00    -0.227 C  
HETATM    4  O   UNK A   0     -11.409   5.433  73.399  1.00  0.00    -0.271 OA 
HETATM    5  C   UNK A   0     -10.397   5.968  68.412  1.00  0.00    -0.207 C  
HETATM    6  C   UNK A   0      -8.564   3.847  72.369  1.00  0.00    -0.101 C  
HETATM    7  N   UNK A   0      -9.387   5.123  69.072  1.00  0.00    -0.114 NA 
HETATM    8  H   UNK A   0      -8.623   4.720  68.530  1.00  0.00     0.000 HD 
HETATM    9  H2  UNK A   0      -7.406   2.928  73.798  1.00  0.00     0.000 HD 
HETATM   10  C   UNK A   0      -9.481   4.876  70.440  1.00  0.00    -0.167 C  
HETATM   11  H   UNK A   0      -9.355   4.148  74.196  1.00  0.00     0.000 HD 
HETATM   12  C   UNK A   0     -10.434   5.477  71.198  1.00  0.00    -0.236 C  
HETATM   13  H1  UNK A   0      -6.823   2.736  72.148  1.00  0.00     0.000 HD 
HETATM   14  C   UNK A   0     -10.480   5.069  72.682  1.00  0.00    -0.209 C  
HETATM   15  N   UNK A   0      -8.582   4.040  71.033  1.00  0.00    -0.075 NA 
HETATM   16  N   UNK A   0      -7.512   3.111  72.800  1.00  0.00    -0.049 NA 
HETATM   17  N   UNK A   0      -9.434   4.321  73.193  1.00  0.00    -0.113 N  
ENDROOT
BRANCH   3  18
HETATM   18  C   UNK A   0      -9.819   8.177  69.580  1.00  0.00    -0.181 C  
BRANCH  18  19
HETATM   19  N   UNK A   0     -10.421   9.481  69.922  1.00  0.00    -0.223 NA 
HETATM   20  H   UNK A   0     -10.906   9.629  70.806  1.00  0.00     0.000 HD 
BRANCH  19  21
HETATM   21  C   UNK A   0     -10.295  10.507  68.973  1.00  0.00    -0.213 A  
HETATM   22  C   UNK A   0     -11.402  11.933  67.336  1.00  0.00    -0.389 A  
HETATM   23  C   UNK A   0     -10.197  12.592  67.092  1.00  0.00    -0.230 A  
HETATM   24  C   UNK A   0      -9.073  11.087  68.621  1.00  0.00    -0.174 A  
HETATM   25  C   UNK A   0     -11.442  10.888  68.264  1.00  0.00    -0.376 A  
HETATM   26  C   UNK A   0      -9.022  12.134  67.697  1.00  0.00    -0.178 A  
BRANCH  23  27
HETATM   27  C   UNK A   0     -10.174  13.763  66.178  1.00  0.00    -0.301 C  
ATOM     28  H   GLU A   1      -9.031  14.832  67.555  1.00  0.00     0.000 HD 
ATOM     29  N   GLU A   1      -9.509  14.881  66.656  1.00  0.00    -0.250 N  
HETATM   30  O   UNK A   0     -10.692  13.714  65.073  1.00  0.00    -0.323 OA 
BRANCH  29  31
ATOM     31  CA  GLU A   1      -9.479  16.144  65.886  1.00  0.00    -0.302 C  
ATOM     32  C   GLU A   1      -8.136  16.874  66.124  1.00  0.00    -0.260 C  
ATOM     33  O   GLU A   1      -7.335  16.272  67.032  1.00  0.00    -0.185 OA 
ATOM     34  OXT GLU A   1      -7.821  17.930  65.590  1.00  0.00    -0.534 OA 
BRANCH  31  35
ATOM     35  CB  GLU A   1     -10.673  17.029  66.287  1.00  0.00    -0.086 C  
BRANCH  35  36
ATOM     36  CG  GLU A   1     -10.456  17.800  67.595  1.00  0.00    -0.393 C  
ATOM     37  CD  GLU A   1     -10.564  19.294  67.418  1.00  0.00    -0.487 C  
ATOM     38  OE2 GLU A   1     -10.771  19.865  66.360  1.00  0.00    -0.454 OA 
ATOM     39  OE1 GLU A   1     -10.412  19.955  68.593  1.00  0.00    -0.400 OA 
ENDBRANCH  35  36
ENDBRANCH  31  35
ENDBRANCH  29  31
ENDBRANCH  23  27
ENDBRANCH  19  21
ENDBRANCH  18  19
ENDBRANCH   3  18
TORSDOF 7
ENDMDL
MODEL      115
REMARK 921   NORMALIZED FREE ENERGY PREDICTED BY IDOCK:   -5.69 KCAL/MOL
REMARK 922        TOTAL FREE ENERGY PREDICTED BY IDOCK:   -9.25 KCAL/MOL
REMARK 923 INTER-LIGAND FREE ENERGY PREDICTED BY IDOCK:   -7.90 KCAL/MOL
REMARK 924 INTRA-LIGAND FREE ENERGY PREDICTED BY IDOCK:   -1.36 KCAL/MOL
REMARK 927      BINDING AFFINITY PREDICTED BY RF-SCORE:    0.00 PKD
ROOT
HETATM    1  C   UNK A   0      -8.727   5.030  63.373  1.00  0.00    -0.078 C  
HETATM    2  N   UNK A   0      -8.470   5.993  64.433  1.00  0.00    -0.328 NA 
HETATM    3  C   UNK A   0      -7.458   7.059  64.182  1.00  0.00    -0.098 C  
HETATM    4  O   UNK A   0     -10.888   4.446  65.055  1.00  0.00    -0.242 OA 
HETATM    5  C   UNK A   0      -6.650   7.281  65.486  1.00  0.00    -0.048 C  
HETATM    6  C   UNK A   0     -10.776   6.379  67.870  1.00  0.00    -0.299 C  
HETATM    7  N   UNK A   0      -7.539   7.472  66.646  1.00  0.00    -0.095 NA 
HETATM    8  H   UNK A   0      -7.264   8.096  67.404  1.00  0.00     0.000 HD 
HETATM    9  H2  UNK A   0     -12.425   6.384  69.098  1.00  0.00     0.000 HD 
HETATM   10  C   UNK A   0      -8.756   6.797  66.702  1.00  0.00    -0.127 C  
HETATM   11  H   UNK A   0     -12.229   5.232  67.078  1.00  0.00     0.000 HD 
HETATM   12  C   UNK A   0      -9.185   6.036  65.662  1.00  0.00     0.045 C  
HETATM   13  H1  UNK A   0     -11.075   7.351  69.681  1.00  0.00     0.000 HD 
HETATM   14  C   UNK A   0     -10.511   5.284  65.871  1.00  0.00    -0.049 C  
HETATM   15  N   UNK A   0      -9.544   6.927  67.807  1.00  0.00    -0.122 NA 
HETATM   16  N   UNK A   0     -11.476   6.736  68.972  1.00  0.00    -0.582 NA 
HETATM   17  N   UNK A   0     -11.283   5.602  66.975  1.00  0.00    -0.322 N  
ENDROOT
BRANCH   3  18
HETATM   18  C   UNK A   0      -8.153   8.366  63.714  1.00  0.00    -0.142 C  
BRANCH  18  19
HETATM   19  N   UNK A   0      -7.596   9.551  64.396  1.00  0.00    -0.116 NA 
HETATM   20  H   UNK A   0      -6.594   9.649  64.562  1.00  0.00     0.000 HD 
BRANCH  19  21
HETATM   21  C   UNK A   0      -8.507  10.535  64.806  1.00  0.00    -0.147 A  
HETATM   22  C   UNK A   0      -9.066  12.264  66.430  1.00  0.00    -0.158 A  
HETATM   23  C   UNK A   0     -10.216  12.577  65.705  1.00  0.00    -0.289 A  
HETATM   24  C   UNK A   0      -9.728  10.770  64.168  1.00  0.00    -0.364 A  
HETATM   25  C   UNK A   0      -8.226  11.240  65.984  1.00  0.00    -0.045 A  
HETATM   26  C   UNK A   0     -10.574  11.794  64.603  1.00  0.00    -0.359 A  
BRANCH  23  27
HETATM   27  C   UNK A   0     -11.057  13.727  66.125  1.00  0.00    -0.296 C  
ATOM     28  H   GLU A   1      -9.497  14.454  67.302  1.00  0.00     0.000 HD 
ATOM     29  N   GLU A   1     -10.468  14.601  67.025  1.00  0.00    -0.267 N  
HETATM   30  O   UNK A   0     -12.181  13.886  65.677  1.00  0.00    -0.398 OA 
BRANCH  29  31
ATOM     31  CA  GLU A   1     -11.219  15.743  67.591  1.00  0.00    -0.246 C  
ATOM     32  C   GLU A   1     -10.421  17.052  67.387  1.00  0.00    -0.322 C  
ATOM     33  O   GLU A   1      -9.199  16.872  66.836  1.00  0.00    -0.223 OA 
ATOM     34  OXT GLU A   1     -10.815  18.159  67.728  1.00  0.00    -0.385 OA 
BRANCH  31  35
ATOM     35  CB  GLU A   1     -11.505  15.492  69.083  1.00  0.00    -0.356 C  
BRANCH  35  36
ATOM     36  CG  GLU A   1     -11.981  14.066  69.387  1.00  0.00    -0.390 C  
ATOM     37  CD  GLU A   1     -12.210  13.828  70.858  1.00  0.00    -0.349 C  
ATOM     38  OE2 GLU A   1     -12.020  14.647  71.743  1.00  0.00    -0.345 OA 
ATOM     39  OE1 GLU A   1     -12.672  12.576  71.103  1.00  0.00    -0.354 OA 
ENDBRANCH  35  36
ENDBRANCH  31  35
ENDBRANCH  29  31
ENDBRANCH  23  27
ENDBRANCH  19  21
ENDBRANCH  18  19
ENDBRANCH   3  18
TORSDOF 7
ENDMDL
MODEL      116
REMARK 921   NORMALIZED FREE ENERGY PREDICTED BY IDOCK:   -5.68 KCAL/MOL
REMARK 922        TOTAL FREE ENERGY PREDICTED BY IDOCK:   -9.24 KCAL/MOL
REMARK 923 INTER-LIGAND FREE ENERGY PREDICTED BY IDOCK:   -7.83 KCAL/MOL
REMARK 924 INTRA-LIGAND FREE ENERGY PREDICTED BY IDOCK:   -1.41 KCAL/MOL
REMARK 927      BINDING AFFINITY PREDICTED BY RF-SCORE:    0.00 PKD
ROOT
HETATM    1  C   UNK A   0     -11.221   6.343  68.030  1.00  0.00    -0.155 C  
HETATM    2  N   UNK A   0     -10.400   5.492  68.878  1.00  0.00    -0.218 NA 
HETATM    3  C   UNK A   0      -9.192   4.858  68.275  1.00  0.00    -0.123 C  
HETATM    4  O   UNK A   0     -12.306   7.000  70.527  1.00  0.00    -0.267 OA 
HETATM    5  C   UNK A   0      -9.066   3.418  68.835  1.00  0.00    -0.144 C  
HETATM    6  C   UNK A   0     -10.807   5.183  73.002  1.00  0.00    -0.279 C  
HETATM    7  N   UNK A   0      -9.157   3.402  70.305  1.00  0.00    -0.116 NA 
HETATM    8  H   UNK A   0      -8.622   2.721  70.843  1.00  0.00     0.000 HD 
HETATM    9  H2  UNK A   0     -11.185   5.722  74.951  1.00  0.00     0.000 HD 
HETATM   10  C   UNK A   0      -9.978   4.320  70.956  1.00  0.00    -0.153 C  
HETATM   11  H   UNK A   0     -11.996   6.808  73.052  1.00  0.00     0.000 HD 
HETATM   12  C   UNK A   0     -10.625   5.295  70.268  1.00  0.00    -0.218 C  
HETATM   13  H1  UNK A   0     -10.155   4.305  74.768  1.00  0.00     0.000 HD 
HETATM   14  C   UNK A   0     -11.557   6.204  71.089  1.00  0.00    -0.202 C  
HETATM   15  N   UNK A   0     -10.109   4.257  72.312  1.00  0.00    -0.178 NA 
HETATM   16  N   UNK A   0     -10.704   5.055  74.346  1.00  0.00    -0.346 NA 
HETATM   17  N   UNK A   0     -11.501   6.131  72.470  1.00  0.00    -0.363 N  
ENDROOT
BRANCH   3  18
HETATM   18  C   UNK A   0      -7.926   5.702  68.583  1.00  0.00    -0.100 C  
BRANCH  18  19
HETATM   19  N   UNK A   0      -7.453   6.428  67.388  1.00  0.00    -0.087 NA 
HETATM   20  H   UNK A   0      -6.923   5.959  66.654  1.00  0.00     0.000 HD 
BRANCH  19  21
HETATM   21  C   UNK A   0      -7.766   7.793  67.308  1.00  0.00    -0.113 A  
HETATM   22  C   UNK A   0      -8.325   9.842  68.503  1.00  0.00    -0.108 A  
HETATM   23  C   UNK A   0      -8.344  10.543  67.297  1.00  0.00    -0.122 A  
HETATM   24  C   UNK A   0      -7.921   8.481  66.101  1.00  0.00    -0.102 A  
HETATM   25  C   UNK A   0      -8.048   8.472  68.501  1.00  0.00    -0.122 A  
HETATM   26  C   UNK A   0      -8.194   9.851  66.091  1.00  0.00    -0.118 A  
BRANCH  23  27
HETATM   27  C   UNK A   0      -8.543  12.015  67.308  1.00  0.00    -0.177 C  
ATOM     28  H   GLU A   1     -10.559  11.759  66.840  1.00  0.00     0.000 HD 
ATOM     29  N   GLU A   1      -9.823  12.447  66.998  1.00  0.00    -0.208 N  
HETATM   30  O   UNK A   0      -7.633  12.775  67.598  1.00  0.00    -0.126 OA 
BRANCH  29  31
ATOM     31  CA  GLU A   1     -10.143  13.887  66.890  1.00  0.00    -0.260 C  
ATOM     32  C   GLU A   1     -11.420  14.206  67.702  1.00  0.00    -0.338 C  
ATOM     33  O   GLU A   1     -12.013  13.118  68.245  1.00  0.00    -0.343 OA 
ATOM     34  OXT GLU A   1     -11.902  15.325  67.818  1.00  0.00    -0.287 OA 
BRANCH  31  35
ATOM     35  CB  GLU A   1     -10.312  14.276  65.410  1.00  0.00    -0.391 C  
BRANCH  35  36
ATOM     36  CG  GLU A   1     -10.674  13.095  64.501  1.00  0.00    -0.416 C  
ATOM     37  CD  GLU A   1     -12.153  13.008  64.219  1.00  0.00    -0.414 C  
ATOM     38  OE2 GLU A   1     -13.002  13.758  64.670  1.00  0.00    -0.656 OA 
ATOM     39  OE1 GLU A   1     -12.448  11.983  63.380  1.00  0.00    -0.577 OA 
ENDBRANCH  35  36
ENDBRANCH  31  35
ENDBRANCH  29  31
ENDBRANCH  23  27
ENDBRANCH  19  21
ENDBRANCH  18  19
ENDBRANCH   3  18
TORSDOF 7
ENDMDL
MODEL      117
REMARK 921   NORMALIZED FREE ENERGY PREDICTED BY IDOCK:   -5.63 KCAL/MOL
REMARK 922        TOTAL FREE ENERGY PREDICTED BY IDOCK:   -9.17 KCAL/MOL
REMARK 923 INTER-LIGAND FREE ENERGY PREDICTED BY IDOCK:   -8.33 KCAL/MOL
REMARK 924 INTRA-LIGAND FREE ENERGY PREDICTED BY IDOCK:   -0.84 KCAL/MOL
REMARK 927      BINDING AFFINITY PREDICTED BY RF-SCORE:    0.00 PKD
ROOT
HETATM    1  C   UNK A   0      -8.033   5.029  67.732  1.00  0.00    -0.095 C  
HETATM    2  N   UNK A   0      -8.632   6.086  68.533  1.00  0.00    -0.112 NA 
HETATM    3  C   UNK A   0      -8.635   7.470  67.979  1.00  0.00    -0.122 C  
HETATM    4  O   UNK A   0      -9.324   3.465  69.662  1.00  0.00    -0.148 OA 
HETATM    5  C   UNK A   0      -8.350   8.461  69.137  1.00  0.00    -0.122 C  
HETATM    6  C   UNK A   0     -10.880   5.446  71.970  1.00  0.00    -0.202 C  
HETATM    7  N   UNK A   0      -9.230   8.208  70.291  1.00  0.00    -0.151 NA 
HETATM    8  H   UNK A   0      -9.548   8.984  70.872  1.00  0.00     0.000 HD 
HETATM    9  H2  UNK A   0     -12.175   4.546  73.290  1.00  0.00     0.000 HD 
HETATM   10  C   UNK A   0      -9.625   6.905  70.587  1.00  0.00    -0.169 C  
HETATM   11  H   UNK A   0     -11.026   3.479  71.562  1.00  0.00     0.000 HD 
HETATM   12  C   UNK A   0      -9.292   5.870  69.774  1.00  0.00    -0.148 C  
HETATM   13  H1  UNK A   0     -11.954   6.275  73.542  1.00  0.00     0.000 HD 
HETATM   14  C   UNK A   0      -9.726   4.470  70.244  1.00  0.00    -0.217 C  
HETATM   15  N   UNK A   0     -10.385   6.670  71.694  1.00  0.00    -0.204 NA 
HETATM   16  N   UNK A   0     -11.737   5.427  73.018  1.00  0.00    -0.536 NA 
HETATM   17  N   UNK A   0     -10.606   4.374  71.308  1.00  0.00     0.139 N  
ENDROOT
BRANCH   3  18
HETATM   18  C   UNK A   0      -9.994   7.775  67.291  1.00  0.00    -0.212 C  
BRANCH  18  19
HETATM   19  N   UNK A   0      -9.812   8.557  66.052  1.00  0.00    -0.472 NA 
HETATM   20  H   UNK A   0      -9.432   8.132  65.205  1.00  0.00     0.000 HD 
BRANCH  19  21
HETATM   21  C   UNK A   0     -10.183   9.909  66.092  1.00  0.00    -0.207 A  
HETATM   22  C   UNK A   0     -11.130  11.737  67.395  1.00  0.00    -0.338 A  
HETATM   23  C   UNK A   0     -10.915  12.611  66.329  1.00  0.00    -0.314 A  
HETATM   24  C   UNK A   0     -10.098  10.766  64.991  1.00  0.00    -0.377 A  
HETATM   25  C   UNK A   0     -10.775  10.391  67.267  1.00  0.00    -0.331 A  
HETATM   26  C   UNK A   0     -10.447  12.113  65.109  1.00  0.00    -0.317 A  
BRANCH  23  27
HETATM   27  C   UNK A   0     -11.203  14.058  66.499  1.00  0.00    -0.322 C  
ATOM     28  H   GLU A   1      -9.371  14.539  65.627  1.00  0.00     0.000 HD 
ATOM     29  N   GLU A   1     -10.204  14.920  66.075  1.00  0.00    -0.283 N  
HETATM   30  O   UNK A   0     -12.266  14.443  66.960  1.00  0.00    -0.400 OA 
BRANCH  29  31
ATOM     31  CA  GLU A   1     -10.322  16.383  66.259  1.00  0.00    -0.329 C  
ATOM     32  C   GLU A   1     -11.021  17.015  65.033  1.00  0.00     0.017 C  
ATOM     33  O   GLU A   1     -11.284  16.138  64.037  1.00  0.00    -0.609 OA 
ATOM     34  OXT GLU A   1     -11.280  18.206  64.925  1.00  0.00    -0.554 OA 
BRANCH  31  35
ATOM     35  CB  GLU A   1      -8.927  16.996  66.483  1.00  0.00    -0.298 C  
BRANCH  35  36
ATOM     36  CG  GLU A   1      -8.048  16.190  67.447  1.00  0.00    -0.183 C  
ATOM     37  CD  GLU A   1      -7.491  17.029  68.569  1.00  0.00    -0.221 C  
ATOM     38  OE2 GLU A   1      -7.673  18.227  68.711  1.00  0.00    -0.302 OA 
ATOM     39  OE1 GLU A   1      -6.752  16.290  69.435  1.00  0.00    -0.192 OA 
ENDBRANCH  35  36
ENDBRANCH  31  35
ENDBRANCH  29  31
ENDBRANCH  23  27
ENDBRANCH  19  21
ENDBRANCH  18  19
ENDBRANCH   3  18
TORSDOF 7
ENDMDL
MODEL      118
REMARK 921   NORMALIZED FREE ENERGY PREDICTED BY IDOCK:   -5.63 KCAL/MOL
REMARK 922        TOTAL FREE ENERGY PREDICTED BY IDOCK:   -9.16 KCAL/MOL
REMARK 923 INTER-LIGAND FREE ENERGY PREDICTED BY IDOCK:   -8.32 KCAL/MOL
REMARK 924 INTRA-LIGAND FREE ENERGY PREDICTED BY IDOCK:   -0.85 KCAL/MOL
REMARK 927      BINDING AFFINITY PREDICTED BY RF-SCORE:    0.00 PKD
ROOT
HETATM    1  C   UNK A   0      -7.190   4.578  67.622  1.00  0.00    -0.065 C  
HETATM    2  N   UNK A   0      -8.448   5.110  67.120  1.00  0.00    -0.107 NA 
HETATM    3  C   UNK A   0      -8.934   6.404  67.681  1.00  0.00    -0.113 C  
HETATM    4  O   UNK A   0      -7.542   2.909  65.401  1.00  0.00    -0.074 OA 
HETATM    5  C   UNK A   0     -10.473   6.315  67.848  1.00  0.00    -0.230 C  
HETATM    6  C   UNK A   0     -10.480   3.627  63.812  1.00  0.00    -0.266 C  
HETATM    7  N   UNK A   0     -11.123   5.843  66.614  1.00  0.00    -0.724 NA 
HETATM    8  H   UNK A   0     -12.049   6.188  66.358  1.00  0.00     0.000 HD 
HETATM    9  H2  UNK A   0     -10.806   2.778  61.968  1.00  0.00     0.000 HD 
HETATM   10  C   UNK A   0     -10.470   4.922  65.797  1.00  0.00    -0.186 C  
HETATM   11  H   UNK A   0      -8.877   2.540  63.259  1.00  0.00     0.000 HD 
HETATM   12  C   UNK A   0      -9.201   4.522  66.067  1.00  0.00    -0.141 C  
HETATM   13  H1  UNK A   0     -12.140   3.756  62.572  1.00  0.00     0.000 HD 
HETATM   14  C   UNK A   0      -8.612   3.449  65.133  1.00  0.00    -0.112 C  
HETATM   15  N   UNK A   0     -11.104   4.439  64.691  1.00  0.00    -0.750 NA 
HETATM   16  N   UNK A   0     -11.205   3.370  62.698  1.00  0.00     0.025 NA 
HETATM   17  N   UNK A   0      -9.297   3.139  63.971  1.00  0.00    -0.123 N  
ENDROOT
BRANCH   3  18
HETATM   18  C   UNK A   0      -8.530   7.582  66.754  1.00  0.00    -0.124 C  
BRANCH  18  19
HETATM   19  N   UNK A   0      -9.698   8.137  66.041  1.00  0.00    -0.459 NA 
HETATM   20  H   UNK A   0     -10.252   7.567  65.402  1.00  0.00     0.000 HD 
BRANCH  19  21
HETATM   21  C   UNK A   0     -10.008   9.484  66.281  1.00  0.00    -0.274 A  
HETATM   22  C   UNK A   0     -10.253  11.728  65.362  1.00  0.00    -0.301 A  
HETATM   23  C   UNK A   0     -10.665  12.196  66.610  1.00  0.00    -0.281 A  
HETATM   24  C   UNK A   0     -10.293   9.996  67.550  1.00  0.00    -0.282 A  
HETATM   25  C   UNK A   0      -9.916  10.380  65.208  1.00  0.00    -0.376 A  
HETATM   26  C   UNK A   0     -10.634  11.340  67.716  1.00  0.00    -0.239 A  
BRANCH  23  27
HETATM   27  C   UNK A   0     -11.113  13.605  66.752  1.00  0.00    -0.307 C  
ATOM     28  H   GLU A   1      -9.428  14.260  65.714  1.00  0.00     0.000 HD 
ATOM     29  N   GLU A   1     -10.263  14.560  66.217  1.00  0.00    -0.286 N  
HETATM   30  O   UNK A   0     -12.175  13.881  67.287  1.00  0.00    -0.394 OA 
BRANCH  29  31
ATOM     31  CA  GLU A   1     -10.544  16.005  66.359  1.00  0.00    -0.284 C  
ATOM     32  C   GLU A   1     -10.956  16.600  64.992  1.00  0.00    -0.162 C  
ATOM     33  O   GLU A   1     -10.883  15.722  63.965  1.00  0.00     0.058 OA 
ATOM     34  OXT GLU A   1     -11.276  17.768  64.817  1.00  0.00    -0.767 OA 
BRANCH  31  35
ATOM     35  CB  GLU A   1      -9.307  16.724  66.930  1.00  0.00    -0.250 C  
BRANCH  35  36
ATOM     36  CG  GLU A   1      -8.832  16.157  68.273  1.00  0.00    -0.188 C  
ATOM     37  CD  GLU A   1      -7.418  16.562  68.610  1.00  0.00    -0.202 C  
ATOM     38  OE2 GLU A   1      -6.692  17.241  67.902  1.00  0.00    -0.158 OA 
ATOM     39  OE1 GLU A   1      -7.030  16.087  69.820  1.00  0.00    -0.172 OA 
ENDBRANCH  35  36
ENDBRANCH  31  35
ENDBRANCH  29  31
ENDBRANCH  23  27
ENDBRANCH  19  21
ENDBRANCH  18  19
ENDBRANCH   3  18
TORSDOF 7
ENDMDL
MODEL      119
REMARK 921   NORMALIZED FREE ENERGY PREDICTED BY IDOCK:   -5.59 KCAL/MOL
REMARK 922        TOTAL FREE ENERGY PREDICTED BY IDOCK:   -9.11 KCAL/MOL
REMARK 923 INTER-LIGAND FREE ENERGY PREDICTED BY IDOCK:   -7.39 KCAL/MOL
REMARK 924 INTRA-LIGAND FREE ENERGY PREDICTED BY IDOCK:   -1.72 KCAL/MOL
REMARK 927      BINDING AFFINITY PREDICTED BY RF-SCORE:    0.00 PKD
ROOT
HETATM    1  C   UNK A   0     -11.747  15.025  68.828  1.00  0.00    -0.334 C  
HETATM    2  N   UNK A   0     -11.608  13.586  68.664  1.00  0.00    -0.305 NA 
HETATM    3  C   UNK A   0     -10.758  13.086  67.545  1.00  0.00    -0.238 C  
HETATM    4  O   UNK A   0     -12.840  14.179  71.263  1.00  0.00    -0.323 OA 
HETATM    5  C   UNK A   0     -11.442  11.837  66.934  1.00  0.00    -0.293 C  
HETATM    6  C   UNK A   0     -12.890  10.767  71.437  1.00  0.00    -0.452 C  
HETATM    7  N   UNK A   0     -11.808  10.859  67.974  1.00  0.00    -0.759 NA 
HETATM    8  H   UNK A   0     -11.776   9.860  67.771  1.00  0.00     0.000 HD 
HETATM    9  H2  UNK A   0     -13.329   9.905  73.251  1.00  0.00     0.000 HD 
HETATM   10  C   UNK A   0     -12.200  11.306  69.234  1.00  0.00    -0.222 C  
HETATM   11  H   UNK A   0     -13.146  12.193  72.835  1.00  0.00     0.000 HD 
HETATM   12  C   UNK A   0     -12.159  12.624  69.555  1.00  0.00    -0.192 C  
HETATM   13  H1  UNK A   0     -13.084   8.761  71.935  1.00  0.00     0.000 HD 
HETATM   14  C   UNK A   0     -12.683  13.001  70.953  1.00  0.00    -0.217 C  
HETATM   15  N   UNK A   0     -12.600  10.400  70.171  1.00  0.00    -0.526 NA 
HETATM   16  N   UNK A   0     -13.118   9.724  72.269  1.00  0.00    -0.474 NA 
HETATM   17  N   UNK A   0     -12.933  11.984  71.859  1.00  0.00    -0.374 N  
ENDROOT
BRANCH   3  18
HETATM   18  C   UNK A   0      -9.328  12.760  68.054  1.00  0.00    -0.213 C  
BRANCH  18  19
HETATM   19  N   UNK A   0      -8.778  11.560  67.394  1.00  0.00    -0.144 NA 
HETATM   20  H   UNK A   0      -8.674  11.509  66.381  1.00  0.00     0.000 HD 
BRANCH  19  21
HETATM   21  C   UNK A   0      -8.405  10.492  68.225  1.00  0.00    -0.122 A  
HETATM   22  C   UNK A   0      -8.347   8.080  68.563  1.00  0.00    -0.127 A  
HETATM   23  C   UNK A   0      -7.659   8.262  69.763  1.00  0.00    -0.092 A  
HETATM   24  C   UNK A   0      -7.836  10.662  69.490  1.00  0.00    -0.092 A  
HETATM   25  C   UNK A   0      -8.726   9.194  67.808  1.00  0.00    -0.121 A  
HETATM   26  C   UNK A   0      -7.450   9.556  70.252  1.00  0.00    -0.148 A  
BRANCH  23  27
HETATM   27  C   UNK A   0      -7.174   7.078  70.516  1.00  0.00    -0.068 C  
ATOM     28  H   GLU A   1      -9.101   6.283  70.536  1.00  0.00     0.000 HD 
ATOM     29  N   GLU A   1      -8.143   6.148  70.858  1.00  0.00    -0.119 N  
HETATM   30  O   UNK A   0      -5.991   6.940  70.786  1.00  0.00    -0.027 OA 
BRANCH  29  31
ATOM     31  CA  GLU A   1      -7.815   4.962  71.679  1.00  0.00    -0.106 C  
ATOM     32  C   GLU A   1      -8.349   3.682  70.995  1.00  0.00    -0.067 C  
ATOM     33  O   GLU A   1      -9.066   3.917  69.871  1.00  0.00    -0.095 OA 
ATOM     34  OXT GLU A   1      -8.195   2.550  71.434  1.00  0.00    -0.056 OA 
BRANCH  31  35
ATOM     35  CB  GLU A   1      -8.404   5.126  73.092  1.00  0.00    -0.108 C  
BRANCH  35  36
ATOM     36  CG  GLU A   1      -9.095   6.476  73.318  1.00  0.00    -0.139 C  
ATOM     37  CD  GLU A   1     -10.586   6.414  73.097  1.00  0.00    -0.255 C  
ATOM     38  OE2 GLU A   1     -11.206   5.423  72.748  1.00  0.00    -0.272 OA 
ATOM     39  OE1 GLU A   1     -11.185   7.606  73.342  1.00  0.00    -0.314 OA 
ENDBRANCH  35  36
ENDBRANCH  31  35
ENDBRANCH  29  31
ENDBRANCH  23  27
ENDBRANCH  19  21
ENDBRANCH  18  19
ENDBRANCH   3  18
TORSDOF 7
ENDMDL
MODEL      120
REMARK 921   NORMALIZED FREE ENERGY PREDICTED BY IDOCK:   -5.58 KCAL/MOL
REMARK 922        TOTAL FREE ENERGY PREDICTED BY IDOCK:   -9.09 KCAL/MOL
REMARK 923 INTER-LIGAND FREE ENERGY PREDICTED BY IDOCK:   -8.18 KCAL/MOL
REMARK 924 INTRA-LIGAND FREE ENERGY PREDICTED BY IDOCK:   -0.91 KCAL/MOL
REMARK 927      BINDING AFFINITY PREDICTED BY RF-SCORE:    0.00 PKD
ROOT
HETATM    1  C   UNK A   0     -11.598  15.885  68.613  1.00  0.00    -0.380 C  
HETATM    2  N   UNK A   0     -11.597  14.588  67.953  1.00  0.00    -0.328 NA 
HETATM    3  C   UNK A   0     -11.149  14.525  66.532  1.00  0.00    -0.332 C  
HETATM    4  O   UNK A   0     -11.963  14.234  70.845  1.00  0.00    -0.328 OA 
HETATM    5  C   UNK A   0     -12.054  13.517  65.780  1.00  0.00    -0.433 C  
HETATM    6  C   UNK A   0     -12.154  10.957  69.897  1.00  0.00    -0.354 C  
HETATM    7  N   UNK A   0     -12.149  12.235  66.501  1.00  0.00    -0.599 NA 
HETATM    8  H   UNK A   0     -12.235  11.361  65.982  1.00  0.00     0.000 HD 
HETATM    9  H2  UNK A   0     -12.081   9.526  71.372  1.00  0.00     0.000 HD 
HETATM   10  C   UNK A   0     -12.121  12.223  67.893  1.00  0.00     0.016 C  
HETATM   11  H   UNK A   0     -11.900  11.830  71.694  1.00  0.00     0.000 HD 
HETATM   12  C   UNK A   0     -11.912  13.362  68.601  1.00  0.00    -0.327 C  
HETATM   13  H1  UNK A   0     -12.305   8.892  69.745  1.00  0.00     0.000 HD 
HETATM   14  C   UNK A   0     -11.973  13.233  70.134  1.00  0.00    -0.318 C  
HETATM   15  N   UNK A   0     -12.275  11.041  68.556  1.00  0.00    -0.781 NA 
HETATM   16  N   UNK A   0     -12.183   9.689  70.370  1.00  0.00    -0.475 NA 
HETATM   17  N   UNK A   0     -12.000  11.964  70.688  1.00  0.00    -0.478 N  
ENDROOT
BRANCH   3  18
HETATM   18  C   UNK A   0      -9.653  14.117  66.453  1.00  0.00    -0.293 C  
BRANCH  18  19
HETATM   19  N   UNK A   0      -9.222  13.396  67.667  1.00  0.00    -0.202 NA 
HETATM   20  H   UNK A   0      -9.291  13.820  68.591  1.00  0.00     0.000 HD 
BRANCH  19  21
HETATM   21  C   UNK A   0      -8.713  12.101  67.490  1.00  0.00    -0.173 A  
HETATM   22  C   UNK A   0      -7.489  10.228  68.456  1.00  0.00    -0.084 A  
HETATM   23  C   UNK A   0      -7.694   9.489  67.291  1.00  0.00    -0.091 A  
HETATM   24  C   UNK A   0      -8.793  11.398  66.284  1.00  0.00    -0.196 A  
HETATM   25  C   UNK A   0      -7.988  11.531  68.545  1.00  0.00    -0.143 A  
HETATM   26  C   UNK A   0      -8.301  10.094  66.185  1.00  0.00    -0.131 A  
BRANCH  23  27
HETATM   27  C   UNK A   0      -7.248   8.074  67.232  1.00  0.00    -0.087 C  
ATOM     28  H   GLU A   1      -8.924   7.579  66.095  1.00  0.00     0.000 HD 
ATOM     29  N   GLU A   1      -8.093   7.208  66.557  1.00  0.00    -0.111 N  
HETATM   30  O   UNK A   0      -6.191   7.722  67.732  1.00  0.00    -0.047 OA 
BRANCH  29  31
ATOM     31  CA  GLU A   1      -7.815   5.757  66.492  1.00  0.00    -0.101 C  
ATOM     32  C   GLU A   1      -7.528   5.339  65.030  1.00  0.00    -0.073 C  
ATOM     33  O   GLU A   1      -7.680   6.340  64.132  1.00  0.00    -0.092 OA 
ATOM     34  OXT GLU A   1      -7.236   4.203  64.683  1.00  0.00    -0.063 OA 
BRANCH  31  35
ATOM     35  CB  GLU A   1      -9.005   4.970  67.072  1.00  0.00    -0.112 C  
BRANCH  35  36
ATOM     36  CG  GLU A   1      -9.476   5.486  68.437  1.00  0.00    -0.144 C  
ATOM     37  CD  GLU A   1     -10.771   6.255  68.355  1.00  0.00    -0.290 C  
ATOM     38  OE2 GLU A   1     -11.390   6.486  67.330  1.00  0.00    -0.316 OA 
ATOM     39  OE1 GLU A   1     -11.194   6.666  69.577  1.00  0.00    -0.317 OA 
ENDBRANCH  35  36
ENDBRANCH  31  35
ENDBRANCH  29  31
ENDBRANCH  23  27
ENDBRANCH  19  21
ENDBRANCH  18  19
ENDBRANCH   3  18
TORSDOF 7
ENDMDL
MODEL      121
REMARK 921   NORMALIZED FREE ENERGY PREDICTED BY IDOCK:   -5.57 KCAL/MOL
REMARK 922        TOTAL FREE ENERGY PREDICTED BY IDOCK:   -9.08 KCAL/MOL
REMARK 923 INTER-LIGAND FREE ENERGY PREDICTED BY IDOCK:   -8.59 KCAL/MOL
REMARK 924 INTRA-LIGAND FREE ENERGY PREDICTED BY IDOCK:   -0.50 KCAL/MOL
REMARK 927      BINDING AFFINITY PREDICTED BY RF-SCORE:    0.00 PKD
ROOT
HETATM    1  C   UNK A   0      -8.125  16.601  66.117  1.00  0.00    -0.238 C  
HETATM    2  N   UNK A   0      -8.525  17.873  66.698  1.00  0.00    -0.250 NA 
HETATM    3  C   UNK A   0      -9.941  18.309  66.526  1.00  0.00    -0.373 C  
HETATM    4  O   UNK A   0      -5.887  17.092  67.726  1.00  0.00    -0.120 OA 
HETATM    5  C   UNK A   0      -9.953  19.838  66.273  1.00  0.00    -0.478 C  
HETATM    6  C   UNK A   0      -6.194  20.095  69.326  1.00  0.00    -0.326 C  
HETATM    7  N   UNK A   0      -9.157  20.559  67.282  1.00  0.00    -0.485 NA 
HETATM    8  H   UNK A   0      -9.440  21.490  67.588  1.00  0.00     0.000 HD 
HETATM    9  H2  UNK A   0      -4.849  20.529  70.820  1.00  0.00     0.000 HD 
HETATM   10  C   UNK A   0      -8.017  19.963  67.817  1.00  0.00    -0.291 C  
HETATM   11  H   UNK A   0      -4.944  18.541  69.602  1.00  0.00     0.000 HD 
HETATM   12  C   UNK A   0      -7.675  18.688  67.496  1.00  0.00    -0.229 C  
HETATM   13  H1  UNK A   0      -6.002  21.814  70.476  1.00  0.00     0.000 HD 
HETATM   14  C   UNK A   0      -6.357  18.166  68.095  1.00  0.00    -0.190 C  
HETATM   15  N   UNK A   0      -7.248  20.660  68.701  1.00  0.00     0.087 NA 
HETATM   16  N   UNK A   0      -5.642  20.880  70.282  1.00  0.00    -0.547 NA 
HETATM   17  N   UNK A   0      -5.739  18.914  69.082  1.00  0.00    -0.209 N  
ENDROOT
BRANCH   3  18
HETATM   18  C   UNK A   0     -10.780  17.933  67.777  1.00  0.00    -0.326 C  
BRANCH  18  19
HETATM   19  N   UNK A   0     -10.042  17.019  68.671  1.00  0.00    -0.284 NA 
HETATM   20  H   UNK A   0      -9.286  17.353  69.269  1.00  0.00     0.000 HD 
BRANCH  19  21
HETATM   21  C   UNK A   0     -10.427  15.670  68.659  1.00  0.00    -0.231 A  
HETATM   22  C   UNK A   0      -9.726  13.336  68.671  1.00  0.00    -0.074 A  
HETATM   23  C   UNK A   0     -11.061  12.933  68.700  1.00  0.00    -0.307 A  
HETATM   24  C   UNK A   0     -11.756  15.248  68.554  1.00  0.00    -0.352 A  
HETATM   25  C   UNK A   0      -9.418  14.699  68.639  1.00  0.00    -0.211 A  
HETATM   26  C   UNK A   0     -12.076  13.889  68.588  1.00  0.00    -0.337 A  
BRANCH  23  27
HETATM   27  C   UNK A   0     -11.388  11.490  68.830  1.00  0.00    -0.268 C  
ATOM     28  H   GLU A   1      -9.357  11.016  68.829  1.00  0.00     0.000 HD 
ATOM     29  N   GLU A   1     -10.301  10.630  68.846  1.00  0.00    -0.196 N  
HETATM   30  O   UNK A   0     -12.543  11.109  68.939  1.00  0.00    -0.358 OA 
BRANCH  29  31
ATOM     31  CA  GLU A   1     -10.482   9.162  68.888  1.00  0.00    -0.218 C  
ATOM     32  C   GLU A   1      -9.859   8.590  70.183  1.00  0.00    -0.178 C  
ATOM     33  O   GLU A   1      -9.214   9.511  70.936  1.00  0.00    -0.217 OA 
ATOM     34  OXT GLU A   1      -9.888   7.408  70.498  1.00  0.00    -0.180 OA 
BRANCH  31  35
ATOM     35  CB  GLU A   1      -9.854   8.522  67.637  1.00  0.00    -0.222 C  
BRANCH  35  36
ATOM     36  CG  GLU A   1     -10.701   7.396  67.031  1.00  0.00    -0.389 C  
ATOM     37  CD  GLU A   1      -9.930   6.109  66.869  1.00  0.00    -0.168 C  
ATOM     38  OE2 GLU A   1      -8.754   5.952  67.150  1.00  0.00    -0.110 OA 
ATOM     39  OE1 GLU A   1     -10.707   5.114  66.372  1.00  0.00    -0.308 OA 
ENDBRANCH  35  36
ENDBRANCH  31  35
ENDBRANCH  29  31
ENDBRANCH  23  27
ENDBRANCH  19  21
ENDBRANCH  18  19
ENDBRANCH   3  18
TORSDOF 7
ENDMDL
MODEL      122
REMARK 921   NORMALIZED FREE ENERGY PREDICTED BY IDOCK:   -5.57 KCAL/MOL
REMARK 922        TOTAL FREE ENERGY PREDICTED BY IDOCK:   -9.08 KCAL/MOL
REMARK 923 INTER-LIGAND FREE ENERGY PREDICTED BY IDOCK:   -8.03 KCAL/MOL
REMARK 924 INTRA-LIGAND FREE ENERGY PREDICTED BY IDOCK:   -1.05 KCAL/MOL
REMARK 927      BINDING AFFINITY PREDICTED BY RF-SCORE:    0.00 PKD
ROOT
HETATM    1  C   UNK A   0      -8.640   5.328  67.514  1.00  0.00    -0.104 C  
HETATM    2  N   UNK A   0      -8.628   5.385  68.968  1.00  0.00    -0.102 NA 
HETATM    3  C   UNK A   0      -7.312   5.291  69.663  1.00  0.00    -0.064 C  
HETATM    4  O   UNK A   0     -11.271   6.177  67.962  1.00  0.00    -0.310 OA 
HETATM    5  C   UNK A   0      -7.494   4.430  70.939  1.00  0.00    -0.052 C  
HETATM    6  C   UNK A   0     -11.906   6.407  71.311  1.00  0.00    -0.273 C  
HETATM    7  N   UNK A   0      -8.635   4.895  71.745  1.00  0.00    -0.125 NA 
HETATM    8  H   UNK A   0      -8.605   4.829  72.763  1.00  0.00     0.000 HD 
HETATM    9  H2  UNK A   0     -13.648   7.330  71.896  1.00  0.00     0.000 HD 
HETATM   10  C   UNK A   0      -9.757   5.426  71.113  1.00  0.00    -0.174 C  
HETATM   11  H   UNK A   0     -12.903   7.087  69.699  1.00  0.00     0.000 HD 
HETATM   12  C   UNK A   0      -9.782   5.612  69.768  1.00  0.00    -0.167 C  
HETATM   13  H1  UNK A   0     -12.680   6.684  73.218  1.00  0.00     0.000 HD 
HETATM   14  C   UNK A   0     -11.103   6.139  69.178  1.00  0.00    -0.378 C  
HETATM   15  N   UNK A   0     -10.837   5.794  71.860  1.00  0.00    -0.245 NA 
HETATM   16  N   UNK A   0     -12.813   6.839  72.218  1.00  0.00    -0.539 NA 
HETATM   17  N   UNK A   0     -12.075   6.603  70.048  1.00  0.00    -0.596 N  
ENDROOT
BRANCH   3  18
HETATM   18  C   UNK A   0      -6.777   6.709  70.004  1.00  0.00    -0.049 C  
BRANCH  18  19
HETATM   19  N   UNK A   0      -6.297   7.412  68.799  1.00  0.00    -0.035 NA 
HETATM   20  H   UNK A   0      -5.547   7.031  68.222  1.00  0.00     0.000 HD 
BRANCH  19  21
HETATM   21  C   UNK A   0      -6.918   8.630  68.483  1.00  0.00    -0.065 A  
HETATM   22  C   UNK A   0      -7.501  10.883  69.205  1.00  0.00    -0.124 A  
HETATM   23  C   UNK A   0      -8.073  11.137  67.958  1.00  0.00    -0.123 A  
HETATM   24  C   UNK A   0      -7.612   8.856  67.290  1.00  0.00    -0.089 A  
HETATM   25  C   UNK A   0      -6.939   9.629  69.464  1.00  0.00    -0.059 A  
HETATM   26  C   UNK A   0      -8.175  10.105  67.020  1.00  0.00    -0.118 A  
BRANCH  23  27
HETATM   27  C   UNK A   0      -8.585  12.497  67.651  1.00  0.00    -0.178 C  
ATOM     28  H   GLU A   1     -10.337  12.091  68.705  1.00  0.00     0.000 HD 
ATOM     29  N   GLU A   1      -9.853  12.781  68.130  1.00  0.00    -0.222 N  
HETATM   30  O   UNK A   0      -7.907  13.304  67.035  1.00  0.00    -0.088 OA 
BRANCH  29  31
ATOM     31  CA  GLU A   1     -10.520  14.066  67.828  1.00  0.00    -0.236 C  
ATOM     32  C   GLU A   1     -11.563  14.391  68.922  1.00  0.00    -0.306 C  
ATOM     33  O   GLU A   1     -11.711  13.415  69.848  1.00  0.00    -0.297 OA 
ATOM     34  OXT GLU A   1     -12.244  15.408  68.947  1.00  0.00    -0.231 OA 
BRANCH  31  35
ATOM     35  CB  GLU A   1     -11.175  14.001  66.436  1.00  0.00    -0.321 C  
BRANCH  35  36
ATOM     36  CG  GLU A   1     -10.853  15.208  65.547  1.00  0.00    -0.373 C  
ATOM     37  CD  GLU A   1     -11.900  15.450  64.488  1.00  0.00    -0.256 C  
ATOM     38  OE2 GLU A   1     -12.893  14.764  64.309  1.00  0.00    -0.622 OA 
ATOM     39  OE1 GLU A   1     -11.619  16.546  63.740  1.00  0.00    -1.109 OA 
ENDBRANCH  35  36
ENDBRANCH  31  35
ENDBRANCH  29  31
ENDBRANCH  23  27
ENDBRANCH  19  21
ENDBRANCH  18  19
ENDBRANCH   3  18
TORSDOF 7
ENDMDL
MODEL      123
REMARK 921   NORMALIZED FREE ENERGY PREDICTED BY IDOCK:   -5.54 KCAL/MOL
REMARK 922        TOTAL FREE ENERGY PREDICTED BY IDOCK:   -9.04 KCAL/MOL
REMARK 923 INTER-LIGAND FREE ENERGY PREDICTED BY IDOCK:   -7.97 KCAL/MOL
REMARK 924 INTRA-LIGAND FREE ENERGY PREDICTED BY IDOCK:   -1.07 KCAL/MOL
REMARK 927      BINDING AFFINITY PREDICTED BY RF-SCORE:    0.00 PKD
ROOT
HETATM    1  C   UNK A   0      -9.864   5.064  68.362  1.00  0.00    -0.147 C  
HETATM    2  N   UNK A   0      -9.269   6.391  68.400  1.00  0.00    -0.121 NA 
HETATM    3  C   UNK A   0      -8.086   6.654  67.530  1.00  0.00    -0.118 C  
HETATM    4  O   UNK A   0     -11.870   6.427  69.762  1.00  0.00    -0.357 OA 
HETATM    5  C   UNK A   0      -7.090   7.544  68.317  1.00  0.00    -0.084 C  
HETATM    6  C   UNK A   0     -10.977   9.685  70.273  1.00  0.00    -0.285 C  
HETATM    7  N   UNK A   0      -7.761   8.722  68.896  1.00  0.00    -0.094 NA 
HETATM    8  H   UNK A   0      -7.260   9.607  68.978  1.00  0.00     0.000 HD 
HETATM    9  H2  UNK A   0     -12.416  10.975  70.975  1.00  0.00     0.000 HD 
HETATM   10  C   UNK A   0      -9.080   8.621  69.332  1.00  0.00    -0.149 C  
HETATM   11  H   UNK A   0     -12.736   8.722  70.459  1.00  0.00     0.000 HD 
HETATM   12  C   UNK A   0      -9.795   7.481  69.147  1.00  0.00    -0.170 C  
HETATM   13  H1  UNK A   0     -10.822  11.695  70.771  1.00  0.00     0.000 HD 
HETATM   14  C   UNK A   0     -11.217   7.467  69.735  1.00  0.00    -0.056 C  
HETATM   15  N   UNK A   0      -9.673   9.695  69.927  1.00  0.00    -0.217 NA 
HETATM   16  N   UNK A   0     -11.436  10.883  70.707  1.00  0.00    -0.378 NA 
HETATM   17  N   UNK A   0     -11.753   8.658  70.193  1.00  0.00    -0.454 N  
ENDROOT
BRANCH   3  18
HETATM   18  C   UNK A   0      -8.528   7.330  66.204  1.00  0.00    -0.142 C  
BRANCH  18  19
HETATM   19  N   UNK A   0      -7.826   8.611  65.988  1.00  0.00    -0.099 NA 
HETATM   20  H   UNK A   0      -6.852   8.641  65.688  1.00  0.00     0.000 HD 
BRANCH  19  21
HETATM   21  C   UNK A   0      -8.561   9.785  66.213  1.00  0.00    -0.127 A  
HETATM   22  C   UNK A   0     -10.753  10.846  66.304  1.00  0.00    -0.241 A  
HETATM   23  C   UNK A   0     -10.158  12.046  66.697  1.00  0.00    -0.220 A  
HETATM   24  C   UNK A   0      -7.973  11.025  66.476  1.00  0.00    -0.158 A  
HETATM   25  C   UNK A   0      -9.952   9.728  66.054  1.00  0.00    -0.342 A  
HETATM   26  C   UNK A   0      -8.763  12.148  66.732  1.00  0.00    -0.183 A  
BRANCH  23  27
HETATM   27  C   UNK A   0     -11.014  13.205  67.055  1.00  0.00    -0.269 C  
ATOM     28  H   GLU A   1      -9.658  13.764  68.538  1.00  0.00     0.000 HD 
ATOM     29  N   GLU A   1     -10.559  13.981  68.110  1.00  0.00    -0.242 N  
HETATM   30  O   UNK A   0     -12.035  13.455  66.434  1.00  0.00    -0.373 OA 
BRANCH  29  31
ATOM     31  CA  GLU A   1     -11.352  15.117  68.627  1.00  0.00    -0.310 C  
ATOM     32  C   GLU A   1     -10.779  16.449  68.088  1.00  0.00    -0.336 C  
ATOM     33  O   GLU A   1      -9.650  16.307  67.357  1.00  0.00    -0.227 OA 
ATOM     34  OXT GLU A   1     -11.255  17.551  68.327  1.00  0.00    -0.102 OA 
BRANCH  31  35
ATOM     35  CB  GLU A   1     -11.356  15.095  70.166  1.00  0.00    -0.300 C  
BRANCH  35  36
ATOM     36  CG  GLU A   1     -12.650  14.535  70.770  1.00  0.00    -0.418 C  
ATOM     37  CD  GLU A   1     -12.971  15.132  72.117  1.00  0.00    -0.353 C  
ATOM     38  OE2 GLU A   1     -12.285  15.951  72.707  1.00  0.00    -0.410 OA 
ATOM     39  OE1 GLU A   1     -14.140  14.657  72.616  1.00  0.00    -0.491 OA 
ENDBRANCH  35  36
ENDBRANCH  31  35
ENDBRANCH  29  31
ENDBRANCH  23  27
ENDBRANCH  19  21
ENDBRANCH  18  19
ENDBRANCH   3  18
TORSDOF 7
ENDMDL
MODEL      124
REMARK 921   NORMALIZED FREE ENERGY PREDICTED BY IDOCK:   -5.53 KCAL/MOL
REMARK 922        TOTAL FREE ENERGY PREDICTED BY IDOCK:   -9.03 KCAL/MOL
REMARK 923 INTER-LIGAND FREE ENERGY PREDICTED BY IDOCK:   -7.78 KCAL/MOL
REMARK 924 INTRA-LIGAND FREE ENERGY PREDICTED BY IDOCK:   -1.25 KCAL/MOL
REMARK 927      BINDING AFFINITY PREDICTED BY RF-SCORE:    0.00 PKD
ROOT
HETATM    1  C   UNK A   0     -10.490  17.127  67.870  1.00  0.00    -0.369 C  
HETATM    2  N   UNK A   0     -10.914  15.769  67.563  1.00  0.00    -0.315 NA 
HETATM    3  C   UNK A   0     -10.709  15.268  66.173  1.00  0.00    -0.320 C  
HETATM    4  O   UNK A   0     -10.931  16.185  70.470  1.00  0.00    -0.331 OA 
HETATM    5  C   UNK A   0     -11.940  14.413  65.777  1.00  0.00    -0.357 C  
HETATM    6  C   UNK A   0     -12.081  12.969  70.404  1.00  0.00    -0.314 C  
HETATM    7  N   UNK A   0     -12.250  13.404  66.805  1.00  0.00    -0.353 NA 
HETATM    8  H   UNK A   0     -12.630  12.497  66.533  1.00  0.00     0.000 HD 
HETATM    9  H2  UNK A   0     -12.158  11.940  72.182  1.00  0.00     0.000 HD 
HETATM   10  C   UNK A   0     -12.023  13.695  68.148  1.00  0.00    -0.355 C  
HETATM   11  H   UNK A   0     -11.355  14.112  71.894  1.00  0.00     0.000 HD 
HETATM   12  C   UNK A   0     -11.431  14.857  68.524  1.00  0.00    -0.315 C  
HETATM   13  H1  UNK A   0     -12.771  11.049  70.793  1.00  0.00     0.000 HD 
HETATM   14  C   UNK A   0     -11.298  15.094  70.039  1.00  0.00    -0.277 C  
HETATM   15  N   UNK A   0     -12.373  12.783  69.099  1.00  0.00     0.012 NA 
HETATM   16  N   UNK A   0     -12.361  11.898  71.183  1.00  0.00    -0.271 NA 
HETATM   17  N   UNK A   0     -11.564  14.041  70.897  1.00  0.00    -0.501 N  
ENDROOT
BRANCH   3  18
HETATM   18  C   UNK A   0      -9.394  14.449  66.081  1.00  0.00    -0.189 C  
BRANCH  18  19
HETATM   19  N   UNK A   0      -9.561  13.246  65.241  1.00  0.00    -0.499 NA 
HETATM   20  H   UNK A   0      -9.645  13.312  64.227  1.00  0.00     0.000 HD 
BRANCH  19  21
HETATM   21  C   UNK A   0      -9.601  12.009  65.902  1.00  0.00    -0.223 A  
HETATM   22  C   UNK A   0      -9.080  10.744  67.918  1.00  0.00    -0.150 A  
HETATM   23  C   UNK A   0      -9.671   9.609  67.362  1.00  0.00    -0.198 A  
HETATM   24  C   UNK A   0     -10.068  10.832  65.310  1.00  0.00    -0.353 A  
HETATM   25  C   UNK A   0      -9.037  11.932  67.182  1.00  0.00    -0.178 A  
HETATM   26  C   UNK A   0     -10.119   9.640  66.037  1.00  0.00    -0.318 A  
BRANCH  23  27
HETATM   27  C   UNK A   0      -9.802   8.376  68.179  1.00  0.00    -0.169 C  
ATOM     28  H   GLU A   1      -8.651   7.323  66.795  1.00  0.00     0.000 HD 
ATOM     29  N   GLU A   1      -9.193   7.246  67.656  1.00  0.00    -0.126 N  
HETATM   30  O   UNK A   0     -10.389   8.384  69.249  1.00  0.00    -0.209 OA 
BRANCH  29  31
ATOM     31  CA  GLU A   1      -9.313   5.930  68.322  1.00  0.00    -0.116 C  
ATOM     32  C   GLU A   1      -7.910   5.397  68.693  1.00  0.00    -0.087 C  
ATOM     33  O   GLU A   1      -6.892   6.176  68.259  1.00  0.00    -0.068 OA 
ATOM     34  OXT GLU A   1      -7.706   4.344  69.282  1.00  0.00    -0.055 OA 
BRANCH  31  35
ATOM     35  CB  GLU A   1     -10.059   4.945  67.403  1.00  0.00    -0.196 C  
BRANCH  35  36
ATOM     36  CG  GLU A   1      -9.776   5.162  65.911  1.00  0.00    -0.159 C  
ATOM     37  CD  GLU A   1      -9.405   3.887  65.196  1.00  0.00    -0.158 C  
ATOM     38  OE2 GLU A   1      -9.301   2.790  65.720  1.00  0.00    -0.127 OA 
ATOM     39  OE1 GLU A   1      -9.201   4.091  63.870  1.00  0.00    -0.131 OA 
ENDBRANCH  35  36
ENDBRANCH  31  35
ENDBRANCH  29  31
ENDBRANCH  23  27
ENDBRANCH  19  21
ENDBRANCH  18  19
ENDBRANCH   3  18
TORSDOF 7
ENDMDL
MODEL      125
REMARK 921   NORMALIZED FREE ENERGY PREDICTED BY IDOCK:   -5.53 KCAL/MOL
REMARK 922        TOTAL FREE ENERGY PREDICTED BY IDOCK:   -9.02 KCAL/MOL
REMARK 923 INTER-LIGAND FREE ENERGY PREDICTED BY IDOCK:   -7.15 KCAL/MOL
REMARK 924 INTRA-LIGAND FREE ENERGY PREDICTED BY IDOCK:   -1.87 KCAL/MOL
REMARK 927      BINDING AFFINITY PREDICTED BY RF-SCORE:    0.00 PKD
ROOT
HETATM    1  C   UNK A   0      -8.529   8.739  64.486  1.00  0.00    -0.140 C  
HETATM    2  N   UNK A   0      -8.982   9.492  65.646  1.00  0.00    -0.169 NA 
HETATM    3  C   UNK A   0      -8.227   9.335  66.922  1.00  0.00    -0.119 C  
HETATM    4  O   UNK A   0     -10.318  10.488  63.227  1.00  0.00    -0.106 OA 
HETATM    5  C   UNK A   0      -9.244   9.318  68.091  1.00  0.00    -0.130 C  
HETATM    6  C   UNK A   0     -11.832  12.515  65.523  1.00  0.00    -0.439 C  
HETATM    7  N   UNK A   0     -10.178  10.454  68.011  1.00  0.00    -0.162 NA 
HETATM    8  H   UNK A   0     -10.532  10.887  68.864  1.00  0.00     0.000 HD 
HETATM    9  H2  UNK A   0     -12.929  14.107  64.823  1.00  0.00     0.000 HD 
HETATM   10  C   UNK A   0     -10.576  10.934  66.765  1.00  0.00    -0.259 C  
HETATM   11  H   UNK A   0     -11.724  12.597  63.514  1.00  0.00     0.000 HD 
HETATM   12  C   UNK A   0     -10.045  10.436  65.619  1.00  0.00    -0.269 C  
HETATM   13  H1  UNK A   0     -12.945  13.919  66.574  1.00  0.00     0.000 HD 
HETATM   14  C   UNK A   0     -10.616  10.998  64.305  1.00  0.00    -0.331 C  
HETATM   15  N   UNK A   0     -11.490  11.943  66.697  1.00  0.00    -0.451 NA 
HETATM   16  N   UNK A   0     -12.632  13.599  65.657  1.00  0.00    -0.491 NA 
HETATM   17  N   UNK A   0     -11.438  12.110  64.365  1.00  0.00    -0.336 N  
ENDROOT
BRANCH   3  18
HETATM   18  C   UNK A   0      -7.192  10.481  67.085  1.00  0.00    -0.092 C  
BRANCH  18  19
HETATM   19  N   UNK A   0      -7.186  11.015  68.461  1.00  0.00    -0.080 NA 
HETATM   20  H   UNK A   0      -7.241  10.399  69.272  1.00  0.00     0.000 HD 
BRANCH  19  21
HETATM   21  C   UNK A   0      -7.101  12.408  68.602  1.00  0.00    -0.103 A  
HETATM   22  C   UNK A   0      -7.822  14.598  67.812  1.00  0.00    -0.165 A  
HETATM   23  C   UNK A   0      -7.070  15.210  68.815  1.00  0.00    -0.117 A  
HETATM   24  C   UNK A   0      -6.250  13.041  69.513  1.00  0.00    -0.117 A  
HETATM   25  C   UNK A   0      -7.824  13.204  67.704  1.00  0.00    -0.169 A  
HETATM   26  C   UNK A   0      -6.242  14.433  69.632  1.00  0.00    -0.126 A  
BRANCH  23  27
HETATM   27  C   UNK A   0      -7.143  16.683  68.990  1.00  0.00    -0.216 C  
ATOM     28  H   GLU A   1      -8.962  16.727  67.971  1.00  0.00     0.000 HD 
ATOM     29  N   GLU A   1      -8.245  17.299  68.418  1.00  0.00    -0.251 N  
HETATM   30  O   UNK A   0      -6.291  17.289  69.619  1.00  0.00    -0.248 OA 
BRANCH  29  31
ATOM     31  CA  GLU A   1      -8.403  18.769  68.443  1.00  0.00    -0.342 C  
ATOM     32  C   GLU A   1      -9.688  19.149  69.216  1.00  0.00    -0.196 C  
ATOM     33  O   GLU A   1     -10.426  18.086  69.612  1.00  0.00     0.092 OA 
ATOM     34  OXT GLU A   1     -10.055  20.298  69.422  1.00  0.00    -0.146 OA 
BRANCH  31  35
ATOM     35  CB  GLU A   1      -8.436  19.316  67.004  1.00  0.00    -0.305 C  
BRANCH  35  36
ATOM     36  CG  GLU A   1      -9.090  18.361  65.998  1.00  0.00     0.018 C  
ATOM     37  CD  GLU A   1     -10.509  18.748  65.663  1.00  0.00    -0.132 C  
ATOM     38  OE2 GLU A   1     -11.114  19.694  66.142  1.00  0.00    -0.269 OA 
ATOM     39  OE1 GLU A   1     -11.056  17.917  64.740  1.00  0.00    -0.785 OA 
ENDBRANCH  35  36
ENDBRANCH  31  35
ENDBRANCH  29  31
ENDBRANCH  23  27
ENDBRANCH  19  21
ENDBRANCH  18  19
ENDBRANCH   3  18
TORSDOF 7
ENDMDL
MODEL      126
REMARK 921   NORMALIZED FREE ENERGY PREDICTED BY IDOCK:   -5.51 KCAL/MOL
REMARK 922        TOTAL FREE ENERGY PREDICTED BY IDOCK:   -8.99 KCAL/MOL
REMARK 923 INTER-LIGAND FREE ENERGY PREDICTED BY IDOCK:   -8.41 KCAL/MOL
REMARK 924 INTRA-LIGAND FREE ENERGY PREDICTED BY IDOCK:   -0.58 KCAL/MOL
REMARK 927      BINDING AFFINITY PREDICTED BY RF-SCORE:    0.00 PKD
ROOT
HETATM    1  C   UNK A   0     -11.098  13.851  68.925  1.00  0.00    -0.266 C  
HETATM    2  N   UNK A   0     -10.002  14.495  68.217  1.00  0.00    -0.223 NA 
HETATM    3  C   UNK A   0      -9.306  13.721  67.149  1.00  0.00    -0.240 C  
HETATM    4  O   UNK A   0     -11.475  16.485  69.796  1.00  0.00    -0.176 OA 
HETATM    5  C   UNK A   0      -7.789  14.031  67.231  1.00  0.00    -0.122 C  
HETATM    6  C   UNK A   0      -9.061  18.533  68.511  1.00  0.00    -0.328 C  
HETATM    7  N   UNK A   0      -7.537  15.483  67.268  1.00  0.00    -0.201 NA 
HETATM    8  H   UNK A   0      -6.702  15.868  66.828  1.00  0.00     0.000 HD 
HETATM    9  H2  UNK A   0      -9.310  20.563  68.724  1.00  0.00     0.000 HD 
HETATM   10  C   UNK A   0      -8.443  16.325  67.907  1.00  0.00    -0.164 C  
HETATM   11  H   UNK A   0     -10.813  18.921  69.424  1.00  0.00     0.000 HD 
HETATM   12  C   UNK A   0      -9.608  15.847  68.417  1.00  0.00    -0.208 C  
HETATM   13  H1  UNK A   0      -7.808  20.087  67.939  1.00  0.00     0.000 HD 
HETATM   14  C   UNK A   0     -10.493  16.862  69.161  1.00  0.00    -0.335 C  
HETATM   15  N   UNK A   0      -8.171  17.659  67.995  1.00  0.00    -0.235 NA 
HETATM   16  N   UNK A   0      -8.692  19.829  68.378  1.00  0.00    -0.292 NA 
HETATM   17  N   UNK A   0     -10.178  18.207  69.066  1.00  0.00    -0.433 N  
ENDROOT
BRANCH   3  18
HETATM   18  C   UNK A   0      -9.885  14.081  65.754  1.00  0.00    -0.256 C  
BRANCH  18  19
HETATM   19  N   UNK A   0     -10.028  12.884  64.901  1.00  0.00    -0.511 NA 
HETATM   20  H   UNK A   0     -10.026  12.952  63.883  1.00  0.00     0.000 HD 
BRANCH  19  21
HETATM   21  C   UNK A   0     -10.168  11.651  65.554  1.00  0.00    -0.260 A  
HETATM   22  C   UNK A   0      -9.475   9.320  65.706  1.00  0.00    -0.329 A  
HETATM   23  C   UNK A   0     -10.307   9.142  66.812  1.00  0.00    -0.308 A  
HETATM   24  C   UNK A   0     -11.094  11.420  66.576  1.00  0.00    -0.312 A  
HETATM   25  C   UNK A   0      -9.419  10.567  65.078  1.00  0.00    -0.296 A  
HETATM   26  C   UNK A   0     -11.156  10.178  67.214  1.00  0.00    -0.166 A  
BRANCH  23  27
HETATM   27  C   UNK A   0     -10.294   7.846  67.537  1.00  0.00    -0.259 C  
ATOM     28  H   GLU A   1     -10.624   8.838  69.341  1.00  0.00     0.000 HD 
ATOM     29  N   GLU A   1     -10.452   7.929  68.911  1.00  0.00    -0.211 N  
HETATM   30  O   UNK A   0     -10.175   6.787  66.941  1.00  0.00    -0.202 OA 
BRANCH  29  31
ATOM     31  CA  GLU A   1     -10.377   6.725  69.768  1.00  0.00    -0.201 C  
ATOM     32  C   GLU A   1     -11.440   6.807  70.888  1.00  0.00    -0.334 C  
ATOM     33  O   GLU A   1     -12.131   7.970  70.907  1.00  0.00    -0.263 OA 
ATOM     34  OXT GLU A   1     -11.628   5.935  71.726  1.00  0.00    -0.254 OA 
BRANCH  31  35
ATOM     35  CB  GLU A   1      -8.960   6.588  70.354  1.00  0.00    -0.152 C  
BRANCH  35  36
ATOM     36  CG  GLU A   1      -8.054   7.790  70.060  1.00  0.00    -0.118 C  
ATOM     37  CD  GLU A   1      -7.982   8.762  71.211  1.00  0.00    -0.139 C  
ATOM     38  OE2 GLU A   1      -8.587   8.654  72.265  1.00  0.00    -0.319 OA 
ATOM     39  OE1 GLU A   1      -7.143   9.796  70.948  1.00  0.00    -0.296 OA 
ENDBRANCH  35  36
ENDBRANCH  31  35
ENDBRANCH  29  31
ENDBRANCH  23  27
ENDBRANCH  19  21
ENDBRANCH  18  19
ENDBRANCH   3  18
TORSDOF 7
ENDMDL
MODEL      127
REMARK 921   NORMALIZED FREE ENERGY PREDICTED BY IDOCK:   -5.50 KCAL/MOL
REMARK 922        TOTAL FREE ENERGY PREDICTED BY IDOCK:   -8.98 KCAL/MOL
REMARK 923 INTER-LIGAND FREE ENERGY PREDICTED BY IDOCK:   -8.03 KCAL/MOL
REMARK 924 INTRA-LIGAND FREE ENERGY PREDICTED BY IDOCK:   -0.95 KCAL/MOL
REMARK 927      BINDING AFFINITY PREDICTED BY RF-SCORE:    0.00 PKD
ROOT
HETATM    1  C   UNK A   0     -10.447  15.197  69.585  1.00  0.00    -0.250 C  
HETATM    2  N   UNK A   0     -10.303  15.415  68.153  1.00  0.00    -0.236 NA 
HETATM    3  C   UNK A   0     -10.459  14.241  67.246  1.00  0.00    -0.269 C  
HETATM    4  O   UNK A   0     -10.515  17.996  69.537  1.00  0.00    -0.017 OA 
HETATM    5  C   UNK A   0      -9.411  14.361  66.110  1.00  0.00    -0.242 C  
HETATM    6  C   UNK A   0     -10.104  19.154  66.349  1.00  0.00    -0.419 C  
HETATM    7  N   UNK A   0      -9.447  15.692  65.481  1.00  0.00    -0.295 NA 
HETATM    8  H   UNK A   0      -9.250  15.793  64.485  1.00  0.00     0.000 HD 
HETATM    9  H2  UNK A   0     -10.453  21.150  66.001  1.00  0.00     0.000 HD 
HETATM   10  C   UNK A   0      -9.752  16.812  66.251  1.00  0.00    -0.297 C  
HETATM   11  H   UNK A   0     -10.719  20.053  68.043  1.00  0.00     0.000 HD 
HETATM   12  C   UNK A   0     -10.110  16.691  67.555  1.00  0.00    -0.273 C  
HETATM   13  H1  UNK A   0      -9.903  20.246  64.594  1.00  0.00     0.000 HD 
HETATM   14  C   UNK A   0     -10.353  18.004  68.319  1.00  0.00    -0.380 C  
HETATM   15  N   UNK A   0      -9.719  18.049  65.678  1.00  0.00    -0.339 NA 
HETATM   16  N   UNK A   0     -10.156  20.269  65.582  1.00  0.00    -0.510 NA 
HETATM   17  N   UNK A   0     -10.423  19.184  67.598  1.00  0.00    -0.423 N  
ENDROOT
BRANCH   3  18
HETATM   18  C   UNK A   0     -11.904  14.179  66.683  1.00  0.00    -0.424 C  
BRANCH  18  19
HETATM   19  N   UNK A   0     -12.266  12.810  66.267  1.00  0.00    -0.538 NA 
HETATM   20  H   UNK A   0     -12.945  12.640  65.524  1.00  0.00     0.000 HD 
BRANCH  19  21
HETATM   21  C   UNK A   0     -11.636  11.753  66.940  1.00  0.00    -0.234 A  
HETATM   22  C   UNK A   0     -10.161   9.818  66.795  1.00  0.00    -0.300 A  
HETATM   23  C   UNK A   0     -10.265   9.632  68.174  1.00  0.00    -0.225 A  
HETATM   24  C   UNK A   0     -11.835  11.473  68.295  1.00  0.00    -0.327 A  
HETATM   25  C   UNK A   0     -10.855  10.868  66.186  1.00  0.00    -0.166 A  
HETATM   26  C   UNK A   0     -11.145  10.429  68.915  1.00  0.00    -0.296 A  
BRANCH  23  27
HETATM   27  C   UNK A   0      -9.455   8.578  68.834  1.00  0.00    -0.147 C  
ATOM     28  H   GLU A   1      -8.837   9.943  70.285  1.00  0.00     0.000 HD 
ATOM     29  N   GLU A   1      -8.735   8.986  69.946  1.00  0.00    -0.145 N  
HETATM   30  O   UNK A   0      -9.455   7.428  68.424  1.00  0.00    -0.143 OA 
BRANCH  29  31
ATOM     31  CA  GLU A   1      -7.821   8.061  70.652  1.00  0.00    -0.091 C  
ATOM     32  C   GLU A   1      -8.249   7.924  72.132  1.00  0.00    -0.125 C  
ATOM     33  O   GLU A   1      -9.280   8.728  72.484  1.00  0.00    -0.347 OA 
ATOM     34  OXT GLU A   1      -7.693   7.200  72.946  1.00  0.00    -0.085 OA 
BRANCH  31  35
ATOM     35  CB  GLU A   1      -6.372   8.568  70.536  1.00  0.00    -0.036 C  
BRANCH  35  36
ATOM     36  CG  GLU A   1      -6.118   9.881  71.286  1.00  0.00     0.036 C  
ATOM     37  CD  GLU A   1      -5.800  11.030  70.362  1.00  0.00    -0.137 C  
ATOM     38  OE2 GLU A   1      -5.716  10.955  69.147  1.00  0.00    -0.041 OA 
ATOM     39  OE1 GLU A   1      -5.620  12.191  71.040  1.00  0.00    -0.309 OA 
ENDBRANCH  35  36
ENDBRANCH  31  35
ENDBRANCH  29  31
ENDBRANCH  23  27
ENDBRANCH  19  21
ENDBRANCH  18  19
ENDBRANCH   3  18
TORSDOF 7
ENDMDL
MODEL      128
REMARK 921   NORMALIZED FREE ENERGY PREDICTED BY IDOCK:   -5.49 KCAL/MOL
REMARK 922        TOTAL FREE ENERGY PREDICTED BY IDOCK:   -8.96 KCAL/MOL
REMARK 923 INTER-LIGAND FREE ENERGY PREDICTED BY IDOCK:   -8.14 KCAL/MOL
REMARK 924 INTRA-LIGAND FREE ENERGY PREDICTED BY IDOCK:   -0.83 KCAL/MOL
REMARK 927      BINDING AFFINITY PREDICTED BY RF-SCORE:    0.00 PKD
ROOT
HETATM    1  C   UNK A   0      -8.730  12.094  68.125  1.00  0.00    -0.185 C  
HETATM    2  N   UNK A   0      -9.931  12.890  67.917  1.00  0.00    -0.226 NA 
HETATM    3  C   UNK A   0     -11.208  12.172  67.638  1.00  0.00    -0.286 C  
HETATM    4  O   UNK A   0      -7.789  14.581  69.002  1.00  0.00    -0.137 OA 
HETATM    5  C   UNK A   0     -11.994  12.974  66.569  1.00  0.00    -0.391 C  
HETATM    6  C   UNK A   0     -10.205  16.972  68.650  1.00  0.00    -0.321 C  
HETATM    7  N   UNK A   0     -12.101  14.397  66.933  1.00  0.00    -0.496 NA 
HETATM    8  H   UNK A   0     -12.934  14.929  66.682  1.00  0.00     0.000 HD 
HETATM    9  H2  UNK A   0      -9.881  18.800  69.533  1.00  0.00     0.000 HD 
HETATM   10  C   UNK A   0     -11.059  15.014  67.622  1.00  0.00    -0.316 C  
HETATM   11  H   UNK A   0      -8.461  16.953  69.657  1.00  0.00     0.000 HD 
HETATM   12  C   UNK A   0      -9.983  14.305  68.050  1.00  0.00    -0.220 C  
HETATM   13  H1  UNK A   0     -11.378  18.685  68.613  1.00  0.00     0.000 HD 
HETATM   14  C   UNK A   0      -8.866  15.110  68.736  1.00  0.00    -0.196 C  
HETATM   15  N   UNK A   0     -11.135  16.347  67.898  1.00  0.00    -0.297 NA 
HETATM   16  N   UNK A   0     -10.518  18.254  68.953  1.00  0.00    -0.407 NA 
HETATM   17  N   UNK A   0      -9.118  16.427  69.080  1.00  0.00    -0.264 N  
ENDROOT
BRANCH   3  18
HETATM   18  C   UNK A   0     -12.032  12.004  68.943  1.00  0.00    -0.246 C  
BRANCH  18  19
HETATM   19  N   UNK A   0     -11.180  11.581  70.072  1.00  0.00    -0.489 NA 
HETATM   20  H   UNK A   0     -10.585  12.244  70.568  1.00  0.00     0.000 HD 
BRANCH  19  21
HETATM   21  C   UNK A   0     -11.225  10.225  70.430  1.00  0.00    -0.332 A  
HETATM   22  C   UNK A   0     -10.204   8.020  70.247  1.00  0.00    -0.200 A  
HETATM   23  C   UNK A   0     -11.163   7.501  71.118  1.00  0.00    -0.277 A  
HETATM   24  C   UNK A   0     -12.254   9.663  71.192  1.00  0.00    -0.437 A  
HETATM   25  C   UNK A   0     -10.248   9.374  69.900  1.00  0.00    -0.247 A  
HETATM   26  C   UNK A   0     -12.219   8.312  71.548  1.00  0.00    -0.334 A  
BRANCH  23  27
HETATM   27  C   UNK A   0     -11.062   6.088  71.562  1.00  0.00    -0.276 C  
ATOM     28  H   GLU A   1      -9.356   5.829  70.391  1.00  0.00     0.000 HD 
ATOM     29  N   GLU A   1     -10.019   5.362  71.009  1.00  0.00    -0.189 N  
HETATM   30  O   UNK A   0     -11.840   5.623  72.378  1.00  0.00    -0.261 OA 
BRANCH  29  31
ATOM     31  CA  GLU A   1      -9.847   3.921  71.298  1.00  0.00    -0.157 C  
ATOM     32  C   GLU A   1      -8.831   3.730  72.448  1.00  0.00    -0.100 C  
ATOM     33  O   GLU A   1      -8.257   4.880  72.871  1.00  0.00    -0.100 OA 
ATOM     34  OXT GLU A   1      -8.517   2.645  72.918  1.00  0.00    -0.069 OA 
BRANCH  31  35
ATOM     35  CB  GLU A   1      -9.394   3.183  70.025  1.00  0.00    -0.226 C  
BRANCH  35  36
ATOM     36  CG  GLU A   1      -8.263   3.894  69.272  1.00  0.00    -0.072 C  
ATOM     37  CD  GLU A   1      -8.641   4.256  67.857  1.00  0.00    -0.099 C  
ATOM     38  OE2 GLU A   1      -9.709   4.002  67.326  1.00  0.00    -0.199 OA 
ATOM     39  OE1 GLU A   1      -7.643   4.921  67.222  1.00  0.00    -0.085 OA 
ENDBRANCH  35  36
ENDBRANCH  31  35
ENDBRANCH  29  31
ENDBRANCH  23  27
ENDBRANCH  19  21
ENDBRANCH  18  19
ENDBRANCH   3  18
TORSDOF 7
ENDMDL
MODEL      129
REMARK 921   NORMALIZED FREE ENERGY PREDICTED BY IDOCK:   -5.48 KCAL/MOL
REMARK 922        TOTAL FREE ENERGY PREDICTED BY IDOCK:   -8.96 KCAL/MOL
REMARK 923 INTER-LIGAND FREE ENERGY PREDICTED BY IDOCK:   -8.21 KCAL/MOL
REMARK 924 INTRA-LIGAND FREE ENERGY PREDICTED BY IDOCK:   -0.75 KCAL/MOL
REMARK 927      BINDING AFFINITY PREDICTED BY RF-SCORE:    0.00 PKD
ROOT
HETATM    1  C   UNK A   0      -5.280   7.099  68.009  1.00  0.00    -0.020 C  
HETATM    2  N   UNK A   0      -6.674   6.961  67.615  1.00  0.00    -0.065 NA 
HETATM    3  C   UNK A   0      -7.541   6.047  68.412  1.00  0.00    -0.091 C  
HETATM    4  O   UNK A   0      -5.462   9.240  66.214  1.00  0.00    -0.042 OA 
HETATM    5  C   UNK A   0      -8.486   5.298  67.438  1.00  0.00    -0.106 C  
HETATM    6  C   UNK A   0      -8.582   9.383  64.827  1.00  0.00    -0.180 C  
HETATM    7  N   UNK A   0      -9.171   6.231  66.527  1.00  0.00    -0.151 NA 
HETATM    8  H   UNK A   0     -10.122   6.035  66.213  1.00  0.00     0.000 HD 
HETATM    9  H2  UNK A   0      -9.073  11.058  63.740  1.00  0.00     0.000 HD 
HETATM   10  C   UNK A   0      -8.514   7.381  66.094  1.00  0.00    -0.145 C  
HETATM   11  H   UNK A   0      -7.060  10.701  64.865  1.00  0.00     0.000 HD 
HETATM   12  C   UNK A   0      -7.286   7.710  66.572  1.00  0.00    -0.087 C  
HETATM   13  H1  UNK A   0     -10.324   9.820  63.784  1.00  0.00     0.000 HD 
HETATM   14  C   UNK A   0      -6.634   8.965  65.966  1.00  0.00    -0.065 C  
HETATM   15  N   UNK A   0      -9.128   8.207  65.200  1.00  0.00    -0.375 NA 
HETATM   16  N   UNK A   0      -9.395  10.143  64.056  1.00  0.00    -0.272 NA 
HETATM   17  N   UNK A   0      -7.409   9.792  65.171  1.00  0.00    -0.116 N  
ENDROOT
BRANCH   3  18
HETATM   18  C   UNK A   0      -8.340   6.848  69.476  1.00  0.00    -0.133 C  
BRANCH  18  19
HETATM   19  N   UNK A   0      -9.754   7.008  69.086  1.00  0.00    -0.156 NA 
HETATM   20  H   UNK A   0     -10.290   6.234  68.693  1.00  0.00     0.000 HD 
BRANCH  19  21
HETATM   21  C   UNK A   0     -10.327   8.274  69.279  1.00  0.00    -0.218 A  
HETATM   22  C   UNK A   0     -11.473   9.796  70.799  1.00  0.00    -0.417 A  
HETATM   23  C   UNK A   0     -11.454  10.791  69.821  1.00  0.00    -0.386 A  
HETATM   24  C   UNK A   0     -10.435   9.235  68.270  1.00  0.00    -0.260 A  
HETATM   25  C   UNK A   0     -10.922   8.542  70.519  1.00  0.00    -0.263 A  
HETATM   26  C   UNK A   0     -10.982  10.492  68.538  1.00  0.00    -0.300 A  
BRANCH  23  27
HETATM   27  C   UNK A   0     -11.953  12.151  70.149  1.00  0.00    -0.314 C  
ATOM     28  H   GLU A   1     -10.833  12.953  68.583  1.00  0.00     0.000 HD 
ATOM     29  N   GLU A   1     -11.452  13.176  69.363  1.00  0.00    -0.272 N  
HETATM   30  O   UNK A   0     -12.767  12.329  71.040  1.00  0.00    -0.328 OA 
BRANCH  29  31
ATOM     31  CA  GLU A   1     -11.799  14.589  69.630  1.00  0.00    -0.318 C  
ATOM     32  C   GLU A   1     -11.231  15.493  68.511  1.00  0.00    -0.333 C  
ATOM     33  O   GLU A   1     -10.477  14.835  67.601  1.00  0.00    -0.250 OA 
ATOM     34  OXT GLU A   1     -11.390  16.705  68.456  1.00  0.00    -0.317 OA 
BRANCH  31  35
ATOM     35  CB  GLU A   1     -11.261  15.007  71.011  1.00  0.00    -0.268 C  
BRANCH  35  36
ATOM     36  CG  GLU A   1     -12.165  16.002  71.748  1.00  0.00    -0.535 C  
ATOM     37  CD  GLU A   1     -12.794  15.413  72.986  1.00  0.00    -0.463 C  
ATOM     38  OE2 GLU A   1     -12.647  14.265  73.374  1.00  0.00    -0.341 OA 
ATOM     39  OE1 GLU A   1     -13.557  16.320  73.648  1.00  0.00    -0.618 OA 
ENDBRANCH  35  36
ENDBRANCH  31  35
ENDBRANCH  29  31
ENDBRANCH  23  27
ENDBRANCH  19  21
ENDBRANCH  18  19
ENDBRANCH   3  18
TORSDOF 7
ENDMDL
MODEL      130
REMARK 921   NORMALIZED FREE ENERGY PREDICTED BY IDOCK:   -5.47 KCAL/MOL
REMARK 922        TOTAL FREE ENERGY PREDICTED BY IDOCK:   -8.94 KCAL/MOL
REMARK 923 INTER-LIGAND FREE ENERGY PREDICTED BY IDOCK:   -7.87 KCAL/MOL
REMARK 924 INTRA-LIGAND FREE ENERGY PREDICTED BY IDOCK:   -1.07 KCAL/MOL
REMARK 927      BINDING AFFINITY PREDICTED BY RF-SCORE:    0.00 PKD
ROOT
HETATM    1  C   UNK A   0     -10.306   5.136  69.318  1.00  0.00    -0.178 C  
HETATM    2  N   UNK A   0      -9.052   5.736  69.750  1.00  0.00    -0.135 NA 
HETATM    3  C   UNK A   0      -7.936   5.815  68.764  1.00  0.00    -0.101 C  
HETATM    4  O   UNK A   0     -11.153   6.282  71.728  1.00  0.00    -0.250 OA 
HETATM    5  C   UNK A   0      -6.608   5.514  69.505  1.00  0.00    -0.050 C  
HETATM    6  C   UNK A   0      -8.540   7.804  73.318  1.00  0.00    -0.187 C  
HETATM    7  N   UNK A   0      -6.474   6.332  70.723  1.00  0.00    -0.040 NA 
HETATM    8  H   UNK A   0      -5.554   6.651  71.026  1.00  0.00     0.000 HD 
HETATM    9  H2  UNK A   0      -8.966   9.005  74.932  1.00  0.00     0.000 HD 
HETATM   10  C   UNK A   0      -7.608   6.665  71.460  1.00  0.00    -0.089 C  
HETATM   11  H   UNK A   0     -10.531   7.897  73.602  1.00  0.00     0.000 HD 
HETATM   12  C   UNK A   0      -8.850   6.332  71.025  1.00  0.00    -0.136 C  
HETATM   13  H1  UNK A   0      -7.250   8.836  74.577  1.00  0.00     0.000 HD 
HETATM   14  C   UNK A   0     -10.018   6.693  71.960  1.00  0.00    -0.165 C  
HETATM   15  N   UNK A   0      -7.470   7.366  72.621  1.00  0.00    -0.075 NA 
HETATM   16  N   UNK A   0      -8.220   8.612  74.357  1.00  0.00    -0.414 NA 
HETATM   17  N   UNK A   0      -9.766   7.521  73.041  1.00  0.00    -0.201 N  
ENDROOT
BRANCH   3  18
HETATM   18  C   UNK A   0      -7.907   7.213  68.088  1.00  0.00    -0.118 C  
BRANCH  18  19
HETATM   19  N   UNK A   0      -8.956   7.339  67.057  1.00  0.00    -0.126 NA 
HETATM   20  H   UNK A   0      -9.226   6.549  66.472  1.00  0.00     0.000 HD 
BRANCH  19  21
HETATM   21  C   UNK A   0      -9.563   8.596  66.919  1.00  0.00    -0.194 A  
HETATM   22  C   UNK A   0      -9.727  10.665  65.642  1.00  0.00    -0.283 A  
HETATM   23  C   UNK A   0     -10.742  11.111  66.490  1.00  0.00    -0.314 A  
HETATM   24  C   UNK A   0     -10.484   9.114  67.835  1.00  0.00    -0.293 A  
HETATM   25  C   UNK A   0      -9.137   9.419  65.868  1.00  0.00    -0.242 A  
HETATM   26  C   UNK A   0     -11.083  10.357  67.618  1.00  0.00    -0.361 A  
BRANCH  23  27
HETATM   27  C   UNK A   0     -11.434  12.391  66.195  1.00  0.00    -0.379 C  
ATOM     28  H   GLU A   1      -9.796  13.459  66.918  1.00  0.00     0.000 HD 
ATOM     29  N   GLU A   1     -10.741  13.540  66.544  1.00  0.00    -0.285 N  
HETATM   30  O   UNK A   0     -12.530  12.410  65.658  1.00  0.00    -0.640 OA 
BRANCH  29  31
ATOM     31  CA  GLU A   1     -11.345  14.881  66.383  1.00  0.00    -0.308 C  
ATOM     32  C   GLU A   1     -10.697  15.611  65.183  1.00  0.00    -0.443 C  
ATOM     33  O   GLU A   1      -9.679  14.930  64.609  1.00  0.00     0.081 OA 
ATOM     34  OXT GLU A   1     -11.022  16.725  64.797  1.00  0.00    -0.732 OA 
BRANCH  31  35
ATOM     35  CB  GLU A   1     -11.178  15.688  67.683  1.00  0.00    -0.274 C  
BRANCH  35  36
ATOM     36  CG  GLU A   1      -9.805  15.512  68.344  1.00  0.00    -0.210 C  
ATOM     37  CD  GLU A   1      -8.998  16.786  68.362  1.00  0.00    -0.233 C  
ATOM     38  OE2 GLU A   1      -9.353  17.852  67.886  1.00  0.00    -0.261 OA 
ATOM     39  OE1 GLU A   1      -7.806  16.621  68.989  1.00  0.00    -0.236 OA 
ENDBRANCH  35  36
ENDBRANCH  31  35
ENDBRANCH  29  31
ENDBRANCH  23  27
ENDBRANCH  19  21
ENDBRANCH  18  19
ENDBRANCH   3  18
TORSDOF 7
ENDMDL
MODEL      131
REMARK 921   NORMALIZED FREE ENERGY PREDICTED BY IDOCK:   -5.47 KCAL/MOL
REMARK 922        TOTAL FREE ENERGY PREDICTED BY IDOCK:   -8.93 KCAL/MOL
REMARK 923 INTER-LIGAND FREE ENERGY PREDICTED BY IDOCK:   -8.05 KCAL/MOL
REMARK 924 INTRA-LIGAND FREE ENERGY PREDICTED BY IDOCK:   -0.89 KCAL/MOL
REMARK 927      BINDING AFFINITY PREDICTED BY RF-SCORE:    0.00 PKD
ROOT
HETATM    1  C   UNK A   0     -12.041   7.268  71.056  1.00  0.00    -0.324 C  
HETATM    2  N   UNK A   0     -11.103   6.436  70.317  1.00  0.00    -0.322 NA 
HETATM    3  C   UNK A   0     -10.572   6.956  69.024  1.00  0.00    -0.217 C  
HETATM    4  O   UNK A   0     -11.461   5.368  73.029  1.00  0.00    -0.308 OA 
HETATM    5  C   UNK A   0     -10.484   5.776  68.023  1.00  0.00    -0.225 C  
HETATM    6  C   UNK A   0      -9.314   3.000  71.823  1.00  0.00    -0.126 C  
HETATM    7  N   UNK A   0      -9.782   4.622  68.610  1.00  0.00    -0.160 NA 
HETATM    8  H   UNK A   0      -9.206   4.020  68.021  1.00  0.00     0.000 HD 
HETATM    9  H2  UNK A   0      -8.472   1.693  73.168  1.00  0.00     0.000 HD 
HETATM   10  C   UNK A   0      -9.909   4.356  69.971  1.00  0.00    -0.223 C  
HETATM   11  H   UNK A   0      -9.909   3.455  73.692  1.00  0.00     0.000 HD 
HETATM   12  C   UNK A   0     -10.592   5.196  70.790  1.00  0.00    -0.135 C  
HETATM   13  H1  UNK A   0      -8.034   1.399  71.488  1.00  0.00     0.000 HD 
HETATM   14  C   UNK A   0     -10.722   4.758  72.260  1.00  0.00    -0.115 C  
HETATM   15  N   UNK A   0      -9.310   3.249  70.496  1.00  0.00    -0.145 NA 
HETATM   16  N   UNK A   0      -8.544   1.946  72.182  1.00  0.00    -0.053 NA 
HETATM   17  N   UNK A   0      -9.959   3.690  72.700  1.00  0.00    -0.152 N  
ENDROOT
BRANCH   3  18
HETATM   18  C   UNK A   0      -9.187   7.626  69.237  1.00  0.00    -0.145 C  
BRANCH  18  19
HETATM   19  N   UNK A   0      -9.296   8.851  70.054  1.00  0.00    -0.166 NA 
HETATM   20  H   UNK A   0      -9.502   8.809  71.052  1.00  0.00     0.000 HD 
BRANCH  19  21
HETATM   21  C   UNK A   0      -9.105  10.074  69.395  1.00  0.00    -0.215 A  
HETATM   22  C   UNK A   0     -10.085  11.852  68.047  1.00  0.00    -0.199 A  
HETATM   23  C   UNK A   0      -8.877  12.549  68.085  1.00  0.00    -0.191 A  
HETATM   24  C   UNK A   0      -7.868  10.720  69.310  1.00  0.00    -0.124 A  
HETATM   25  C   UNK A   0     -10.188  10.616  68.691  1.00  0.00    -0.196 A  
HETATM   26  C   UNK A   0      -7.753  11.958  68.672  1.00  0.00    -0.113 A  
BRANCH  23  27
HETATM   27  C   UNK A   0      -8.794  13.905  67.484  1.00  0.00    -0.196 C  
ATOM     28  H   GLU A   1     -10.874  14.048  67.488  1.00  0.00     0.000 HD 
ATOM     29  N   GLU A   1     -10.009  14.515  67.215  1.00  0.00    -0.234 N  
HETATM   30  O   UNK A   0      -7.717  14.439  67.270  1.00  0.00    -0.192 OA 
BRANCH  29  31
ATOM     31  CA  GLU A   1     -10.077  15.830  66.541  1.00  0.00    -0.282 C  
ATOM     32  C   GLU A   1     -10.621  16.897  67.519  1.00  0.00    -0.307 C  
ATOM     33  O   GLU A   1     -11.000  16.401  68.719  1.00  0.00    -0.313 OA 
ATOM     34  OXT GLU A   1     -10.755  18.081  67.242  1.00  0.00    -0.372 OA 
BRANCH  31  35
ATOM     35  CB  GLU A   1     -10.957  15.727  65.282  1.00  0.00    -0.354 C  
BRANCH  35  36
ATOM     36  CG  GLU A   1     -10.892  14.357  64.596  1.00  0.00    -0.363 C  
ATOM     37  CD  GLU A   1     -12.209  13.623  64.633  1.00  0.00    -0.409 C  
ATOM     38  OE2 GLU A   1     -13.228  14.029  65.166  1.00  0.00    -0.768 OA 
ATOM     39  OE1 GLU A   1     -12.143  12.432  63.984  1.00  0.00    -0.403 OA 
ENDBRANCH  35  36
ENDBRANCH  31  35
ENDBRANCH  29  31
ENDBRANCH  23  27
ENDBRANCH  19  21
ENDBRANCH  18  19
ENDBRANCH   3  18
TORSDOF 7
ENDMDL
MODEL      132
REMARK 921   NORMALIZED FREE ENERGY PREDICTED BY IDOCK:   -5.46 KCAL/MOL
REMARK 922        TOTAL FREE ENERGY PREDICTED BY IDOCK:   -8.93 KCAL/MOL
REMARK 923 INTER-LIGAND FREE ENERGY PREDICTED BY IDOCK:   -7.86 KCAL/MOL
REMARK 924 INTRA-LIGAND FREE ENERGY PREDICTED BY IDOCK:   -1.07 KCAL/MOL
REMARK 927      BINDING AFFINITY PREDICTED BY RF-SCORE:    0.00 PKD
ROOT
HETATM    1  C   UNK A   0      -8.310   5.426  65.734  1.00  0.00    -0.126 C  
HETATM    2  N   UNK A   0      -8.119   5.737  67.143  1.00  0.00    -0.102 NA 
HETATM    3  C   UNK A   0      -6.736   6.034  67.614  1.00  0.00    -0.058 C  
HETATM    4  O   UNK A   0     -10.982   5.789  66.488  1.00  0.00    -0.253 OA 
HETATM    5  C   UNK A   0      -6.548   5.390  69.011  1.00  0.00    -0.051 C  
HETATM    6  C   UNK A   0     -11.205   6.465  69.830  1.00  0.00    -0.420 C  
HETATM    7  N   UNK A   0      -7.649   5.747  69.923  1.00  0.00    -0.078 NA 
HETATM    8  H   UNK A   0      -7.470   5.866  70.920  1.00  0.00     0.000 HD 
HETATM    9  H2  UNK A   0     -13.018   7.103  70.561  1.00  0.00     0.000 HD 
HETATM   10  C   UNK A   0      -8.935   5.921  69.417  1.00  0.00    -0.121 C  
HETATM   11  H   UNK A   0     -12.534   6.637  68.327  1.00  0.00     0.000 HD 
HETATM   12  C   UNK A   0      -9.179   5.861  68.083  1.00  0.00    -0.116 C  
HETATM   13  H1  UNK A   0     -11.763   6.907  71.781  1.00  0.00     0.000 HD 
HETATM   14  C   UNK A   0     -10.650   5.998  67.653  1.00  0.00    -0.264 C  
HETATM   15  N   UNK A   0      -9.962   6.186  70.275  1.00  0.00    -0.179 NA 
HETATM   16  N   UNK A   0     -12.059   6.855  70.806  1.00  0.00    -0.480 NA 
HETATM   17  N   UNK A   0     -11.579   6.400  68.598  1.00  0.00    -0.425 N  
ENDROOT
BRANCH   3  18
HETATM   18  C   UNK A   0      -6.497   7.568  67.658  1.00  0.00    -0.057 C  
BRANCH  18  19
HETATM   19  N   UNK A   0      -7.063   8.240  66.471  1.00  0.00    -0.071 NA 
HETATM   20  H   UNK A   0      -6.759   8.000  65.528  1.00  0.00     0.000 HD 
BRANCH  19  21
HETATM   21  C   UNK A   0      -8.037   9.223  66.702  1.00  0.00    -0.108 A  
HETATM   22  C   UNK A   0      -8.766  11.108  68.063  1.00  0.00    -0.141 A  
HETATM   23  C   UNK A   0      -9.879  11.277  67.237  1.00  0.00    -0.203 A  
HETATM   24  C   UNK A   0      -9.222   9.322  65.967  1.00  0.00    -0.262 A  
HETATM   25  C   UNK A   0      -7.860  10.077  67.798  1.00  0.00    -0.094 A  
HETATM   26  C   UNK A   0     -10.133  10.350  66.221  1.00  0.00    -0.292 A  
BRANCH  23  27
HETATM   27  C   UNK A   0     -10.789  12.428  67.461  1.00  0.00    -0.236 C  
ATOM     28  H   GLU A   1      -9.162  13.636  67.952  1.00  0.00     0.000 HD 
ATOM     29  N   GLU A   1     -10.179  13.600  67.878  1.00  0.00    -0.244 N  
HETATM   30  O   UNK A   0     -11.990  12.335  67.261  1.00  0.00    -0.546 OA 
BRANCH  29  31
ATOM     31  CA  GLU A   1     -10.972  14.802  68.218  1.00  0.00    -0.258 C  
ATOM     32  C   GLU A   1     -10.325  16.057  67.587  1.00  0.00    -0.284 C  
ATOM     33  O   GLU A   1      -9.152  15.815  66.957  1.00  0.00    -0.202 OA 
ATOM     34  OXT GLU A   1     -10.784  17.188  67.677  1.00  0.00    -0.352 OA 
BRANCH  31  35
ATOM     35  CB  GLU A   1     -11.083  14.940  69.747  1.00  0.00    -0.300 C  
BRANCH  35  36
ATOM     36  CG  GLU A   1     -12.482  15.341  70.229  1.00  0.00    -0.405 C  
ATOM     37  CD  GLU A   1     -13.114  14.301  71.119  1.00  0.00    -0.343 C  
ATOM     38  OE2 GLU A   1     -12.610  13.231  71.422  1.00  0.00    -0.342 OA 
ATOM     39  OE1 GLU A   1     -14.333  14.692  71.569  1.00  0.00    -0.449 OA 
ENDBRANCH  35  36
ENDBRANCH  31  35
ENDBRANCH  29  31
ENDBRANCH  23  27
ENDBRANCH  19  21
ENDBRANCH  18  19
ENDBRANCH   3  18
TORSDOF 7
ENDMDL
MODEL      133
REMARK 921   NORMALIZED FREE ENERGY PREDICTED BY IDOCK:   -5.44 KCAL/MOL
REMARK 922        TOTAL FREE ENERGY PREDICTED BY IDOCK:   -8.90 KCAL/MOL
REMARK 923 INTER-LIGAND FREE ENERGY PREDICTED BY IDOCK:   -7.85 KCAL/MOL
REMARK 924 INTRA-LIGAND FREE ENERGY PREDICTED BY IDOCK:   -1.05 KCAL/MOL
REMARK 927      BINDING AFFINITY PREDICTED BY RF-SCORE:    0.00 PKD
ROOT
HETATM    1  C   UNK A   0      -6.642  17.500  65.702  1.00  0.00     0.110 C  
HETATM    2  N   UNK A   0      -7.969  17.264  66.250  1.00  0.00    -0.374 NA 
HETATM    3  C   UNK A   0      -8.658  15.990  65.894  1.00  0.00     0.042 C  
HETATM    4  O   UNK A   0      -6.719  19.545  67.614  1.00  0.00    -0.215 OA 
HETATM    5  C   UNK A   0     -10.162  16.294  65.674  1.00  0.00    -0.343 C  
HETATM    6  C   UNK A   0      -9.735  19.575  69.220  1.00  0.00    -0.257 C  
HETATM    7  N   UNK A   0     -10.728  17.060  66.798  1.00  0.00    -0.176 NA 
HETATM    8  H   UNK A   0     -11.697  16.914  67.082  1.00  0.00     0.000 HD 
HETATM    9  H2  UNK A   0      -9.920  20.756  70.893  1.00  0.00     0.000 HD 
HETATM   10  C   UNK A   0      -9.934  17.986  67.472  1.00  0.00    -0.327 C  
HETATM   11  H   UNK A   0      -7.978  20.468  69.632  1.00  0.00     0.000 HD 
HETATM   12  C   UNK A   0      -8.617  18.130  67.174  1.00  0.00    -0.247 C  
HETATM   13  H1  UNK A   0     -11.394  19.917  70.421  1.00  0.00     0.000 HD 
HETATM   14  C   UNK A   0      -7.863  19.233  67.937  1.00  0.00    -0.289 C  
HETATM   15  N   UNK A   0     -10.482  18.739  68.468  1.00  0.00    -0.402 NA 
HETATM   16  N   UNK A   0     -10.408  20.123  70.259  1.00  0.00    -0.436 NA 
HETATM   17  N   UNK A   0      -8.489  19.835  69.015  1.00  0.00    -0.150 N  
ENDROOT
BRANCH   3  18
HETATM   18  C   UNK A   0      -8.449  14.931  67.010  1.00  0.00    -0.231 C  
BRANCH  18  19
HETATM   19  N   UNK A   0      -9.004  13.618  66.623  1.00  0.00    -0.423 NA 
HETATM   20  H   UNK A   0      -9.456  13.476  65.720  1.00  0.00     0.000 HD 
BRANCH  19  21
HETATM   21  C   UNK A   0      -8.882  12.577  67.555  1.00  0.00    -0.184 A  
HETATM   22  C   UNK A   0     -10.014  10.939  68.960  1.00  0.00    -0.206 A  
HETATM   23  C   UNK A   0      -8.779  10.440  69.377  1.00  0.00    -0.138 A  
HETATM   24  C   UNK A   0      -7.659  12.154  68.084  1.00  0.00    -0.125 A  
HETATM   25  C   UNK A   0     -10.058  12.010  68.062  1.00  0.00    -0.199 A  
HETATM   26  C   UNK A   0      -7.602  11.083  68.979  1.00  0.00    -0.134 A  
BRANCH  23  27
HETATM   27  C   UNK A   0      -8.731   9.244  70.255  1.00  0.00    -0.219 C  
ATOM     28  H   GLU A   1     -10.509   8.544  69.421  1.00  0.00     0.000 HD 
ATOM     29  N   GLU A   1      -9.796   8.366  70.129  1.00  0.00    -0.179 N  
HETATM   30  O   UNK A   0      -7.794   9.051  71.014  1.00  0.00    -0.135 OA 
BRANCH  29  31
ATOM     31  CA  GLU A   1      -9.920   7.176  70.999  1.00  0.00    -0.188 C  
ATOM     32  C   GLU A   1     -10.585   6.018  70.218  1.00  0.00    -0.273 C  
ATOM     33  O   GLU A   1     -10.989   6.356  68.971  1.00  0.00    -0.289 OA 
ATOM     34  OXT GLU A   1     -10.785   4.903  70.678  1.00  0.00    -0.093 OA 
BRANCH  31  35
ATOM     35  CB  GLU A   1     -10.727   7.533  72.260  1.00  0.00    -0.294 C  
BRANCH  35  36
ATOM     36  CG  GLU A   1     -11.724   8.679  72.050  1.00  0.00    -0.439 C  
ATOM     37  CD  GLU A   1     -13.121   8.191  71.759  1.00  0.00    -0.345 C  
ATOM     38  OE2 GLU A   1     -13.454   7.021  71.664  1.00  0.00    -0.365 OA 
ATOM     39  OE1 GLU A   1     -13.997   9.218  71.618  1.00  0.00    -0.328 OA 
ENDBRANCH  35  36
ENDBRANCH  31  35
ENDBRANCH  29  31
ENDBRANCH  23  27
ENDBRANCH  19  21
ENDBRANCH  18  19
ENDBRANCH   3  18
TORSDOF 7
ENDMDL
MODEL      134
REMARK 921   NORMALIZED FREE ENERGY PREDICTED BY IDOCK:   -5.43 KCAL/MOL
REMARK 922        TOTAL FREE ENERGY PREDICTED BY IDOCK:   -8.88 KCAL/MOL
REMARK 923 INTER-LIGAND FREE ENERGY PREDICTED BY IDOCK:   -7.88 KCAL/MOL
REMARK 924 INTRA-LIGAND FREE ENERGY PREDICTED BY IDOCK:   -1.00 KCAL/MOL
REMARK 927      BINDING AFFINITY PREDICTED BY RF-SCORE:    0.00 PKD
ROOT
HETATM    1  C   UNK A   0      -8.425   4.733  68.098  1.00  0.00    -0.101 C  
HETATM    2  N   UNK A   0      -8.720   6.103  68.493  1.00  0.00    -0.112 NA 
HETATM    3  C   UNK A   0      -8.308   7.202  67.573  1.00  0.00    -0.116 C  
HETATM    4  O   UNK A   0     -10.173   4.231  70.228  1.00  0.00    -0.138 OA 
HETATM    5  C   UNK A   0      -7.787   8.384  68.429  1.00  0.00    -0.113 C  
HETATM    6  C   UNK A   0     -11.165   7.158  71.684  1.00  0.00    -0.244 C  
HETATM    7  N   UNK A   0      -8.738   8.738  69.497  1.00  0.00    -0.136 NA 
HETATM    8  H   UNK A   0      -8.838   9.708  69.793  1.00  0.00     0.000 HD 
HETATM    9  H2  UNK A   0     -12.706   7.079  73.044  1.00  0.00     0.000 HD 
HETATM   10  C   UNK A   0      -9.500   7.740  70.100  1.00  0.00    -0.160 C  
HETATM   11  H   UNK A   0     -11.858   5.273  71.834  1.00  0.00     0.000 HD 
HETATM   12  C   UNK A   0      -9.454   6.457  69.659  1.00  0.00    -0.147 C  
HETATM   13  H1  UNK A   0     -12.005   8.679  72.821  1.00  0.00     0.000 HD 
HETATM   14  C   UNK A   0     -10.286   5.434  70.451  1.00  0.00    -0.283 C  
HETATM   15  N   UNK A   0     -10.330   8.063  71.133  1.00  0.00    -0.196 NA 
HETATM   16  N   UNK A   0     -12.024   7.686  72.587  1.00  0.00    -0.575 NA 
HETATM   17  N   UNK A   0     -11.190   5.903  71.389  1.00  0.00    -0.255 N  
ENDROOT
BRANCH   3  18
HETATM   18  C   UNK A   0      -9.499   7.631  66.674  1.00  0.00    -0.198 C  
BRANCH  18  19
HETATM   19  N   UNK A   0      -9.035   8.296  65.440  1.00  0.00    -0.384 NA 
HETATM   20  H   UNK A   0      -8.417   7.824  64.780  1.00  0.00     0.000 HD 
BRANCH  19  21
HETATM   21  C   UNK A   0      -9.481   9.608  65.219  1.00  0.00    -0.275 A  
HETATM   22  C   UNK A   0     -10.577  11.583  66.133  1.00  0.00    -0.314 A  
HETATM   23  C   UNK A   0     -10.369  12.258  64.930  1.00  0.00    -0.319 A  
HETATM   24  C   UNK A   0      -9.401  10.251  63.981  1.00  0.00    -0.337 A  
HETATM   25  C   UNK A   0     -10.143  10.261  66.267  1.00  0.00    -0.300 A  
HETATM   26  C   UNK A   0      -9.828  11.574  63.836  1.00  0.00    -0.326 A  
BRANCH  23  27
HETATM   27  C   UNK A   0     -10.743  13.691  64.820  1.00  0.00    -0.410 C  
ATOM     28  H   GLU A   1      -9.199  14.207  66.123  1.00  0.00     0.000 HD 
ATOM     29  N   GLU A   1      -9.988  14.566  65.585  1.00  0.00    -0.346 N  
HETATM   30  O   UNK A   0     -11.643  14.056  64.081  1.00  0.00    -0.352 OA 
BRANCH  29  31
ATOM     31  CA  GLU A   1     -10.303  16.011  65.636  1.00  0.00    -0.392 C  
ATOM     32  C   GLU A   1      -9.013  16.823  65.898  1.00  0.00    -0.068 C  
ATOM     33  O   GLU A   1      -7.916  16.060  66.114  1.00  0.00    -0.164 OA 
ATOM     34  OXT GLU A   1      -8.967  18.044  65.959  1.00  0.00    -0.502 OA 
BRANCH  31  35
ATOM     35  CB  GLU A   1     -11.359  16.277  66.723  1.00  0.00     0.371 C  
BRANCH  35  36
ATOM     36  CG  GLU A   1     -11.746  15.028  67.524  1.00  0.00    -0.270 C  
ATOM     37  CD  GLU A   1     -10.956  14.886  68.801  1.00  0.00    -0.253 C  
ATOM     38  OE2 GLU A   1     -10.078  15.645  69.175  1.00  0.00    -0.207 OA 
ATOM     39  OE1 GLU A   1     -11.342  13.800  69.517  1.00  0.00    -0.260 OA 
ENDBRANCH  35  36
ENDBRANCH  31  35
ENDBRANCH  29  31
ENDBRANCH  23  27
ENDBRANCH  19  21
ENDBRANCH  18  19
ENDBRANCH   3  18
TORSDOF 7
ENDMDL
MODEL      135
REMARK 921   NORMALIZED FREE ENERGY PREDICTED BY IDOCK:   -5.42 KCAL/MOL
REMARK 922        TOTAL FREE ENERGY PREDICTED BY IDOCK:   -8.87 KCAL/MOL
REMARK 923 INTER-LIGAND FREE ENERGY PREDICTED BY IDOCK:   -8.15 KCAL/MOL
REMARK 924 INTRA-LIGAND FREE ENERGY PREDICTED BY IDOCK:   -0.72 KCAL/MOL
REMARK 927      BINDING AFFINITY PREDICTED BY RF-SCORE:    0.00 PKD
ROOT
HETATM    1  C   UNK A   0      -8.267  10.711  69.235  1.00  0.00    -0.115 C  
HETATM    2  N   UNK A   0      -9.501   9.977  69.474  1.00  0.00    -0.217 NA 
HETATM    3  C   UNK A   0     -10.778  10.746  69.511  1.00  0.00    -0.226 C  
HETATM    4  O   UNK A   0      -7.320   8.098  68.893  1.00  0.00    -0.086 OA 
HETATM    5  C   UNK A   0     -11.671  10.155  70.631  1.00  0.00    -0.338 C  
HETATM    6  C   UNK A   0      -9.818   5.833  69.447  1.00  0.00    -0.167 C  
HETATM    7  N   UNK A   0     -11.784   8.691  70.514  1.00  0.00    -0.457 NA 
HETATM    8  H   UNK A   0     -12.649   8.221  70.782  1.00  0.00     0.000 HD 
HETATM    9  H2  UNK A   0      -9.468   3.874  68.931  1.00  0.00     0.000 HD 
HETATM   10  C   UNK A   0     -10.704   7.951  70.038  1.00  0.00    -0.244 C  
HETATM   11  H   UNK A   0      -7.996   5.655  68.608  1.00  0.00     0.000 HD 
HETATM   12  C   UNK A   0      -9.578   8.562  69.587  1.00  0.00    -0.170 C  
HETATM   13  H1  UNK A   0     -11.034   4.166  69.681  1.00  0.00     0.000 HD 
HETATM   14  C   UNK A   0      -8.429   7.636  69.153  1.00  0.00    -0.138 C  
HETATM   15  N   UNK A   0     -10.791   6.591  69.994  1.00  0.00    -0.259 NA 
HETATM   16  N   UNK A   0     -10.137   4.521  69.348  1.00  0.00    -0.146 NA 
HETATM   17  N   UNK A   0      -8.685   6.281  69.025  1.00  0.00    -0.125 N  
ENDROOT
BRANCH   3  18
HETATM   18  C   UNK A   0     -11.485  10.690  68.130  1.00  0.00    -0.228 C  
BRANCH  18  19
HETATM   19  N   UNK A   0     -11.838  12.039  67.645  1.00  0.00    -0.564 NA 
HETATM   20  H   UNK A   0     -12.789  12.269  67.356  1.00  0.00     0.000 HD 
BRANCH  19  21
HETATM   21  C   UNK A   0     -10.807  12.989  67.600  1.00  0.00    -0.239 A  
HETATM   22  C   UNK A   0      -8.620  13.601  66.717  1.00  0.00    -0.050 A  
HETATM   23  C   UNK A   0      -8.697  14.830  67.374  1.00  0.00    -0.210 A  
HETATM   24  C   UNK A   0     -10.808  14.165  68.356  1.00  0.00    -0.266 A  
HETATM   25  C   UNK A   0      -9.668  12.685  66.844  1.00  0.00    -0.234 A  
HETATM   26  C   UNK A   0      -9.767  15.090  68.235  1.00  0.00    -0.215 A  
BRANCH  23  27
HETATM   27  C   UNK A   0      -7.629  15.841  67.163  1.00  0.00    -0.224 C  
ATOM     28  H   GLU A   1      -9.037  17.374  67.295  1.00  0.00     0.000 HD 
ATOM     29  N   GLU A   1      -8.054  17.160  67.124  1.00  0.00    -0.185 N  
HETATM   30  O   UNK A   0      -6.458  15.514  67.058  1.00  0.00    -0.285 OA 
BRANCH  29  31
ATOM     31  CA  GLU A   1      -7.111  18.263  66.839  1.00  0.00    -0.196 C  
ATOM     32  C   GLU A   1      -6.475  18.768  68.155  1.00  0.00    -0.216 C  
ATOM     33  O   GLU A   1      -6.971  18.177  69.267  1.00  0.00    -0.243 OA 
ATOM     34  OXT GLU A   1      -5.635  19.654  68.219  1.00  0.00    -0.201 OA 
BRANCH  31  35
ATOM     35  CB  GLU A   1      -7.844  19.400  66.102  1.00  0.00    -0.317 C  
BRANCH  35  36
ATOM     36  CG  GLU A   1      -9.038  19.967  66.880  1.00  0.00    -0.452 C  
ATOM     37  CD  GLU A   1     -10.360  19.428  66.394  1.00  0.00    -0.483 C  
ATOM     38  OE2 GLU A   1     -10.506  18.648  65.467  1.00  0.00    -0.585 OA 
ATOM     39  OE1 GLU A   1     -11.401  19.908  67.121  1.00  0.00    -0.066 OA 
ENDBRANCH  35  36
ENDBRANCH  31  35
ENDBRANCH  29  31
ENDBRANCH  23  27
ENDBRANCH  19  21
ENDBRANCH  18  19
ENDBRANCH   3  18
TORSDOF 7
ENDMDL
MODEL      136
REMARK 921   NORMALIZED FREE ENERGY PREDICTED BY IDOCK:   -5.42 KCAL/MOL
REMARK 922        TOTAL FREE ENERGY PREDICTED BY IDOCK:   -8.86 KCAL/MOL
REMARK 923 INTER-LIGAND FREE ENERGY PREDICTED BY IDOCK:   -7.79 KCAL/MOL
REMARK 924 INTRA-LIGAND FREE ENERGY PREDICTED BY IDOCK:   -1.08 KCAL/MOL
REMARK 927      BINDING AFFINITY PREDICTED BY RF-SCORE:    0.00 PKD
ROOT
HETATM    1  C   UNK A   0     -10.856  17.610  68.067  1.00  0.00    -0.234 C  
HETATM    2  N   UNK A   0      -9.647  17.206  67.364  1.00  0.00    -0.244 NA 
HETATM    3  C   UNK A   0      -9.380  15.748  67.209  1.00  0.00    -0.211 C  
HETATM    4  O   UNK A   0     -10.125  20.076  66.962  1.00  0.00    -0.405 OA 
HETATM    5  C   UNK A   0      -7.860  15.508  67.394  1.00  0.00    -0.186 C  
HETATM    6  C   UNK A   0      -7.200  19.791  65.218  1.00  0.00    -0.075 C  
HETATM    7  N   UNK A   0      -7.064  16.420  66.554  1.00  0.00    -0.172 NA 
HETATM    8  H   UNK A   0      -6.177  16.108  66.159  1.00  0.00     0.000 HD 
HETATM    9  H2  UNK A   0      -6.630  21.373  64.035  1.00  0.00     0.000 HD 
HETATM   10  C   UNK A   0      -7.528  17.709  66.302  1.00  0.00    -0.305 C  
HETATM   11  H   UNK A   0      -8.599  21.238  65.280  1.00  0.00     0.000 HD 
HETATM   12  C   UNK A   0      -8.748  18.113  66.738  1.00  0.00    -0.263 C  
HETATM   13  H1  UNK A   0      -5.486  20.036  64.072  1.00  0.00     0.000 HD 
HETATM   14  C   UNK A   0      -9.119  19.581  66.459  1.00  0.00    -0.365 C  
HETATM   15  N   UNK A   0      -6.756  18.569  65.578  1.00  0.00    -0.442 NA 
HETATM   16  N   UNK A   0      -6.369  20.447  64.375  1.00  0.00    -0.289 NA 
HETATM   17  N   UNK A   0      -8.316  20.312  65.601  1.00  0.00    -0.440 N  
ENDROOT
BRANCH   3  18
HETATM   18  C   UNK A   0      -9.869  15.251  65.822  1.00  0.00    -0.361 C  
BRANCH  18  19
HETATM   19  N   UNK A   0     -11.096  14.438  65.938  1.00  0.00    -0.313 NA 
HETATM   20  H   UNK A   0     -11.936  14.662  65.405  1.00  0.00     0.000 HD 
BRANCH  19  21
HETATM   21  C   UNK A   0     -11.054  13.345  66.816  1.00  0.00    -0.292 A  
HETATM   22  C   UNK A   0     -10.025  11.210  67.384  1.00  0.00    -0.204 A  
HETATM   23  C   UNK A   0     -10.822  11.128  68.527  1.00  0.00    -0.243 A  
HETATM   24  C   UNK A   0     -11.935  13.182  67.889  1.00  0.00    -0.347 A  
HETATM   25  C   UNK A   0     -10.154  12.310  66.531  1.00  0.00    -0.232 A  
HETATM   26  C   UNK A   0     -11.813  12.089  68.751  1.00  0.00    -0.358 A  
BRANCH  23  27
HETATM   27  C   UNK A   0     -10.619  10.009  69.483  1.00  0.00    -0.244 C  
ATOM     28  H   GLU A   1      -8.661   9.768  68.805  1.00  0.00     0.000 HD 
ATOM     29  N   GLU A   1      -9.376   9.398  69.432  1.00  0.00    -0.161 N  
HETATM   30  O   UNK A   0     -11.492   9.682  70.270  1.00  0.00    -0.254 OA 
BRANCH  29  31
ATOM     31  CA  GLU A   1      -9.065   8.218  70.268  1.00  0.00    -0.150 C  
ATOM     32  C   GLU A   1      -7.621   8.323  70.813  1.00  0.00    -0.073 C  
ATOM     33  O   GLU A   1      -6.933   9.391  70.346  1.00  0.00    -0.073 OA 
ATOM     34  OXT GLU A   1      -7.104   7.503  71.559  1.00  0.00    -0.060 OA 
BRANCH  31  35
ATOM     35  CB  GLU A   1      -9.259   6.930  69.449  1.00  0.00    -0.147 C  
BRANCH  35  36
ATOM     36  CG  GLU A   1     -10.128   5.879  70.151  1.00  0.00    -0.261 C  
ATOM     37  CD  GLU A   1      -9.320   4.739  70.720  1.00  0.00    -0.148 C  
ATOM     38  OE2 GLU A   1      -8.110   4.617  70.625  1.00  0.00    -0.079 OA 
ATOM     39  OE1 GLU A   1     -10.101   3.842  71.374  1.00  0.00    -0.157 OA 
ENDBRANCH  35  36
ENDBRANCH  31  35
ENDBRANCH  29  31
ENDBRANCH  23  27
ENDBRANCH  19  21
ENDBRANCH  18  19
ENDBRANCH   3  18
TORSDOF 7
ENDMDL
MODEL      137
REMARK 921   NORMALIZED FREE ENERGY PREDICTED BY IDOCK:   -5.41 KCAL/MOL
REMARK 922        TOTAL FREE ENERGY PREDICTED BY IDOCK:   -8.85 KCAL/MOL
REMARK 923 INTER-LIGAND FREE ENERGY PREDICTED BY IDOCK:   -8.56 KCAL/MOL
REMARK 924 INTRA-LIGAND FREE ENERGY PREDICTED BY IDOCK:   -0.29 KCAL/MOL
REMARK 927      BINDING AFFINITY PREDICTED BY RF-SCORE:    0.00 PKD
ROOT
HETATM    1  C   UNK A   0     -10.890  14.806  69.155  1.00  0.00    -0.260 C  
HETATM    2  N   UNK A   0     -10.407  15.245  67.855  1.00  0.00    -0.243 NA 
HETATM    3  C   UNK A   0      -9.066  15.894  67.788  1.00  0.00    -0.196 C  
HETATM    4  O   UNK A   0     -12.761  13.523  67.513  1.00  0.00     0.234 OA 
HETATM    5  C   UNK A   0      -9.138  17.058  66.767  1.00  0.00    -0.246 C  
HETATM    6  C   UNK A   0     -12.195  14.278  64.229  1.00  0.00    -0.423 C  
HETATM    7  N   UNK A   0      -9.724  16.620  65.489  1.00  0.00    -0.520 NA 
HETATM    8  H   UNK A   0      -9.405  17.030  64.612  1.00  0.00     0.000 HD 
HETATM    9  H2  UNK A   0     -13.214  13.199  62.807  1.00  0.00     0.000 HD 
HETATM   10  C   UNK A   0     -10.718  15.643  65.484  1.00  0.00    -0.389 C  
HETATM   11  H   UNK A   0     -13.329  12.869  65.114  1.00  0.00     0.000 HD 
HETATM   12  C   UNK A   0     -11.092  15.016  66.630  1.00  0.00    -0.326 C  
HETATM   13  H1  UNK A   0     -12.183  14.472  62.162  1.00  0.00     0.000 HD 
HETATM   14  C   UNK A   0     -12.248  14.008  66.507  1.00  0.00    -0.451 C  
HETATM   15  N   UNK A   0     -11.303  15.288  64.305  1.00  0.00    -0.697 NA 
HETATM   16  N   UNK A   0     -12.555  13.962  62.963  1.00  0.00    -0.908 NA 
HETATM   17  N   UNK A   0     -12.666  13.634  65.242  1.00  0.00    -0.664 N  
ENDROOT
BRANCH   3  18
HETATM   18  C   UNK A   0      -7.980  14.857  67.393  1.00  0.00    -0.199 C  
BRANCH  18  19
HETATM   19  N   UNK A   0      -8.547  13.761  66.582  1.00  0.00    -0.445 NA 
HETATM   20  H   UNK A   0      -8.765  13.887  65.593  1.00  0.00     0.000 HD 
BRANCH  19  21
HETATM   21  C   UNK A   0      -8.772  12.539  67.233  1.00  0.00    -0.193 A  
HETATM   22  C   UNK A   0     -10.043  10.462  67.313  1.00  0.00    -0.244 A  
HETATM   23  C   UNK A   0      -9.284  10.037  68.404  1.00  0.00    -0.131 A  
HETATM   24  C   UNK A   0      -8.113  12.156  68.405  1.00  0.00    -0.149 A  
HETATM   25  C   UNK A   0      -9.791  11.713  66.743  1.00  0.00    -0.222 A  
HETATM   26  C   UNK A   0      -8.354  10.907  68.982  1.00  0.00    -0.118 A  
BRANCH  23  27
HETATM   27  C   UNK A   0      -9.486   8.670  68.950  1.00  0.00    -0.146 C  
ATOM     28  H   GLU A   1      -9.766   9.460  70.859  1.00  0.00     0.000 HD 
ATOM     29  N   GLU A   1      -9.699   8.598  70.317  1.00  0.00    -0.170 N  
HETATM   30  O   UNK A   0      -9.485   7.690  68.222  1.00  0.00    -0.145 OA 
BRANCH  29  31
ATOM     31  CA  GLU A   1      -9.833   7.297  71.007  1.00  0.00    -0.183 C  
ATOM     32  C   GLU A   1     -10.874   7.408  72.147  1.00  0.00    -0.235 C  
ATOM     33  O   GLU A   1     -11.357   8.658  72.330  1.00  0.00    -0.359 OA 
ATOM     34  OXT GLU A   1     -11.210   6.477  72.866  1.00  0.00    -0.242 OA 
BRANCH  31  35
ATOM     35  CB  GLU A   1      -8.463   6.847  71.545  1.00  0.00    -0.114 C  
BRANCH  35  36
ATOM     36  CG  GLU A   1      -7.729   5.870  70.619  1.00  0.00    -0.097 C  
ATOM     37  CD  GLU A   1      -6.258   6.178  70.494  1.00  0.00    -0.035 C  
ATOM     38  OE2 GLU A   1      -5.684   7.110  71.032  1.00  0.00    -0.030 OA 
ATOM     39  OE1 GLU A   1      -5.618   5.278  69.704  1.00  0.00    -0.010 OA 
ENDBRANCH  35  36
ENDBRANCH  31  35
ENDBRANCH  29  31
ENDBRANCH  23  27
ENDBRANCH  19  21
ENDBRANCH  18  19
ENDBRANCH   3  18
TORSDOF 7
ENDMDL
MODEL      138
REMARK 921   NORMALIZED FREE ENERGY PREDICTED BY IDOCK:   -5.40 KCAL/MOL
REMARK 922        TOTAL FREE ENERGY PREDICTED BY IDOCK:   -8.84 KCAL/MOL
REMARK 923 INTER-LIGAND FREE ENERGY PREDICTED BY IDOCK:   -8.01 KCAL/MOL
REMARK 924 INTRA-LIGAND FREE ENERGY PREDICTED BY IDOCK:   -0.83 KCAL/MOL
REMARK 927      BINDING AFFINITY PREDICTED BY RF-SCORE:    0.00 PKD
ROOT
HETATM    1  C   UNK A   0     -10.714  18.424  65.513  1.00  0.00     0.085 C  
HETATM    2  N   UNK A   0     -10.046  17.193  65.908  1.00  0.00    -0.532 NA 
HETATM    3  C   UNK A   0      -9.138  17.236  67.091  1.00  0.00    -0.227 C  
HETATM    4  O   UNK A   0     -12.156  16.600  63.954  1.00  0.00    -0.692 OA 
HETATM    5  C   UNK A   0      -7.907  16.343  66.793  1.00  0.00    -0.266 C  
HETATM    6  C   UNK A   0     -10.946  13.433  64.382  1.00  0.00    -0.395 C  
HETATM    7  N   UNK A   0      -8.311  15.008  66.318  1.00  0.00    -0.296 NA 
HETATM    8  H   UNK A   0      -7.751  14.189  66.555  1.00  0.00     0.000 HD 
HETATM    9  H2  UNK A   0     -12.045  11.874  63.614  1.00  0.00     0.000 HD 
HETATM   10  C   UNK A   0      -9.460  14.870  65.542  1.00  0.00    -0.009 C  
HETATM   11  H   UNK A   0     -12.642  14.128  63.549  1.00  0.00     0.000 HD 
HETATM   12  C   UNK A   0     -10.271  15.930  65.294  1.00  0.00    -0.251 C  
HETATM   13  H1  UNK A   0     -10.528  11.399  64.371  1.00  0.00     0.000 HD 
HETATM   14  C   UNK A   0     -11.471  15.667  64.366  1.00  0.00    -0.262 C  
HETATM   15  N   UNK A   0      -9.793  13.643  65.050  1.00  0.00    -0.600 NA 
HETATM   16  N   UNK A   0     -11.186  12.130  64.103  1.00  0.00    -0.340 NA 
HETATM   17  N   UNK A   0     -11.779  14.357  64.043  1.00  0.00    -0.665 N  
ENDROOT
BRANCH   3  18
HETATM   18  C   UNK A   0      -9.888  16.765  68.367  1.00  0.00    -0.253 C  
BRANCH  18  19
HETATM   19  N   UNK A   0      -9.106  15.762  69.116  1.00  0.00    -0.246 NA 
HETATM   20  H   UNK A   0      -8.359  16.036  69.754  1.00  0.00     0.000 HD 
BRANCH  19  21
HETATM   21  C   UNK A   0      -9.437  14.415  68.910  1.00  0.00    -0.107 A  
HETATM   22  C   UNK A   0     -11.200  12.751  68.663  1.00  0.00    -0.322 A  
HETATM   23  C   UNK A   0     -10.240  11.762  68.443  1.00  0.00    -0.208 A  
HETATM   24  C   UNK A   0      -8.488  13.392  68.820  1.00  0.00     0.103 A  
HETATM   25  C   UNK A   0     -10.794  14.066  68.907  1.00  0.00    -0.278 A  
HETATM   26  C   UNK A   0      -8.883  12.074  68.574  1.00  0.00    -0.095 A  
BRANCH  23  27
HETATM   27  C   UNK A   0     -10.673  10.386  68.091  1.00  0.00    -0.236 C  
ATOM     28  H   GLU A   1      -9.880   9.665  69.879  1.00  0.00     0.000 HD 
ATOM     29  N   GLU A   1     -10.338   9.401  69.007  1.00  0.00    -0.205 N  
HETATM   30  O   UNK A   0     -11.301  10.162  67.068  1.00  0.00    -0.122 OA 
BRANCH  29  31
ATOM     31  CA  GLU A   1     -10.633   7.976  68.745  1.00  0.00    -0.118 C  
ATOM     32  C   GLU A   1     -11.282   7.333  69.993  1.00  0.00    -0.209 C  
ATOM     33  O   GLU A   1     -11.354   8.159  71.063  1.00  0.00    -0.262 OA 
ATOM     34  OXT GLU A   1     -11.660   6.171  70.053  1.00  0.00    -0.392 OA 
BRANCH  31  35
ATOM     35  CB  GLU A   1      -9.341   7.239  68.347  1.00  0.00    -0.143 C  
BRANCH  35  36
ATOM     36  CG  GLU A   1      -9.085   7.219  66.835  1.00  0.00    -0.162 C  
ATOM     37  CD  GLU A   1      -8.069   8.245  66.402  1.00  0.00    -0.105 C  
ATOM     38  OE2 GLU A   1      -7.512   9.042  67.139  1.00  0.00    -0.086 OA 
ATOM     39  OE1 GLU A   1      -7.825   8.184  65.068  1.00  0.00    -0.112 OA 
ENDBRANCH  35  36
ENDBRANCH  31  35
ENDBRANCH  29  31
ENDBRANCH  23  27
ENDBRANCH  19  21
ENDBRANCH  18  19
ENDBRANCH   3  18
TORSDOF 7
ENDMDL
MODEL      139
REMARK 921   NORMALIZED FREE ENERGY PREDICTED BY IDOCK:   -5.39 KCAL/MOL
REMARK 922        TOTAL FREE ENERGY PREDICTED BY IDOCK:   -8.83 KCAL/MOL
REMARK 923 INTER-LIGAND FREE ENERGY PREDICTED BY IDOCK:   -7.83 KCAL/MOL
REMARK 924 INTRA-LIGAND FREE ENERGY PREDICTED BY IDOCK:   -1.00 KCAL/MOL
REMARK 927      BINDING AFFINITY PREDICTED BY RF-SCORE:    0.00 PKD
ROOT
HETATM    1  C   UNK A   0      -8.539   3.157  62.397  1.00  0.00    -0.074 C  
HETATM    2  N   UNK A   0      -8.161   4.134  63.409  1.00  0.00    -0.089 NA 
HETATM    3  C   UNK A   0      -6.869   4.858  63.236  1.00  0.00    -0.038 C  
HETATM    4  O   UNK A   0     -10.973   3.364  63.766  1.00  0.00    -0.271 OA 
HETATM    5  C   UNK A   0      -6.204   5.007  64.629  1.00  0.00    -0.030 C  
HETATM    6  C   UNK A   0     -10.687   5.509  66.410  1.00  0.00    -0.194 C  
HETATM    7  N   UNK A   0      -7.145   5.558  65.619  1.00  0.00    -0.066 NA 
HETATM    8  H   UNK A   0      -6.806   6.170  66.362  1.00  0.00     0.000 HD 
HETATM    9  H2  UNK A   0     -12.412   6.091  67.364  1.00  0.00     0.000 HD 
HETATM   10  C   UNK A   0      -8.499   5.240  65.538  1.00  0.00    -0.141 C  
HETATM   11  H   UNK A   0     -12.288   4.703  65.493  1.00  0.00     0.000 HD 
HETATM   12  C   UNK A   0      -8.987   4.506  64.505  1.00  0.00    -0.152 C  
HETATM   13  H1  UNK A   0     -10.931   6.727  68.074  1.00  0.00     0.000 HD 
HETATM   14  C   UNK A   0     -10.485   4.160  64.564  1.00  0.00    -0.157 C  
HETATM   15  N   UNK A   0      -9.354   5.700  66.496  1.00  0.00    -0.145 NA 
HETATM   16  N   UNK A   0     -11.394   6.163  67.361  1.00  0.00    -0.550 NA 
HETATM   17  N   UNK A   0     -11.272   4.796  65.509  1.00  0.00    -0.968 N  
ENDROOT
BRANCH   3  18
HETATM   18  C   UNK A   0      -7.107   6.239  62.569  1.00  0.00    -0.043 C  
BRANCH  18  19
HETATM   19  N   UNK A   0      -6.368   7.312  63.264  1.00  0.00    -0.052 NA 
HETATM   20  H   UNK A   0      -5.349   7.330  63.284  1.00  0.00     0.000 HD 
BRANCH  19  21
HETATM   21  C   UNK A   0      -7.133   8.304  63.895  1.00  0.00    -0.087 A  
HETATM   22  C   UNK A   0      -7.371   9.812  65.794  1.00  0.00    -0.105 A  
HETATM   23  C   UNK A   0      -8.536  10.338  65.234  1.00  0.00    -0.168 A  
HETATM   24  C   UNK A   0      -8.369   8.747  63.416  1.00  0.00    -0.157 A  
HETATM   25  C   UNK A   0      -6.684   8.793  65.129  1.00  0.00    -0.064 A  
HETATM   26  C   UNK A   0      -9.063   9.768  64.070  1.00  0.00    -0.280 A  
BRANCH  23  27
HETATM   27  C   UNK A   0      -9.212  11.485  65.892  1.00  0.00    -0.210 C  
ATOM     28  H   GLU A   1     -10.744  11.408  64.479  1.00  0.00     0.000 HD 
ATOM     29  N   GLU A   1     -10.381  11.917  65.286  1.00  0.00    -0.265 N  
HETATM   30  O   UNK A   0      -8.764  11.985  66.912  1.00  0.00    -0.184 OA 
BRANCH  29  31
ATOM     31  CA  GLU A   1     -11.114  13.101  65.785  1.00  0.00    -0.273 C  
ATOM     32  C   GLU A   1     -12.452  13.253  65.024  1.00  0.00    -0.443 C  
ATOM     33  O   GLU A   1     -12.623  12.356  64.026  1.00  0.00    -0.592 OA 
ATOM     34  OXT GLU A   1     -13.278  14.128  65.249  1.00  0.00    -0.760 OA 
BRANCH  31  35
ATOM     35  CB  GLU A   1     -10.240  14.359  65.633  1.00  0.00    -0.371 C  
BRANCH  35  36
ATOM     36  CG  GLU A   1     -10.359  15.336  66.809  1.00  0.00    -0.279 C  
ATOM     37  CD  GLU A   1      -9.018  15.794  67.325  1.00  0.00    -0.196 C  
ATOM     38  OE2 GLU A   1      -7.935  15.427  66.899  1.00  0.00    -0.218 OA 
ATOM     39  OE1 GLU A   1      -9.144  16.690  68.337  1.00  0.00    -0.211 OA 
ENDBRANCH  35  36
ENDBRANCH  31  35
ENDBRANCH  29  31
ENDBRANCH  23  27
ENDBRANCH  19  21
ENDBRANCH  18  19
ENDBRANCH   3  18
TORSDOF 7
ENDMDL
MODEL      140
REMARK 921   NORMALIZED FREE ENERGY PREDICTED BY IDOCK:   -5.35 KCAL/MOL
REMARK 922        TOTAL FREE ENERGY PREDICTED BY IDOCK:   -8.77 KCAL/MOL
REMARK 923 INTER-LIGAND FREE ENERGY PREDICTED BY IDOCK:   -8.17 KCAL/MOL
REMARK 924 INTRA-LIGAND FREE ENERGY PREDICTED BY IDOCK:   -0.60 KCAL/MOL
REMARK 927      BINDING AFFINITY PREDICTED BY RF-SCORE:    0.00 PKD
ROOT
HETATM    1  C   UNK A   0      -6.602  19.626  69.801  1.00  0.00    -0.301 C  
HETATM    2  N   UNK A   0      -6.682  19.622  68.348  1.00  0.00    -0.277 NA 
HETATM    3  C   UNK A   0      -5.446  19.304  67.578  1.00  0.00    -0.170 C  
HETATM    4  O   UNK A   0      -9.384  19.706  69.496  1.00  0.00    -0.118 OA 
HETATM    5  C   UNK A   0      -5.397  20.224  66.332  1.00  0.00    -0.169 C  
HETATM    6  C   UNK A   0     -10.227  19.823  66.188  1.00  0.00    -0.516 C  
HETATM    7  N   UNK A   0      -6.667  20.191  65.587  1.00  0.00    -0.252 NA 
HETATM    8  H   UNK A   0      -6.667  20.282  64.571  1.00  0.00     0.000 HD 
HETATM    9  H2  UNK A   0     -12.203  19.547  65.690  1.00  0.00     0.000 HD 
HETATM   10  C   UNK A   0      -7.868  20.035  66.275  1.00  0.00    -0.298 C  
HETATM   11  H   UNK A   0     -11.310  19.449  67.843  1.00  0.00     0.000 HD 
HETATM   12  C   UNK A   0      -7.885  19.817  67.615  1.00  0.00    -0.291 C  
HETATM   13  H1  UNK A   0     -11.144  19.887  64.325  1.00  0.00     0.000 HD 
HETATM   14  C   UNK A   0      -9.274  19.732  68.273  1.00  0.00    -0.311 C  
HETATM   15  N   UNK A   0      -9.044  20.071  65.587  1.00  0.00    -0.465 NA 
HETATM   16  N   UNK A   0     -11.271  19.748  65.328  1.00  0.00    -0.113 NA 
HETATM   17  N   UNK A   0     -10.387  19.646  67.454  1.00  0.00    -0.424 N  
ENDROOT
BRANCH   3  18
HETATM   18  C   UNK A   0      -5.427  17.803  67.179  1.00  0.00    -0.141 C  
BRANCH  18  19
HETATM   19  N   UNK A   0      -6.648  17.423  66.441  1.00  0.00    -0.237 NA 
HETATM   20  H   UNK A   0      -6.985  17.972  65.650  1.00  0.00     0.000 HD 
BRANCH  19  21
HETATM   21  C   UNK A   0      -7.323  16.273  66.878  1.00  0.00    -0.231 A  
HETATM   22  C   UNK A   0      -9.349  14.923  66.781  1.00  0.00    -0.270 A  
HETATM   23  C   UNK A   0      -8.763  13.979  67.624  1.00  0.00    -0.189 A  
HETATM   24  C   UNK A   0      -6.802  15.387  67.825  1.00  0.00    -0.188 A  
HETATM   25  C   UNK A   0      -8.632  16.069  66.423  1.00  0.00    -0.369 A  
HETATM   26  C   UNK A   0      -7.509  14.237  68.188  1.00  0.00    -0.131 A  
BRANCH  23  27
HETATM   27  C   UNK A   0      -9.487  12.718  67.928  1.00  0.00    -0.208 C  
ATOM     28  H   GLU A   1      -8.320  11.697  66.533  1.00  0.00     0.000 HD 
ATOM     29  N   GLU A   1      -9.099  11.613  67.187  1.00  0.00    -0.167 N  
HETATM   30  O   UNK A   0     -10.347  12.674  68.793  1.00  0.00    -0.202 OA 
BRANCH  29  31
ATOM     31  CA  GLU A   1      -9.790  10.313  67.326  1.00  0.00    -0.182 C  
ATOM     32  C   GLU A   1      -8.766   9.203  67.658  1.00  0.00    -0.120 C  
ATOM     33  O   GLU A   1      -7.480   9.623  67.656  1.00  0.00    -0.090 OA 
ATOM     34  OXT GLU A   1      -9.059   8.032  67.858  1.00  0.00    -0.132 OA 
BRANCH  31  35
ATOM     35  CB  GLU A   1     -10.563   9.991  66.034  1.00  0.00    -0.045 C  
BRANCH  35  36
ATOM     36  CG  GLU A   1     -10.241  10.939  64.873  1.00  0.00    -0.381 C  
ATOM     37  CD  GLU A   1     -11.321  11.968  64.643  1.00  0.00    -0.318 C  
ATOM     38  OE2 GLU A   1     -12.362  12.049  65.273  1.00  0.00    -0.442 OA 
ATOM     39  OE1 GLU A   1     -10.999  12.823  63.640  1.00  0.00    -0.425 OA 
ENDBRANCH  35  36
ENDBRANCH  31  35
ENDBRANCH  29  31
ENDBRANCH  23  27
ENDBRANCH  19  21
ENDBRANCH  18  19
ENDBRANCH   3  18
TORSDOF 7
ENDMDL
MODEL      141
REMARK 921   NORMALIZED FREE ENERGY PREDICTED BY IDOCK:   -5.33 KCAL/MOL
REMARK 922        TOTAL FREE ENERGY PREDICTED BY IDOCK:   -8.74 KCAL/MOL
REMARK 923 INTER-LIGAND FREE ENERGY PREDICTED BY IDOCK:   -7.72 KCAL/MOL
REMARK 924 INTRA-LIGAND FREE ENERGY PREDICTED BY IDOCK:   -1.02 KCAL/MOL
REMARK 927      BINDING AFFINITY PREDICTED BY RF-SCORE:    0.00 PKD
ROOT
HETATM    1  C   UNK A   0      -9.873   5.455  70.821  1.00  0.00    -0.190 C  
HETATM    2  N   UNK A   0      -9.544   6.872  70.776  1.00  0.00    -0.165 NA 
HETATM    3  C   UNK A   0      -8.163   7.258  70.367  1.00  0.00    -0.125 C  
HETATM    4  O   UNK A   0     -12.449   6.530  71.041  1.00  0.00    -0.252 OA 
HETATM    5  C   UNK A   0      -7.712   8.454  71.244  1.00  0.00    -0.098 C  
HETATM    6  C   UNK A   0     -12.324   9.944  71.100  1.00  0.00    -0.370 C  
HETATM    7  N   UNK A   0      -8.723   9.526  71.256  1.00  0.00    -0.306 NA 
HETATM    8  H   UNK A   0      -8.433  10.502  71.315  1.00  0.00     0.000 HD 
HETATM    9  H2  UNK A   0     -14.095  10.973  70.915  1.00  0.00     0.000 HD 
HETATM   10  C   UNK A   0     -10.075   9.201  71.187  1.00  0.00    -0.314 C  
HETATM   11  H   UNK A   0     -13.848   8.654  70.837  1.00  0.00     0.000 HD 
HETATM   12  C   UNK A   0     -10.480   7.916  71.012  1.00  0.00    -0.203 C  
HETATM   13  H1  UNK A   0     -12.678  11.990  71.155  1.00  0.00     0.000 HD 
HETATM   14  C   UNK A   0     -12.000   7.674  71.023  1.00  0.00    -0.273 C  
HETATM   15  N   UNK A   0     -11.008  10.192  71.265  1.00  0.00    -0.180 NA 
HETATM   16  N   UNK A   0     -13.088  11.061  71.054  1.00  0.00    -0.255 NA 
HETATM   17  N   UNK A   0     -12.843   8.771  70.972  1.00  0.00    -0.499 N  
ENDROOT
BRANCH   3  18
HETATM   18  C   UNK A   0      -8.125   7.614  68.856  1.00  0.00    -0.127 C  
BRANCH  18  19
HETATM   19  N   UNK A   0      -6.953   8.449  68.525  1.00  0.00    -0.067 NA 
HETATM   20  H   UNK A   0      -6.015   8.051  68.464  1.00  0.00     0.000 HD 
BRANCH  19  21
HETATM   21  C   UNK A   0      -7.187   9.813  68.300  1.00  0.00    -0.078 A  
HETATM   22  C   UNK A   0      -6.369  12.098  68.517  1.00  0.00    -0.056 A  
HETATM   23  C   UNK A   0      -7.503  12.570  67.854  1.00  0.00    -0.120 A  
HETATM   24  C   UNK A   0      -8.376  10.313  67.759  1.00  0.00    -0.110 A  
HETATM   25  C   UNK A   0      -6.224  10.727  68.746  1.00  0.00    -0.040 A  
HETATM   26  C   UNK A   0      -8.531  11.681  67.522  1.00  0.00    -0.150 A  
BRANCH  23  27
HETATM   27  C   UNK A   0      -7.613  14.014  67.527  1.00  0.00    -0.180 C  
ATOM     28  H   GLU A   1      -9.657  13.965  67.935  1.00  0.00     0.000 HD 
ATOM     29  N   GLU A   1      -8.888  14.550  67.607  1.00  0.00    -0.179 N  
HETATM   30  O   UNK A   0      -6.629  14.673  67.231  1.00  0.00    -0.290 OA 
BRANCH  29  31
ATOM     31  CA  GLU A   1      -9.158  15.955  67.229  1.00  0.00    -0.205 C  
ATOM     32  C   GLU A   1     -10.431  16.460  67.947  1.00  0.00    -0.307 C  
ATOM     33  O   GLU A   1     -11.067  15.511  68.673  1.00  0.00    -0.264 OA 
ATOM     34  OXT GLU A   1     -10.875  17.595  67.845  1.00  0.00    -0.374 OA 
BRANCH  31  35
ATOM     35  CB  GLU A   1      -9.298  16.066  65.700  1.00  0.00    -0.124 C  
BRANCH  35  36
ATOM     36  CG  GLU A   1     -10.750  15.996  65.209  1.00  0.00    -0.417 C  
ATOM     37  CD  GLU A   1     -11.092  14.665  64.587  1.00  0.00    -0.334 C  
ATOM     38  OE2 GLU A   1     -10.317  13.733  64.446  1.00  0.00    -0.415 OA 
ATOM     39  OE1 GLU A   1     -12.390  14.606  64.198  1.00  0.00    -0.654 OA 
ENDBRANCH  35  36
ENDBRANCH  31  35
ENDBRANCH  29  31
ENDBRANCH  23  27
ENDBRANCH  19  21
ENDBRANCH  18  19
ENDBRANCH   3  18
TORSDOF 7
ENDMDL
MODEL      142
REMARK 921   NORMALIZED FREE ENERGY PREDICTED BY IDOCK:   -5.33 KCAL/MOL
REMARK 922        TOTAL FREE ENERGY PREDICTED BY IDOCK:   -8.74 KCAL/MOL
REMARK 923 INTER-LIGAND FREE ENERGY PREDICTED BY IDOCK:   -8.14 KCAL/MOL
REMARK 924 INTRA-LIGAND FREE ENERGY PREDICTED BY IDOCK:   -0.60 KCAL/MOL
REMARK 927      BINDING AFFINITY PREDICTED BY RF-SCORE:    0.00 PKD
ROOT
HETATM    1  C   UNK A   0     -12.751   7.801  71.511  1.00  0.00    -0.332 C  
HETATM    2  N   UNK A   0     -11.579   8.501  71.007  1.00  0.00    -0.278 NA 
HETATM    3  C   UNK A   0     -11.759   9.431  69.855  1.00  0.00     0.151 C  
HETATM    4  O   UNK A   0     -10.956   7.246  73.587  1.00  0.00    -0.294 OA 
HETATM    5  C   UNK A   0     -10.538   9.284  68.913  1.00  0.00    -0.199 C  
HETATM    6  C   UNK A   0      -7.886   8.583  72.912  1.00  0.00    -0.002 C  
HETATM    7  N   UNK A   0      -9.269   9.388  69.654  1.00  0.00    -0.172 NA 
HETATM    8  H   UNK A   0      -8.452   9.811  69.214  1.00  0.00     0.000 HD 
HETATM    9  H2  UNK A   0      -6.495   8.607  74.426  1.00  0.00     0.000 HD 
HETATM   10  C   UNK A   0      -9.189   8.904  70.958  1.00  0.00    -0.245 C  
HETATM   11  H   UNK A   0      -8.689   7.833  74.599  1.00  0.00     0.000 HD 
HETATM   12  C   UNK A   0     -10.287   8.422  71.596  1.00  0.00    -0.243 C  
HETATM   13  H1  UNK A   0      -5.915   9.236  72.887  1.00  0.00     0.000 HD 
HETATM   14  C   UNK A   0     -10.059   7.851  73.007  1.00  0.00    -0.317 C  
HETATM   15  N   UNK A   0      -7.996   8.943  71.616  1.00  0.00    -0.326 NA 
HETATM   16  N   UNK A   0      -6.666   8.831  73.445  1.00  0.00    -0.326 NA 
HETATM   17  N   UNK A   0      -8.835   8.071  73.617  1.00  0.00    -0.268 N  
ENDROOT
BRANCH   3  18
HETATM   18  C   UNK A   0     -11.917  10.892  70.358  1.00  0.00    -0.362 C  
BRANCH  18  19
HETATM   19  N   UNK A   0     -12.183  11.824  69.244  1.00  0.00    -0.208 NA 
HETATM   20  H   UNK A   0     -12.907  11.633  68.551  1.00  0.00     0.000 HD 
BRANCH  19  21
HETATM   21  C   UNK A   0     -11.394  12.982  69.182  1.00  0.00    -0.273 A  
HETATM   22  C   UNK A   0      -9.529  14.138  68.123  1.00  0.00    -0.213 A  
HETATM   23  C   UNK A   0      -9.775  15.263  68.911  1.00  0.00    -0.220 A  
HETATM   24  C   UNK A   0     -11.542  14.064  70.054  1.00  0.00    -0.302 A  
HETATM   25  C   UNK A   0     -10.330  13.002  68.271  1.00  0.00    -0.256 A  
HETATM   26  C   UNK A   0     -10.749  15.206  69.914  1.00  0.00    -0.274 A  
BRANCH  23  27
HETATM   27  C   UNK A   0      -8.987  16.501  68.688  1.00  0.00    -0.236 C  
ATOM     28  H   GLU A   1     -10.464  17.226  67.407  1.00  0.00     0.000 HD 
ATOM     29  N   GLU A   1      -9.543  17.412  67.804  1.00  0.00    -0.259 N  
HETATM   30  O   UNK A   0      -7.933  16.696  69.272  1.00  0.00    -0.204 OA 
BRANCH  29  31
ATOM     31  CA  GLU A   1      -8.827  18.651  67.424  1.00  0.00    -0.272 C  
ATOM     32  C   GLU A   1      -9.830  19.821  67.294  1.00  0.00    -0.384 C  
ATOM     33  O   GLU A   1     -11.124  19.457  67.454  1.00  0.00    -0.445 OA 
ATOM     34  OXT GLU A   1      -9.516  20.971  67.021  1.00  0.00    -0.266 OA 
BRANCH  31  35
ATOM     35  CB  GLU A   1      -8.057  18.428  66.110  1.00  0.00    -0.201 C  
BRANCH  35  36
ATOM     36  CG  GLU A   1      -7.201  17.155  66.107  1.00  0.00    -0.253 C  
ATOM     37  CD  GLU A   1      -5.927  17.306  66.902  1.00  0.00    -0.179 C  
ATOM     38  OE2 GLU A   1      -5.569  18.323  67.473  1.00  0.00    -0.144 OA 
ATOM     39  OE1 GLU A   1      -5.205  16.158  66.923  1.00  0.00    -0.333 OA 
ENDBRANCH  35  36
ENDBRANCH  31  35
ENDBRANCH  29  31
ENDBRANCH  23  27
ENDBRANCH  19  21
ENDBRANCH  18  19
ENDBRANCH   3  18
TORSDOF 7
ENDMDL
MODEL      143
REMARK 921   NORMALIZED FREE ENERGY PREDICTED BY IDOCK:   -5.32 KCAL/MOL
REMARK 922        TOTAL FREE ENERGY PREDICTED BY IDOCK:   -8.73 KCAL/MOL
REMARK 923 INTER-LIGAND FREE ENERGY PREDICTED BY IDOCK:   -7.23 KCAL/MOL
REMARK 924 INTRA-LIGAND FREE ENERGY PREDICTED BY IDOCK:   -1.50 KCAL/MOL
REMARK 927      BINDING AFFINITY PREDICTED BY RF-SCORE:    0.00 PKD
ROOT
HETATM    1  C   UNK A   0      -9.945   4.478  72.574  1.00  0.00    -0.170 C  
HETATM    2  N   UNK A   0     -10.735   5.470  71.859  1.00  0.00    -0.233 NA 
HETATM    3  C   UNK A   0     -11.562   6.418  72.661  1.00  0.00    -0.158 C  
HETATM    4  O   UNK A   0      -8.827   4.202  70.022  1.00  0.00    -0.071 OA 
HETATM    5  C   UNK A   0     -12.908   6.634  71.923  1.00  0.00    -0.160 C  
HETATM    6  C   UNK A   0     -10.389   6.270  67.796  1.00  0.00    -0.195 C  
HETATM    7  N   UNK A   0     -12.698   6.975  70.506  1.00  0.00    -0.559 NA 
HETATM    8  H   UNK A   0     -13.339   7.611  70.032  1.00  0.00     0.000 HD 
HETATM    9  H2  UNK A   0      -9.535   6.504  65.940  1.00  0.00     0.000 HD 
HETATM   10  C   UNK A   0     -11.621   6.425  69.815  1.00  0.00    -0.327 C  
HETATM   11  H   UNK A   0      -8.671   5.226  67.690  1.00  0.00     0.000 HD 
HETATM   12  C   UNK A   0     -10.701   5.652  70.449  1.00  0.00    -0.282 C  
HETATM   13  H1  UNK A   0     -11.053   7.367  66.162  1.00  0.00     0.000 HD 
HETATM   14  C   UNK A   0      -9.597   5.044  69.566  1.00  0.00    -0.167 C  
HETATM   15  N   UNK A   0     -11.469   6.692  68.487  1.00  0.00    -0.559 NA 
HETATM   16  N   UNK A   0     -10.326   6.755  66.533  1.00  0.00    -0.464 NA 
HETATM   17  N   UNK A   0      -9.470   5.497  68.264  1.00  0.00    -0.111 N  
ENDROOT
BRANCH   3  18
HETATM   18  C   UNK A   0     -10.805   7.757  72.867  1.00  0.00    -0.392 C  
BRANCH  18  19
HETATM   19  N   UNK A   0     -11.560   8.898  72.312  1.00  0.00    -0.325 NA 
HETATM   20  H   UNK A   0     -12.452   9.191  72.711  1.00  0.00     0.000 HD 
BRANCH  19  21
HETATM   21  C   UNK A   0     -10.995   9.560  71.212  1.00  0.00    -0.370 A  
HETATM   22  C   UNK A   0      -9.075   9.806  69.731  1.00  0.00    -0.246 A  
HETATM   23  C   UNK A   0      -9.768  10.762  68.987  1.00  0.00    -0.201 A  
HETATM   24  C   UNK A   0     -11.622  10.612  70.538  1.00  0.00    -0.444 A  
HETATM   25  C   UNK A   0      -9.687   9.221  70.843  1.00  0.00    -0.346 A  
HETATM   26  C   UNK A   0     -11.022  11.203  69.423  1.00  0.00    -0.298 A  
BRANCH  23  27
HETATM   27  C   UNK A   0      -9.157  11.314  67.752  1.00  0.00    -0.152 C  
ATOM     28  H   GLU A   1      -7.455  10.149  68.058  1.00  0.00     0.000 HD 
ATOM     29  N   GLU A   1      -7.879  10.861  67.464  1.00  0.00    -0.112 N  
HETATM   30  O   UNK A   0      -9.765  12.095  67.038  1.00  0.00    -0.197 OA 
BRANCH  29  31
ATOM     31  CA  GLU A   1      -7.118  11.389  66.310  1.00  0.00     0.075 C  
ATOM     32  C   GLU A   1      -6.944  10.284  65.242  1.00  0.00    -0.130 C  
ATOM     33  O   GLU A   1      -7.425   9.076  65.617  1.00  0.00    -0.085 OA 
ATOM     34  OXT GLU A   1      -6.381  10.446  64.168  1.00  0.00    -0.119 OA 
BRANCH  31  35
ATOM     35  CB  GLU A   1      -5.755  11.926  66.784  1.00  0.00    -0.060 C  
BRANCH  35  36
ATOM     36  CG  GLU A   1      -5.611  11.975  68.310  1.00  0.00    -0.051 C  
ATOM     37  CD  GLU A   1      -5.990  13.315  68.890  1.00  0.00    -0.079 C  
ATOM     38  OE2 GLU A   1      -6.349  14.287  68.244  1.00  0.00    -0.096 OA 
ATOM     39  OE1 GLU A   1      -5.897  13.326  70.243  1.00  0.00    -0.143 OA 
ENDBRANCH  35  36
ENDBRANCH  31  35
ENDBRANCH  29  31
ENDBRANCH  23  27
ENDBRANCH  19  21
ENDBRANCH  18  19
ENDBRANCH   3  18
TORSDOF 7
ENDMDL
MODEL      144
REMARK 921   NORMALIZED FREE ENERGY PREDICTED BY IDOCK:   -5.31 KCAL/MOL
REMARK 922        TOTAL FREE ENERGY PREDICTED BY IDOCK:   -8.72 KCAL/MOL
REMARK 923 INTER-LIGAND FREE ENERGY PREDICTED BY IDOCK:   -7.31 KCAL/MOL
REMARK 924 INTRA-LIGAND FREE ENERGY PREDICTED BY IDOCK:   -1.40 KCAL/MOL
REMARK 927      BINDING AFFINITY PREDICTED BY RF-SCORE:    0.00 PKD
ROOT
HETATM    1  C   UNK A   0      -7.978   3.807  62.667  1.00  0.00    -0.070 C  
HETATM    2  N   UNK A   0      -7.708   4.750  63.742  1.00  0.00    -0.071 NA 
HETATM    3  C   UNK A   0      -7.002   6.019  63.401  1.00  0.00    -0.045 C  
HETATM    4  O   UNK A   0      -9.588   2.694  64.669  1.00  0.00    -0.151 OA 
HETATM    5  C   UNK A   0      -6.005   6.344  64.542  1.00  0.00    -0.023 C  
HETATM    6  C   UNK A   0      -9.290   4.466  67.575  1.00  0.00    -0.154 C  
HETATM    7  N   UNK A   0      -6.658   6.284  65.862  1.00  0.00    -0.046 NA 
HETATM    8  H   UNK A   0      -6.363   6.915  66.608  1.00  0.00     0.000 HD 
HETATM    9  H2  UNK A   0     -10.621   4.058  69.088  1.00  0.00     0.000 HD 
HETATM   10  C   UNK A   0      -7.678   5.362  66.087  1.00  0.00    -0.092 C  
HETATM   11  H   UNK A   0     -10.616   3.074  66.972  1.00  0.00     0.000 HD 
HETATM   12  C   UNK A   0      -8.150   4.579  65.083  1.00  0.00    -0.103 C  
HETATM   13  H1  UNK A   0      -9.400   5.262  69.489  1.00  0.00     0.000 HD 
HETATM   14  C   UNK A   0      -9.228   3.552  65.471  1.00  0.00    -0.156 C  
HETATM   15  N   UNK A   0      -8.232   5.266  67.328  1.00  0.00    -0.104 NA 
HETATM   16  N   UNK A   0      -9.807   4.611  68.818  1.00  0.00    -0.157 NA 
HETATM   17  N   UNK A   0      -9.805   3.643  66.726  1.00  0.00    -0.383 N  
ENDROOT
BRANCH   3  18
HETATM   18  C   UNK A   0      -8.025   7.169  63.193  1.00  0.00    -0.079 C  
BRANCH  18  19
HETATM   19  N   UNK A   0      -7.560   8.426  63.811  1.00  0.00    -0.127 NA 
HETATM   20  H   UNK A   0      -6.577   8.695  63.797  1.00  0.00     0.000 HD 
BRANCH  19  21
HETATM   21  C   UNK A   0      -8.533   9.233  64.419  1.00  0.00    -0.188 A  
HETATM   22  C   UNK A   0      -9.852   9.706  66.413  1.00  0.00    -0.309 A  
HETATM   23  C   UNK A   0     -10.425  10.807  65.776  1.00  0.00    -0.256 A  
HETATM   24  C   UNK A   0      -9.213  10.257  63.753  1.00  0.00    -0.312 A  
HETATM   25  C   UNK A   0      -8.921   8.920  65.728  1.00  0.00    -0.249 A  
HETATM   26  C   UNK A   0     -10.144  11.051  64.428  1.00  0.00    -0.393 A  
BRANCH  23  27
HETATM   27  C   UNK A   0     -11.341  11.697  66.533  1.00  0.00    -0.263 C  
ATOM     28  H   GLU A   1     -10.214  11.407  68.264  1.00  0.00     0.000 HD 
ATOM     29  N   GLU A   1     -11.050  11.849  67.880  1.00  0.00    -0.226 N  
HETATM   30  O   UNK A   0     -12.270  12.267  65.983  1.00  0.00    -0.646 OA 
BRANCH  29  31
ATOM     31  CA  GLU A   1     -11.926  12.639  68.772  1.00  0.00    -0.237 C  
ATOM     32  C   GLU A   1     -11.509  14.129  68.737  1.00  0.00    -0.299 C  
ATOM     33  O   GLU A   1     -10.404  14.374  67.995  1.00  0.00    -0.223 OA 
ATOM     34  OXT GLU A   1     -12.078  15.019  69.354  1.00  0.00    -0.295 OA 
BRANCH  31  35
ATOM     35  CB  GLU A   1     -11.859  12.076  70.203  1.00  0.00    -0.383 C  
BRANCH  35  36
ATOM     36  CG  GLU A   1     -12.521  10.701  70.354  1.00  0.00    -0.421 C  
ATOM     37  CD  GLU A   1     -11.535   9.614  70.701  1.00  0.00    -0.306 C  
ATOM     38  OE2 GLU A   1     -10.331   9.767  70.827  1.00  0.00    -0.294 OA 
ATOM     39  OE1 GLU A   1     -12.144   8.413  70.872  1.00  0.00    -0.253 OA 
ENDBRANCH  35  36
ENDBRANCH  31  35
ENDBRANCH  29  31
ENDBRANCH  23  27
ENDBRANCH  19  21
ENDBRANCH  18  19
ENDBRANCH   3  18
TORSDOF 7
ENDMDL
MODEL      145
REMARK 921   NORMALIZED FREE ENERGY PREDICTED BY IDOCK:   -5.31 KCAL/MOL
REMARK 922        TOTAL FREE ENERGY PREDICTED BY IDOCK:   -8.71 KCAL/MOL
REMARK 923 INTER-LIGAND FREE ENERGY PREDICTED BY IDOCK:   -7.53 KCAL/MOL
REMARK 924 INTRA-LIGAND FREE ENERGY PREDICTED BY IDOCK:   -1.18 KCAL/MOL
REMARK 927      BINDING AFFINITY PREDICTED BY RF-SCORE:    0.00 PKD
ROOT
HETATM    1  C   UNK A   0      -8.256  12.334  68.019  1.00  0.00    -0.163 C  
HETATM    2  N   UNK A   0      -8.793  11.206  67.274  1.00  0.00    -0.143 NA 
HETATM    3  C   UNK A   0     -10.253  10.924  67.382  1.00  0.00    -0.201 C  
HETATM    4  O   UNK A   0      -6.062  11.792  66.367  1.00  0.00    -0.130 OA 
HETATM    5  C   UNK A   0     -10.452   9.388  67.432  1.00  0.00    -0.278 C  
HETATM    6  C   UNK A   0      -6.692   9.081  64.384  1.00  0.00    -0.079 C  
HETATM    7  N   UNK A   0      -9.728   8.715  66.339  1.00  0.00    -0.249 NA 
HETATM    8  H   UNK A   0     -10.113   7.872  65.913  1.00  0.00     0.000 HD 
HETATM    9  H2  UNK A   0      -5.380   8.688  62.851  1.00  0.00     0.000 HD 
HETATM   10  C   UNK A   0      -8.515   9.234  65.892  1.00  0.00    -0.132 C  
HETATM   11  H   UNK A   0      -5.261  10.497  64.320  1.00  0.00     0.000 HD 
HETATM   12  C   UNK A   0      -8.030  10.405  66.379  1.00  0.00    -0.130 C  
HETATM   13  H1  UNK A   0      -6.683   7.516  63.019  1.00  0.00     0.000 HD 
HETATM   14  C   UNK A   0      -6.649  10.839  65.859  1.00  0.00    -0.090 C  
HETATM   15  N   UNK A   0      -7.818   8.571  64.926  1.00  0.00    -0.111 NA 
HETATM   16  N   UNK A   0      -6.219   8.368  63.336  1.00  0.00    -0.077 NA 
HETATM   17  N   UNK A   0      -6.105  10.157  64.784  1.00  0.00    -0.118 N  
ENDROOT
BRANCH   3  18
HETATM   18  C   UNK A   0     -11.018  11.558  66.189  1.00  0.00    -0.266 C  
BRANCH  18  19
HETATM   19  N   UNK A   0     -11.931  12.629  66.636  1.00  0.00    -0.529 NA 
HETATM   20  H   UNK A   0     -12.816  12.416  67.097  1.00  0.00     0.000 HD 
BRANCH  19  21
HETATM   21  C   UNK A   0     -11.526  13.950  66.398  1.00  0.00    -0.344 A  
HETATM   22  C   UNK A   0     -10.660  16.030  67.327  1.00  0.00    -0.313 A  
HETATM   23  C   UNK A   0     -10.630  16.591  66.051  1.00  0.00    -0.259 A  
HETATM   24  C   UNK A   0     -11.616  14.571  65.148  1.00  0.00    -0.371 A  
HETATM   25  C   UNK A   0     -11.118  14.719  67.495  1.00  0.00    -0.323 A  
HETATM   26  C   UNK A   0     -11.158  15.879  64.968  1.00  0.00    -0.370 A  
BRANCH  23  27
HETATM   27  C   UNK A   0     -10.055  17.947  65.859  1.00  0.00    -0.170 C  
ATOM     28  H   GLU A   1      -8.266  17.325  66.730  1.00  0.00     0.000 HD 
ATOM     29  N   GLU A   1      -8.766  18.122  66.337  1.00  0.00    -0.259 N  
HETATM   30  O   UNK A   0     -10.684  18.828  65.295  1.00  0.00    -0.541 OA 
BRANCH  29  31
ATOM     31  CA  GLU A   1      -8.101  19.442  66.289  1.00  0.00    -0.325 C  
ATOM     32  C   GLU A   1      -6.818  19.356  65.428  1.00  0.00    -0.239 C  
ATOM     33  O   GLU A   1      -6.531  18.107  64.994  1.00  0.00    -0.325 OA 
ATOM     34  OXT GLU A   1      -6.084  20.305  65.188  1.00  0.00    -0.210 OA 
BRANCH  31  35
ATOM     35  CB  GLU A   1      -7.783  19.921  67.717  1.00  0.00    -0.327 C  
BRANCH  35  36
ATOM     36  CG  GLU A   1      -8.402  19.043  68.812  1.00  0.00    -0.364 C  
ATOM     37  CD  GLU A   1      -9.841  19.393  69.096  1.00  0.00    -0.359 C  
ATOM     38  OE2 GLU A   1     -10.469  20.289  68.555  1.00  0.00    -0.325 OA 
ATOM     39  OE1 GLU A   1     -10.384  18.579  70.036  1.00  0.00     0.592 OA 
ENDBRANCH  35  36
ENDBRANCH  31  35
ENDBRANCH  29  31
ENDBRANCH  23  27
ENDBRANCH  19  21
ENDBRANCH  18  19
ENDBRANCH   3  18
TORSDOF 7
ENDMDL
MODEL      146
REMARK 921   NORMALIZED FREE ENERGY PREDICTED BY IDOCK:   -5.30 KCAL/MOL
REMARK 922        TOTAL FREE ENERGY PREDICTED BY IDOCK:   -8.70 KCAL/MOL
REMARK 923 INTER-LIGAND FREE ENERGY PREDICTED BY IDOCK:   -7.48 KCAL/MOL
REMARK 924 INTRA-LIGAND FREE ENERGY PREDICTED BY IDOCK:   -1.22 KCAL/MOL
REMARK 927      BINDING AFFINITY PREDICTED BY RF-SCORE:    0.00 PKD
ROOT
HETATM    1  C   UNK A   0      -8.636  11.534  68.997  1.00  0.00     0.131 C  
HETATM    2  N   UNK A   0      -9.495  10.609  68.274  1.00  0.00    -0.154 NA 
HETATM    3  C   UNK A   0     -10.569   9.908  69.035  1.00  0.00    -0.220 C  
HETATM    4  O   UNK A   0      -7.924  12.204  66.373  1.00  0.00     0.067 OA 
HETATM    5  C   UNK A   0     -10.662   8.450  68.518  1.00  0.00    -0.021 C  
HETATM    6  C   UNK A   0      -9.590  10.230  64.136  1.00  0.00    -0.315 C  
HETATM    7  N   UNK A   0     -10.755   8.405  67.048  1.00  0.00    -0.386 NA 
HETATM    8  H   UNK A   0     -11.304   7.675  66.592  1.00  0.00     0.000 HD 
HETATM    9  H2  UNK A   0      -9.500  10.747  62.148  1.00  0.00     0.000 HD 
HETATM   10  C   UNK A   0     -10.091   9.361  66.284  1.00  0.00    -0.258 C  
HETATM   11  H   UNK A   0      -8.536  11.931  63.912  1.00  0.00     0.000 HD 
HETATM   12  C   UNK A   0      -9.434  10.395  66.869  1.00  0.00    -0.168 C  
HETATM   13  H1  UNK A   0     -10.395   9.268  62.482  1.00  0.00     0.000 HD 
HETATM   14  C   UNK A   0      -8.680  11.346  65.923  1.00  0.00    -0.101 C  
HETATM   15  N   UNK A   0     -10.128   9.275  64.923  1.00  0.00     0.011 NA 
HETATM   16  N   UNK A   0      -9.852  10.063  62.818  1.00  0.00    -0.540 NA 
HETATM   17  N   UNK A   0      -8.904  11.235  64.561  1.00  0.00    -0.379 N  
ENDROOT
BRANCH   3  18
HETATM   18  C   UNK A   0     -11.921  10.655  68.878  1.00  0.00    -0.058 C  
BRANCH  18  19
HETATM   19  N   UNK A   0     -12.089  11.696  69.912  1.00  0.00    -0.310 NA 
HETATM   20  H   UNK A   0     -12.441  11.471  70.842  1.00  0.00     0.000 HD 
BRANCH  19  21
HETATM   21  C   UNK A   0     -11.745  13.008  69.554  1.00  0.00    -0.317 A  
HETATM   22  C   UNK A   0     -11.249  15.274  70.301  1.00  0.00    -0.320 A  
HETATM   23  C   UNK A   0     -10.997  15.656  68.983  1.00  0.00    -0.263 A  
HETATM   24  C   UNK A   0     -11.619  13.439  68.231  1.00  0.00    -0.379 A  
HETATM   25  C   UNK A   0     -11.632  13.958  70.577  1.00  0.00    -0.132 A  
HETATM   26  C   UNK A   0     -11.234  14.751  67.943  1.00  0.00    -0.318 A  
BRANCH  23  27
HETATM   27  C   UNK A   0     -10.499  17.026  68.700  1.00  0.00    -0.363 C  
ATOM     28  H   GLU A   1     -10.158  16.504  66.710  1.00  0.00     0.000 HD 
ATOM     29  N   GLU A   1     -10.064  17.247  67.403  1.00  0.00    -0.297 N  
HETATM   30  O   UNK A   0     -10.503  17.892  69.560  1.00  0.00    -0.069 OA 
BRANCH  29  31
ATOM     31  CA  GLU A   1      -9.466  18.539  67.002  1.00  0.00    -0.288 C  
ATOM     32  C   GLU A   1     -10.189  19.090  65.750  1.00  0.00    -0.176 C  
ATOM     33  O   GLU A   1     -11.123  18.254  65.242  1.00  0.00    -0.431 OA 
ATOM     34  OXT GLU A   1      -9.925  20.159  65.216  1.00  0.00    -0.174 OA 
BRANCH  31  35
ATOM     35  CB  GLU A   1      -7.959  18.360  66.742  1.00  0.00    -0.261 C  
BRANCH  35  36
ATOM     36  CG  GLU A   1      -7.241  17.543  67.823  1.00  0.00    -0.184 C  
ATOM     37  CD  GLU A   1      -6.700  18.401  68.940  1.00  0.00    -0.258 C  
ATOM     38  OE2 GLU A   1      -6.779  19.617  68.996  1.00  0.00    -0.307 OA 
ATOM     39  OE1 GLU A   1      -6.106  17.657  69.907  1.00  0.00    -0.244 OA 
ENDBRANCH  35  36
ENDBRANCH  31  35
ENDBRANCH  29  31
ENDBRANCH  23  27
ENDBRANCH  19  21
ENDBRANCH  18  19
ENDBRANCH   3  18
TORSDOF 7
ENDMDL
MODEL      147
REMARK 921   NORMALIZED FREE ENERGY PREDICTED BY IDOCK:   -5.30 KCAL/MOL
REMARK 922        TOTAL FREE ENERGY PREDICTED BY IDOCK:   -8.70 KCAL/MOL
REMARK 923 INTER-LIGAND FREE ENERGY PREDICTED BY IDOCK:   -8.25 KCAL/MOL
REMARK 924 INTRA-LIGAND FREE ENERGY PREDICTED BY IDOCK:   -0.44 KCAL/MOL
REMARK 927      BINDING AFFINITY PREDICTED BY RF-SCORE:    0.00 PKD
ROOT
HETATM    1  C   UNK A   0      -9.712  15.383  69.384  1.00  0.00    -0.273 C  
HETATM    2  N   UNK A   0     -10.073  15.511  67.980  1.00  0.00    -0.222 NA 
HETATM    3  C   UNK A   0     -10.441  14.273  67.235  1.00  0.00    -0.269 C  
HETATM    4  O   UNK A   0      -9.991  18.165  69.234  1.00  0.00    -0.246 OA 
HETATM    5  C   UNK A   0      -9.847  14.369  65.806  1.00  0.00    -0.302 C  
HETATM    6  C   UNK A   0     -10.759  19.126  66.047  1.00  0.00    -0.364 C  
HETATM    7  N   UNK A   0     -10.188  15.652  65.166  1.00  0.00    -0.429 NA 
HETATM    8  H   UNK A   0     -10.344  15.696  64.159  1.00  0.00     0.000 HD 
HETATM    9  H2  UNK A   0     -11.347  21.074  65.746  1.00  0.00     0.000 HD 
HETATM   10  C   UNK A   0     -10.294  16.804  65.942  1.00  0.00    -0.328 C  
HETATM   11  H   UNK A   0     -10.832  20.104  67.806  1.00  0.00     0.000 HD 
HETATM   12  C   UNK A   0     -10.184  16.752  67.294  1.00  0.00    -0.292 C  
HETATM   13  H1  UNK A   0     -11.238  20.106  64.280  1.00  0.00     0.000 HD 
HETATM   14  C   UNK A   0     -10.249  18.100  68.035  1.00  0.00    -0.380 C  
HETATM   15  N   UNK A   0     -10.545  17.999  65.336  1.00  0.00    -0.580 NA 
HETATM   16  N   UNK A   0     -11.145  20.182  65.292  1.00  0.00    -0.059 NA 
HETATM   17  N   UNK A   0     -10.641  19.223  67.327  1.00  0.00    -0.460 N  
ENDROOT
BRANCH   3  18
HETATM   18  C   UNK A   0     -11.983  14.099  67.200  1.00  0.00    -0.426 C  
BRANCH  18  19
HETATM   19  N   UNK A   0     -12.366  12.681  67.043  1.00  0.00    -0.305 NA 
HETATM   20  H   UNK A   0     -13.217  12.410  66.551  1.00  0.00     0.000 HD 
BRANCH  19  21
HETATM   21  C   UNK A   0     -11.506  11.725  67.603  1.00  0.00    -0.300 A  
HETATM   22  C   UNK A   0      -9.873   9.957  67.216  1.00  0.00    -0.228 A  
HETATM   23  C   UNK A   0      -9.700   9.813  68.593  1.00  0.00    -0.162 A  
HETATM   24  C   UNK A   0     -11.418  11.476  68.976  1.00  0.00    -0.355 A  
HETATM   25  C   UNK A   0     -10.782  10.902  66.730  1.00  0.00    -0.309 A  
HETATM   26  C   UNK A   0     -10.511  10.536  69.473  1.00  0.00    -0.265 A  
BRANCH  23  27
HETATM   27  C   UNK A   0      -8.667   8.878  69.107  1.00  0.00    -0.132 C  
ATOM     28  H   GLU A   1     -10.133   7.791  70.114  1.00  0.00     0.000 HD 
ATOM     29  N   GLU A   1      -9.131   7.875  69.943  1.00  0.00    -0.146 N  
HETATM   30  O   UNK A   0      -7.495   8.988  68.783  1.00  0.00    -0.075 OA 
BRANCH  29  31
ATOM     31  CA  GLU A   1      -8.203   6.925  70.593  1.00  0.00    -0.120 C  
ATOM     32  C   GLU A   1      -8.654   5.472  70.314  1.00  0.00    -0.126 C  
ATOM     33  O   GLU A   1      -9.822   5.379  69.636  1.00  0.00    -0.160 OA 
ATOM     34  OXT GLU A   1      -8.057   4.477  70.702  1.00  0.00    -0.072 OA 
BRANCH  31  35
ATOM     35  CB  GLU A   1      -8.139   7.207  72.105  1.00  0.00    -0.098 C  
BRANCH  35  36
ATOM     36  CG  GLU A   1      -8.891   6.177  72.956  1.00  0.00    -0.124 C  
ATOM     37  CD  GLU A   1     -10.059   6.775  73.699  1.00  0.00    -0.296 C  
ATOM     38  OE2 GLU A   1     -10.384   7.951  73.674  1.00  0.00    -0.173 OA 
ATOM     39  OE1 GLU A   1     -10.737   5.840  74.412  1.00  0.00    -0.179 OA 
ENDBRANCH  35  36
ENDBRANCH  31  35
ENDBRANCH  29  31
ENDBRANCH  23  27
ENDBRANCH  19  21
ENDBRANCH  18  19
ENDBRANCH   3  18
TORSDOF 7
ENDMDL
MODEL      148
REMARK 921   NORMALIZED FREE ENERGY PREDICTED BY IDOCK:   -5.30 KCAL/MOL
REMARK 922        TOTAL FREE ENERGY PREDICTED BY IDOCK:   -8.70 KCAL/MOL
REMARK 923 INTER-LIGAND FREE ENERGY PREDICTED BY IDOCK:   -7.30 KCAL/MOL
REMARK 924 INTRA-LIGAND FREE ENERGY PREDICTED BY IDOCK:   -1.40 KCAL/MOL
REMARK 927      BINDING AFFINITY PREDICTED BY RF-SCORE:    0.00 PKD
ROOT
HETATM    1  C   UNK A   0     -10.931   7.164  69.306  1.00  0.00    -0.136 C  
HETATM    2  N   UNK A   0     -10.050   8.117  68.648  1.00  0.00    -0.191 NA 
HETATM    3  C   UNK A   0     -10.508   8.724  67.364  1.00  0.00    -0.279 C  
HETATM    4  O   UNK A   0      -9.097   7.600  71.377  1.00  0.00    -0.132 OA 
HETATM    5  C   UNK A   0      -9.288   8.833  66.414  1.00  0.00    -0.204 C  
HETATM    6  C   UNK A   0      -6.637   9.748  70.371  1.00  0.00    -0.114 C  
HETATM    7  N   UNK A   0      -8.142   9.478  67.079  1.00  0.00    -0.112 NA 
HETATM    8  H   UNK A   0      -7.506  10.068  66.544  1.00  0.00     0.000 HD 
HETATM    9  H2  UNK A   0      -5.366  10.491  71.806  1.00  0.00     0.000 HD 
HETATM   10  C   UNK A   0      -7.933   9.278  68.442  1.00  0.00    -0.102 C  
HETATM   11  H   UNK A   0      -7.179   9.072  72.189  1.00  0.00     0.000 HD 
HETATM   12  C   UNK A   0      -8.819   8.575  69.193  1.00  0.00    -0.142 C  
HETATM   13  H1  UNK A   0      -4.998  11.005  70.162  1.00  0.00     0.000 HD 
HETATM   14  C   UNK A   0      -8.442   8.362  70.669  1.00  0.00    -0.135 C  
HETATM   15  N   UNK A   0      -6.834   9.823  69.038  1.00  0.00    -0.049 NA 
HETATM   16  N   UNK A   0      -5.582  10.474  70.808  1.00  0.00    -0.091 NA 
HETATM   17  N   UNK A   0      -7.375   9.077  71.187  1.00  0.00    -0.109 N  
ENDROOT
BRANCH   3  18
HETATM   18  C   UNK A   0     -11.155  10.112  67.621  1.00  0.00    -0.206 C  
BRANCH  18  19
HETATM   19  N   UNK A   0     -10.755  11.095  66.595  1.00  0.00    -0.268 NA 
HETATM   20  H   UNK A   0     -10.512  10.807  65.648  1.00  0.00     0.000 HD 
BRANCH  19  21
HETATM   21  C   UNK A   0     -10.724  12.442  66.984  1.00  0.00    -0.239 A  
HETATM   22  C   UNK A   0     -10.811  14.052  68.812  1.00  0.00    -0.279 A  
HETATM   23  C   UNK A   0     -10.616  15.095  67.906  1.00  0.00    -0.257 A  
HETATM   24  C   UNK A   0     -10.664  13.506  66.079  1.00  0.00    -0.280 A  
HETATM   25  C   UNK A   0     -10.875  12.736  68.346  1.00  0.00    -0.272 A  
HETATM   26  C   UNK A   0     -10.596  14.825  66.533  1.00  0.00    -0.299 A  
BRANCH  23  27
HETATM   27  C   UNK A   0     -10.452  16.482  68.409  1.00  0.00    -0.307 C  
ATOM     28  H   GLU A   1      -9.971  17.137  66.489  1.00  0.00     0.000 HD 
ATOM     29  N   GLU A   1     -10.064  17.419  67.465  1.00  0.00    -0.310 N  
HETATM   30  O   UNK A   0     -10.673  16.763  69.577  1.00  0.00    -0.330 OA 
BRANCH  29  31
ATOM     31  CA  GLU A   1      -9.784  18.822  67.843  1.00  0.00    -0.329 C  
ATOM     32  C   GLU A   1     -10.091  19.761  66.653  1.00  0.00    -0.461 C  
ATOM     33  O   GLU A   1     -10.449  19.114  65.519  1.00  0.00    -0.521 OA 
ATOM     34  OXT GLU A   1      -9.980  20.979  66.689  1.00  0.00     0.028 OA 
BRANCH  31  35
ATOM     35  CB  GLU A   1      -8.319  18.958  68.296  1.00  0.00    -0.364 C  
BRANCH  35  36
ATOM     36  CG  GLU A   1      -7.394  17.877  67.722  1.00  0.00    -0.209 C  
ATOM     37  CD  GLU A   1      -6.652  18.337  66.492  1.00  0.00    -0.202 C  
ATOM     38  OE2 GLU A   1      -6.770  19.431  65.965  1.00  0.00    -0.210 OA 
ATOM     39  OE1 GLU A   1      -5.808  17.383  66.024  1.00  0.00    -0.188 OA 
ENDBRANCH  35  36
ENDBRANCH  31  35
ENDBRANCH  29  31
ENDBRANCH  23  27
ENDBRANCH  19  21
ENDBRANCH  18  19
ENDBRANCH   3  18
TORSDOF 7
ENDMDL
MODEL      149
REMARK 921   NORMALIZED FREE ENERGY PREDICTED BY IDOCK:   -5.29 KCAL/MOL
REMARK 922        TOTAL FREE ENERGY PREDICTED BY IDOCK:   -8.68 KCAL/MOL
REMARK 923 INTER-LIGAND FREE ENERGY PREDICTED BY IDOCK:   -7.80 KCAL/MOL
REMARK 924 INTRA-LIGAND FREE ENERGY PREDICTED BY IDOCK:   -0.88 KCAL/MOL
REMARK 927      BINDING AFFINITY PREDICTED BY RF-SCORE:    0.00 PKD
ROOT
HETATM    1  C   UNK A   0     -10.243  15.048  69.699  1.00  0.00    -0.157 C  
HETATM    2  N   UNK A   0     -10.067  15.327  68.281  1.00  0.00    -0.223 NA 
HETATM    3  C   UNK A   0     -10.115  14.179  67.330  1.00  0.00    -0.256 C  
HETATM    4  O   UNK A   0     -10.495  17.836  69.745  1.00  0.00     0.093 OA 
HETATM    5  C   UNK A   0      -9.042  14.408  66.235  1.00  0.00    -0.095 C  
HETATM    6  C   UNK A   0     -10.060  19.134  66.615  1.00  0.00    -0.395 C  
HETATM    7  N   UNK A   0      -9.146  15.757  65.651  1.00  0.00    -0.336 NA 
HETATM    8  H   UNK A   0      -8.924  15.907  64.667  1.00  0.00     0.000 HD 
HETATM    9  H2  UNK A   0     -10.530  21.115  66.323  1.00  0.00     0.000 HD 
HETATM   10  C   UNK A   0      -9.549  16.826  66.449  1.00  0.00    -0.281 C  
HETATM   11  H   UNK A   0     -10.788  19.929  68.316  1.00  0.00     0.000 HD 
HETATM   12  C   UNK A   0      -9.940  16.634  67.735  1.00  0.00    -0.262 C  
HETATM   13  H1  UNK A   0      -9.876  20.300  64.906  1.00  0.00     0.000 HD 
HETATM   14  C   UNK A   0     -10.295  17.900  68.535  1.00  0.00    -0.360 C  
HETATM   15  N   UNK A   0      -9.581  18.082  65.920  1.00  0.00    -0.516 NA 
HETATM   16  N   UNK A   0     -10.161  20.271  65.885  1.00  0.00    -0.579 NA 
HETATM   17  N   UNK A   0     -10.420  19.097  67.852  1.00  0.00    -0.407 N  
ENDROOT
BRANCH   3  18
HETATM   18  C   UNK A   0     -11.535  14.044  66.715  1.00  0.00    -0.363 C  
BRANCH  18  19
HETATM   19  N   UNK A   0     -11.793  12.668  66.244  1.00  0.00    -0.449 NA 
HETATM   20  H   UNK A   0     -12.131  12.483  65.300  1.00  0.00     0.000 HD 
BRANCH  19  21
HETATM   21  C   UNK A   0     -11.553  11.629  67.155  1.00  0.00    -0.212 A  
HETATM   22  C   UNK A   0     -10.708   9.372  67.515  1.00  0.00    -0.290 A  
HETATM   23  C   UNK A   0     -10.964   9.491  68.882  1.00  0.00    -0.116 A  
HETATM   24  C   UNK A   0     -11.925  11.682  68.502  1.00  0.00    -0.284 A  
HETATM   25  C   UNK A   0     -11.015  10.434  66.660  1.00  0.00    -0.067 A  
HETATM   26  C   UNK A   0     -11.621  10.627  69.366  1.00  0.00    -0.352 A  
BRANCH  23  27
HETATM   27  C   UNK A   0     -10.551   8.402  69.803  1.00  0.00    -0.221 C  
ATOM     28  H   GLU A   1      -9.575   7.431  68.237  1.00  0.00     0.000 HD 
ATOM     29  N   GLU A   1      -9.832   7.369  69.222  1.00  0.00    -0.166 N  
HETATM   30  O   UNK A   0     -10.817   8.444  70.993  1.00  0.00    -0.226 OA 
BRANCH  29  31
ATOM     31  CA  GLU A   1      -9.428   6.180  70.003  1.00  0.00    -0.154 C  
ATOM     32  C   GLU A   1      -7.980   6.353  70.519  1.00  0.00    -0.112 C  
ATOM     33  O   GLU A   1      -7.371   7.479  70.081  1.00  0.00    -0.074 OA 
ATOM     34  OXT GLU A   1      -7.395   5.538  71.220  1.00  0.00    -0.079 OA 
BRANCH  31  35
ATOM     35  CB  GLU A   1      -9.562   4.915  69.136  1.00  0.00    -0.231 C  
BRANCH  35  36
ATOM     36  CG  GLU A   1      -8.557   4.851  67.980  1.00  0.00    -0.103 C  
ATOM     37  CD  GLU A   1      -9.223   4.834  66.627  1.00  0.00    -0.128 C  
ATOM     38  OE2 GLU A   1     -10.428   4.839  66.434  1.00  0.00    -0.282 OA 
ATOM     39  OE1 GLU A   1      -8.317   4.821  65.617  1.00  0.00    -0.114 OA 
ENDBRANCH  35  36
ENDBRANCH  31  35
ENDBRANCH  29  31
ENDBRANCH  23  27
ENDBRANCH  19  21
ENDBRANCH  18  19
ENDBRANCH   3  18
TORSDOF 7
ENDMDL
MODEL      150
REMARK 921   NORMALIZED FREE ENERGY PREDICTED BY IDOCK:   -5.25 KCAL/MOL
REMARK 922        TOTAL FREE ENERGY PREDICTED BY IDOCK:   -8.63 KCAL/MOL
REMARK 923 INTER-LIGAND FREE ENERGY PREDICTED BY IDOCK:   -8.20 KCAL/MOL
REMARK 924 INTRA-LIGAND FREE ENERGY PREDICTED BY IDOCK:   -0.43 KCAL/MOL
REMARK 927      BINDING AFFINITY PREDICTED BY RF-SCORE:    0.00 PKD
ROOT
HETATM    1  C   UNK A   0     -10.160  15.246  69.560  1.00  0.00    -0.256 C  
HETATM    2  N   UNK A   0     -10.229  15.457  68.121  1.00  0.00    -0.228 NA 
HETATM    3  C   UNK A   0     -10.434  14.266  67.247  1.00  0.00    -0.269 C  
HETATM    4  O   UNK A   0     -10.410  18.034  69.517  1.00  0.00    -0.093 OA 
HETATM    5  C   UNK A   0      -9.564  14.438  65.976  1.00  0.00    -0.262 C  
HETATM    6  C   UNK A   0     -10.519  19.181  66.300  1.00  0.00    -0.467 C  
HETATM    7  N   UNK A   0      -9.771  15.758  65.356  1.00  0.00    -0.377 NA 
HETATM    8  H   UNK A   0      -9.720  15.861  64.342  1.00  0.00     0.000 HD 
HETATM    9  H2  UNK A   0     -11.039  21.148  66.000  1.00  0.00     0.000 HD 
HETATM   10  C   UNK A   0     -10.036  16.865  66.159  1.00  0.00    -0.315 C  
HETATM   11  H   UNK A   0     -10.950  20.058  68.061  1.00  0.00     0.000 HD 
HETATM   12  C   UNK A   0     -10.202  16.736  67.500  1.00  0.00    -0.289 C  
HETATM   13  H1  UNK A   0     -10.633  20.264  64.532  1.00  0.00     0.000 HD 
HETATM   14  C   UNK A   0     -10.419  18.039  68.288  1.00  0.00    -0.343 C  
HETATM   15  N   UNK A   0     -10.161  18.095  65.584  1.00  0.00    -0.561 NA 
HETATM   16  N   UNK A   0     -10.747  20.282  65.545  1.00  0.00    -0.200 NA 
HETATM   17  N   UNK A   0     -10.663  19.204  67.581  1.00  0.00    -0.445 N  
ENDROOT
BRANCH   3  18
HETATM   18  C   UNK A   0     -11.937  14.108  66.891  1.00  0.00    -0.449 C  
BRANCH  18  19
HETATM   19  N   UNK A   0     -12.167  12.941  66.015  1.00  0.00    -0.519 NA 
HETATM   20  H   UNK A   0     -12.856  12.967  65.263  1.00  0.00     0.000 HD 
BRANCH  19  21
HETATM   21  C   UNK A   0     -11.396  11.797  66.265  1.00  0.00    -0.287 A  
HETATM   22  C   UNK A   0      -9.842  10.138  65.384  1.00  0.00    -0.375 A  
HETATM   23  C   UNK A   0      -9.759   9.544  66.644  1.00  0.00    -0.270 A  
HETATM   24  C   UNK A   0     -11.404  11.111  67.483  1.00  0.00    -0.351 A  
HETATM   25  C   UNK A   0     -10.668  11.251  65.199  1.00  0.00    -0.312 A  
HETATM   26  C   UNK A   0     -10.581  10.000  67.680  1.00  0.00    -0.323 A  
BRANCH  23  27
HETATM   27  C   UNK A   0      -8.811   8.422  66.864  1.00  0.00    -0.142 C  
ATOM     28  H   GLU A   1     -10.386   7.191  67.458  1.00  0.00     0.000 HD 
ATOM     29  N   GLU A   1      -9.374   7.249  67.341  1.00  0.00    -0.126 N  
HETATM   30  O   UNK A   0      -7.622   8.538  66.612  1.00  0.00    -0.081 OA 
BRANCH  29  31
ATOM     31  CA  GLU A   1      -8.537   6.078  67.683  1.00  0.00    -0.106 C  
ATOM     32  C   GLU A   1      -9.113   4.806  67.019  1.00  0.00    -0.118 C  
ATOM     33  O   GLU A   1     -10.279   5.007  66.363  1.00  0.00    -0.219 OA 
ATOM     34  OXT GLU A   1      -8.607   3.695  67.104  1.00  0.00    -0.102 OA 
BRANCH  31  35
ATOM     35  CB  GLU A   1      -8.459   5.921  69.213  1.00  0.00    -0.113 C  
BRANCH  35  36
ATOM     36  CG  GLU A   1      -7.927   7.167  69.932  1.00  0.00    -0.122 C  
ATOM     37  CD  GLU A   1      -6.438   7.117  70.163  1.00  0.00    -0.042 C  
ATOM     38  OE2 GLU A   1      -5.707   6.191  69.853  1.00  0.00    -0.013 OA 
ATOM     39  OE1 GLU A   1      -5.980   8.245  70.762  1.00  0.00    -0.032 OA 
ENDBRANCH  35  36
ENDBRANCH  31  35
ENDBRANCH  29  31
ENDBRANCH  23  27
ENDBRANCH  19  21
ENDBRANCH  18  19
ENDBRANCH   3  18
TORSDOF 7
ENDMDL
MODEL      151
REMARK 921   NORMALIZED FREE ENERGY PREDICTED BY IDOCK:   -5.25 KCAL/MOL
REMARK 922        TOTAL FREE ENERGY PREDICTED BY IDOCK:   -8.63 KCAL/MOL
REMARK 923 INTER-LIGAND FREE ENERGY PREDICTED BY IDOCK:   -7.33 KCAL/MOL
REMARK 924 INTRA-LIGAND FREE ENERGY PREDICTED BY IDOCK:   -1.30 KCAL/MOL
REMARK 927      BINDING AFFINITY PREDICTED BY RF-SCORE:    0.00 PKD
ROOT
HETATM    1  C   UNK A   0      -8.622  15.994  65.900  1.00  0.00     0.042 C  
HETATM    2  N   UNK A   0      -9.029  16.999  66.871  1.00  0.00    -0.221 NA 
HETATM    3  C   UNK A   0     -10.488  17.210  67.093  1.00  0.00    -0.291 C  
HETATM    4  O   UNK A   0      -6.153  16.465  67.133  1.00  0.00    -0.160 OA 
HETATM    5  C   UNK A   0     -10.739  18.729  67.274  1.00  0.00    -0.425 C  
HETATM    6  C   UNK A   0      -6.445  18.892  69.520  1.00  0.00    -0.243 C  
HETATM    7  N   UNK A   0      -9.827  19.311  68.273  1.00  0.00    -0.373 NA 
HETATM    8  H   UNK A   0     -10.142  20.077  68.869  1.00  0.00     0.000 HD 
HETATM    9  H2  UNK A   0      -4.857  19.180  70.795  1.00  0.00     0.000 HD 
HETATM   10  C   UNK A   0      -8.533  18.812  68.401  1.00  0.00    -0.342 C  
HETATM   11  H   UNK A   0      -4.988  17.560  69.121  1.00  0.00     0.000 HD 
HETATM   12  C   UNK A   0      -8.123  17.733  67.687  1.00  0.00    -0.222 C  
HETATM   13  H1  UNK A   0      -6.203  20.289  71.037  1.00  0.00     0.000 HD 
HETATM   14  C   UNK A   0      -6.651  17.319  67.862  1.00  0.00    -0.153 C  
HETATM   15  N   UNK A   0      -7.673  19.398  69.282  1.00  0.00    -0.256 NA 
HETATM   16  N   UNK A   0      -5.788  19.506  70.532  1.00  0.00    -0.243 NA 
HETATM   17  N   UNK A   0      -5.919  17.903  68.881  1.00  0.00    -0.195 N  
ENDROOT
BRANCH   3  18
HETATM   18  C   UNK A   0     -10.971  16.402  68.328  1.00  0.00    -0.355 C  
BRANCH  18  19
HETATM   19  N   UNK A   0     -11.849  15.283  67.935  1.00  0.00    -0.419 NA 
HETATM   20  H   UNK A   0     -12.779  15.445  67.548  1.00  0.00     0.000 HD 
BRANCH  19  21
HETATM   21  C   UNK A   0     -11.346  13.986  68.119  1.00  0.00    -0.292 A  
HETATM   22  C   UNK A   0      -9.565  12.584  69.013  1.00  0.00     0.358 A  
HETATM   23  C   UNK A   0     -10.257  11.442  68.608  1.00  0.00    -0.217 A  
HETATM   24  C   UNK A   0     -11.960  12.841  67.603  1.00  0.00    -0.331 A  
HETATM   25  C   UNK A   0     -10.107  13.847  68.756  1.00  0.00    -0.161 A  
HETATM   26  C   UNK A   0     -11.429  11.573  67.856  1.00  0.00    -0.372 A  
BRANCH  23  27
HETATM   27  C   UNK A   0      -9.729  10.101  68.964  1.00  0.00    -0.206 C  
ATOM     28  H   GLU A   1     -10.732   9.260  67.341  1.00  0.00     0.000 HD 
ATOM     29  N   GLU A   1     -10.149   9.058  68.153  1.00  0.00    -0.183 N  
HETATM   30  O   UNK A   0      -8.958   9.951  69.899  1.00  0.00    -0.211 OA 
BRANCH  29  31
ATOM     31  CA  GLU A   1      -9.768   7.658  68.441  1.00  0.00    -0.158 C  
ATOM     32  C   GLU A   1      -9.309   6.958  67.141  1.00  0.00    -0.141 C  
ATOM     33  O   GLU A   1      -9.439   7.720  66.030  1.00  0.00    -0.114 OA 
ATOM     34  OXT GLU A   1      -8.907   5.804  67.084  1.00  0.00    -0.109 OA 
BRANCH  31  35
ATOM     35  CB  GLU A   1     -10.953   6.916  69.085  1.00  0.00    -0.240 C  
BRANCH  35  36
ATOM     36  CG  GLU A   1     -10.776   6.661  70.587  1.00  0.00    -0.286 C  
ATOM     37  CD  GLU A   1     -11.634   7.564  71.438  1.00  0.00    -0.275 C  
ATOM     38  OE2 GLU A   1     -12.378   8.434  71.015  1.00  0.00    -0.250 OA 
ATOM     39  OE1 GLU A   1     -11.495   7.295  72.761  1.00  0.00    -0.288 OA 
ENDBRANCH  35  36
ENDBRANCH  31  35
ENDBRANCH  29  31
ENDBRANCH  23  27
ENDBRANCH  19  21
ENDBRANCH  18  19
ENDBRANCH   3  18
TORSDOF 7
ENDMDL
MODEL      152
REMARK 921   NORMALIZED FREE ENERGY PREDICTED BY IDOCK:   -5.21 KCAL/MOL
REMARK 922        TOTAL FREE ENERGY PREDICTED BY IDOCK:   -8.57 KCAL/MOL
REMARK 923 INTER-LIGAND FREE ENERGY PREDICTED BY IDOCK:   -9.22 KCAL/MOL
REMARK 924 INTRA-LIGAND FREE ENERGY PREDICTED BY IDOCK:    0.65 KCAL/MOL
REMARK 927      BINDING AFFINITY PREDICTED BY RF-SCORE:    0.00 PKD
ROOT
HETATM    1  C   UNK A   0      -8.075   9.440  70.476  1.00  0.00    -0.184 C  
HETATM    2  N   UNK A   0      -9.455   9.162  70.845  1.00  0.00    -0.263 NA 
HETATM    3  C   UNK A   0     -10.532   9.933  70.161  1.00  0.00    -0.285 C  
HETATM    4  O   UNK A   0      -7.692   7.085  71.942  1.00  0.00    -0.092 OA 
HETATM    5  C   UNK A   0     -11.629  10.269  71.203  1.00  0.00    -0.300 C  
HETATM    6  C   UNK A   0     -10.661   5.958  73.202  1.00  0.00    -0.245 C  
HETATM    7  N   UNK A   0     -12.046   9.071  71.953  1.00  0.00    -0.359 NA 
HETATM    8  H   UNK A   0     -13.013   8.972  72.262  1.00  0.00     0.000 HD 
HETATM    9  H2  UNK A   0     -10.701   4.074  74.025  1.00  0.00     0.000 HD 
HETATM   10  C   UNK A   0     -11.115   8.075  72.236  1.00  0.00    -0.331 C  
HETATM   11  H   UNK A   0      -8.854   5.088  73.023  1.00  0.00     0.000 HD 
HETATM   12  C   UNK A   0      -9.848   8.140  71.752  1.00  0.00    -0.194 C  
HETATM   13  H1  UNK A   0     -12.226   4.949  74.121  1.00  0.00     0.000 HD 
HETATM   14  C   UNK A   0      -8.893   7.016  72.192  1.00  0.00    -0.130 C  
HETATM   15  N   UNK A   0     -11.491   7.000  72.986  1.00  0.00    -0.540 NA 
HETATM   16  N   UNK A   0     -11.248   4.914  73.834  1.00  0.00    -0.402 NA 
HETATM   17  N   UNK A   0      -9.425   5.914  72.839  1.00  0.00    -0.151 N  
ENDROOT
BRANCH   3  18
HETATM   18  C   UNK A   0     -11.109   9.119  68.971  1.00  0.00     0.093 C  
BRANCH  18  19
HETATM   19  N   UNK A   0     -11.050   9.886  67.710  1.00  0.00    -0.473 NA 
HETATM   20  H   UNK A   0     -11.235   9.445  66.809  1.00  0.00     0.000 HD 
BRANCH  19  21
HETATM   21  C   UNK A   0     -10.729  11.248  67.808  1.00  0.00    -0.220 A  
HETATM   22  C   UNK A   0     -11.540  13.540  67.974  1.00  0.00    -0.372 A  
HETATM   23  C   UNK A   0     -10.226  14.000  68.068  1.00  0.00    -0.238 A  
HETATM   24  C   UNK A   0      -9.420  11.736  67.770  1.00  0.00    -0.181 A  
HETATM   25  C   UNK A   0     -11.783  12.170  67.833  1.00  0.00    -0.403 A  
HETATM   26  C   UNK A   0      -9.165  13.102  67.913  1.00  0.00    -0.207 A  
BRANCH  23  27
HETATM   27  C   UNK A   0      -9.971  15.442  68.314  1.00  0.00    -0.214 C  
ATOM     28  H   GLU A   1      -8.579  15.474  66.762  1.00  0.00     0.000 HD 
ATOM     29  N   GLU A   1      -9.009  16.026  67.504  1.00  0.00    -0.192 N  
HETATM   30  O   UNK A   0     -10.594  16.061  69.161  1.00  0.00    -0.225 OA 
BRANCH  29  31
ATOM     31  CA  GLU A   1      -8.595  17.433  67.693  1.00  0.00    -0.217 C  
ATOM     32  C   GLU A   1      -7.405  17.505  68.678  1.00  0.00    -0.256 C  
ATOM     33  O   GLU A   1      -7.065  16.312  69.219  1.00  0.00    -0.207 OA 
ATOM     34  OXT GLU A   1      -6.836  18.540  68.998  1.00  0.00    -0.269 OA 
BRANCH  31  35
ATOM     35  CB  GLU A   1      -9.788  18.266  68.197  1.00  0.00    -0.356 C  
BRANCH  35  36
ATOM     36  CG  GLU A   1     -10.158  19.432  67.272  1.00  0.00    -0.497 C  
ATOM     37  CD  GLU A   1     -10.602  18.975  65.905  1.00  0.00    -0.393 C  
ATOM     38  OE2 GLU A   1     -10.647  17.815  65.530  1.00  0.00    -0.632 OA 
ATOM     39  OE1 GLU A   1     -10.966  20.018  65.117  1.00  0.00    -0.291 OA 
ENDBRANCH  35  36
ENDBRANCH  31  35
ENDBRANCH  29  31
ENDBRANCH  23  27
ENDBRANCH  19  21
ENDBRANCH  18  19
ENDBRANCH   3  18
TORSDOF 7
ENDMDL
MODEL      153
REMARK 921   NORMALIZED FREE ENERGY PREDICTED BY IDOCK:   -5.21 KCAL/MOL
REMARK 922        TOTAL FREE ENERGY PREDICTED BY IDOCK:   -8.57 KCAL/MOL
REMARK 923 INTER-LIGAND FREE ENERGY PREDICTED BY IDOCK:   -7.76 KCAL/MOL
REMARK 924 INTRA-LIGAND FREE ENERGY PREDICTED BY IDOCK:   -0.81 KCAL/MOL
REMARK 927      BINDING AFFINITY PREDICTED BY RF-SCORE:    0.00 PKD
ROOT
HETATM    1  C   UNK A   0     -10.027   9.387  65.391  1.00  0.00     0.042 C  
HETATM    2  N   UNK A   0      -9.675   9.579  66.790  1.00  0.00    -0.183 NA 
HETATM    3  C   UNK A   0      -8.443   8.912  67.301  1.00  0.00    -0.114 C  
HETATM    4  O   UNK A   0     -11.780  11.477  66.022  1.00  0.00    -0.312 OA 
HETATM    5  C   UNK A   0      -8.727   8.393  68.734  1.00  0.00    -0.136 C  
HETATM    6  C   UNK A   0     -11.491  12.335  69.316  1.00  0.00    -0.292 C  
HETATM    7  N   UNK A   0      -9.311   9.446  69.583  1.00  0.00    -0.176 NA 
HETATM    8  H   UNK A   0      -9.096   9.477  70.580  1.00  0.00     0.000 HD 
HETATM    9  H2  UNK A   0     -12.419  14.059  69.944  1.00  0.00     0.000 HD 
HETATM   10  C   UNK A   0     -10.157  10.398  69.020  1.00  0.00    -0.213 C  
HETATM   11  H   UNK A   0     -12.372  13.253  67.755  1.00  0.00     0.000 HD 
HETATM   12  C   UNK A   0     -10.382  10.433  67.681  1.00  0.00    -0.219 C  
HETATM   13  H1  UNK A   0     -11.610  13.156  71.220  1.00  0.00     0.000 HD 
HETATM   14  C   UNK A   0     -11.391  11.485  67.187  1.00  0.00    -0.284 C  
HETATM   15  N   UNK A   0     -10.746  11.330  69.822  1.00  0.00    -0.458 NA 
HETATM   16  N   UNK A   0     -11.867  13.253  70.238  1.00  0.00    -0.517 NA 
HETATM   17  N   UNK A   0     -11.816  12.459  68.075  1.00  0.00    -0.352 N  
ENDROOT
BRANCH   3  18
HETATM   18  C   UNK A   0      -7.244   9.900  67.282  1.00  0.00    -0.086 C  
BRANCH  18  19
HETATM   19  N   UNK A   0      -7.191  10.712  68.513  1.00  0.00    -0.082 NA 
HETATM   20  H   UNK A   0      -7.247  10.284  69.437  1.00  0.00     0.000 HD 
BRANCH  19  21
HETATM   21  C   UNK A   0      -7.060  12.100  68.354  1.00  0.00    -0.089 A  
HETATM   22  C   UNK A   0      -5.849  14.128  68.954  1.00  0.00    -0.086 A  
HETATM   23  C   UNK A   0      -6.648  14.866  68.080  1.00  0.00    -0.136 A  
HETATM   24  C   UNK A   0      -7.935  12.874  67.588  1.00  0.00    -0.167 A  
HETATM   25  C   UNK A   0      -6.067  12.754  69.094  1.00  0.00    -0.092 A  
HETATM   26  C   UNK A   0      -7.726  14.248  67.437  1.00  0.00    -0.194 A  
BRANCH  23  27
HETATM   27  C   UNK A   0      -6.357  16.305  67.859  1.00  0.00    -0.131 C  
ATOM     28  H   GLU A   1      -7.273  16.783  69.670  1.00  0.00     0.000 HD 
ATOM     29  N   GLU A   1      -6.821  17.167  68.840  1.00  0.00    -0.210 N  
HETATM   30  O   UNK A   0      -5.727  16.681  66.884  1.00  0.00    -0.239 OA 
BRANCH  29  31
ATOM     31  CA  GLU A   1      -6.674  18.633  68.709  1.00  0.00    -0.270 C  
ATOM     32  C   GLU A   1      -5.888  19.195  69.916  1.00  0.00    -0.254 C  
ATOM     33  O   GLU A   1      -5.592  18.271  70.859  1.00  0.00    -0.203 OA 
ATOM     34  OXT GLU A   1      -5.590  20.374  70.057  1.00  0.00    -0.284 OA 
BRANCH  31  35
ATOM     35  CB  GLU A   1      -8.062  19.289  68.593  1.00  0.00    -0.405 C  
BRANCH  35  36
ATOM     36  CG  GLU A   1      -8.575  19.391  67.151  1.00  0.00    -0.325 C  
ATOM     37  CD  GLU A   1      -9.930  18.754  66.968  1.00  0.00    -0.341 C  
ATOM     38  OE2 GLU A   1     -10.566  18.186  67.841  1.00  0.00    -0.400 OA 
ATOM     39  OE1 GLU A   1     -10.387  18.891  65.697  1.00  0.00    -0.545 OA 
ENDBRANCH  35  36
ENDBRANCH  31  35
ENDBRANCH  29  31
ENDBRANCH  23  27
ENDBRANCH  19  21
ENDBRANCH  18  19
ENDBRANCH   3  18
TORSDOF 7
ENDMDL
MODEL      154
REMARK 921   NORMALIZED FREE ENERGY PREDICTED BY IDOCK:   -5.20 KCAL/MOL
REMARK 922        TOTAL FREE ENERGY PREDICTED BY IDOCK:   -8.57 KCAL/MOL
REMARK 923 INTER-LIGAND FREE ENERGY PREDICTED BY IDOCK:   -7.85 KCAL/MOL
REMARK 924 INTRA-LIGAND FREE ENERGY PREDICTED BY IDOCK:   -0.72 KCAL/MOL
REMARK 927      BINDING AFFINITY PREDICTED BY RF-SCORE:    0.00 PKD
ROOT
HETATM    1  C   UNK A   0     -11.504  10.515  70.101  1.00  0.00    -0.325 C  
HETATM    2  N   UNK A   0     -11.433  11.949  69.868  1.00  0.00    -0.495 NA 
HETATM    3  C   UNK A   0     -10.700  12.428  68.660  1.00  0.00    -0.232 C  
HETATM    4  O   UNK A   0     -13.411  11.376  71.961  1.00  0.00    -0.467 OA 
HETATM    5  C   UNK A   0      -9.915  13.709  69.042  1.00  0.00     0.103 C  
HETATM    6  C   UNK A   0     -13.635  14.785  71.961  1.00  0.00    -0.403 C  
HETATM    7  N   UNK A   0     -10.779  14.688  69.723  1.00  0.00    -0.429 NA 
HETATM    8  H   UNK A   0     -10.625  15.688  69.589  1.00  0.00     0.000 HD 
HETATM    9  H2  UNK A   0     -15.195  15.645  72.989  1.00  0.00     0.000 HD 
HETATM   10  C   UNK A   0     -11.808  14.244  70.551  1.00  0.00    -0.294 C  
HETATM   11  H   UNK A   0     -14.818  13.355  72.743  1.00  0.00     0.000 HD 
HETATM   12  C   UNK A   0     -12.092  12.922  70.669  1.00  0.00    -0.235 C  
HETATM   13  H1  UNK A   0     -14.078  16.793  72.256  1.00  0.00     0.000 HD 
HETATM   14  C   UNK A   0     -13.204  12.551  71.667  1.00  0.00    -0.284 C  
HETATM   15  N   UNK A   0     -12.563  15.155  71.229  1.00  0.00    -0.322 NA 
HETATM   16  N   UNK A   0     -14.356  15.828  72.437  1.00  0.00    -0.423 NA 
HETATM   17  N   UNK A   0     -13.986  13.566  72.190  1.00  0.00    -0.509 N  
ENDROOT
BRANCH   3  18
HETATM   18  C   UNK A   0     -11.690  12.694  67.495  1.00  0.00    -0.368 C  
BRANCH  18  19
HETATM   19  N   UNK A   0     -11.082  12.388  66.185  1.00  0.00    -0.289 NA 
HETATM   20  H   UNK A   0     -11.095  13.063  65.420  1.00  0.00     0.000 HD 
BRANCH  19  21
HETATM   21  C   UNK A   0     -10.487  11.126  66.040  1.00  0.00    -0.256 A  
HETATM   22  C   UNK A   0      -8.803   9.770  64.916  1.00  0.00    -0.230 A  
HETATM   23  C   UNK A   0      -9.167   8.670  65.693  1.00  0.00    -0.204 A  
HETATM   24  C   UNK A   0     -10.928   9.983  66.713  1.00  0.00    -0.017 A  
HETATM   25  C   UNK A   0      -9.471  10.986  65.085  1.00  0.00    -0.265 A  
HETATM   26  C   UNK A   0     -10.265   8.763  66.554  1.00  0.00    -0.314 A  
BRANCH  23  27
HETATM   27  C   UNK A   0      -8.395   7.406  65.582  1.00  0.00    -0.140 C  
ATOM     28  H   GLU A   1     -10.018   6.333  66.331  1.00  0.00     0.000 HD 
ATOM     29  N   GLU A   1      -9.049   6.266  66.020  1.00  0.00    -0.142 N  
HETATM   30  O   UNK A   0      -7.268   7.391  65.111  1.00  0.00    -0.061 OA 
BRANCH  29  31
ATOM     31  CA  GLU A   1      -8.370   4.951  66.044  1.00  0.00    -0.113 C  
ATOM     32  C   GLU A   1      -9.266   3.882  65.376  1.00  0.00    -0.151 C  
ATOM     33  O   GLU A   1     -10.485   4.338  65.007  1.00  0.00    -0.243 OA 
ATOM     34  OXT GLU A   1      -8.946   2.710  65.227  1.00  0.00    -0.129 OA 
BRANCH  31  35
ATOM     35  CB  GLU A   1      -8.029   4.566  67.495  1.00  0.00    -0.100 C  
BRANCH  35  36
ATOM     36  CG  GLU A   1      -9.140   4.901  68.497  1.00  0.00    -0.143 C  
ATOM     37  CD  GLU A   1      -9.121   4.005  69.711  1.00  0.00    -0.115 C  
ATOM     38  OE2 GLU A   1      -8.341   3.085  69.896  1.00  0.00    -0.047 OA 
ATOM     39  OE1 GLU A   1     -10.083   4.344  70.605  1.00  0.00    -0.205 OA 
ENDBRANCH  35  36
ENDBRANCH  31  35
ENDBRANCH  29  31
ENDBRANCH  23  27
ENDBRANCH  19  21
ENDBRANCH  18  19
ENDBRANCH   3  18
TORSDOF 7
ENDMDL
MODEL      155
REMARK 921   NORMALIZED FREE ENERGY PREDICTED BY IDOCK:   -5.17 KCAL/MOL
REMARK 922        TOTAL FREE ENERGY PREDICTED BY IDOCK:   -8.52 KCAL/MOL
REMARK 923 INTER-LIGAND FREE ENERGY PREDICTED BY IDOCK:   -7.53 KCAL/MOL
REMARK 924 INTRA-LIGAND FREE ENERGY PREDICTED BY IDOCK:   -1.00 KCAL/MOL
REMARK 927      BINDING AFFINITY PREDICTED BY RF-SCORE:    0.00 PKD
ROOT
HETATM    1  C   UNK A   0      -7.423   9.306  70.667  1.00  0.00    -0.136 C  
HETATM    2  N   UNK A   0      -8.676   8.607  70.429  1.00  0.00    -0.145 NA 
HETATM    3  C   UNK A   0      -9.517   9.046  69.279  1.00  0.00    -0.157 C  
HETATM    4  O   UNK A   0      -7.054   7.113  72.368  1.00  0.00    -0.067 OA 
HETATM    5  C   UNK A   0     -11.004   8.987  69.710  1.00  0.00    -0.166 C  
HETATM    6  C   UNK A   0      -9.803   5.084  72.325  1.00  0.00    -0.166 C  
HETATM    7  N   UNK A   0     -11.339   7.685  70.315  1.00  0.00    -0.418 NA 
HETATM    8  H   UNK A   0     -12.268   7.285  70.186  1.00  0.00     0.000 HD 
HETATM    9  H2  UNK A   0      -9.649   3.240  73.222  1.00  0.00     0.000 HD 
HETATM   10  C   UNK A   0     -10.381   7.005  71.064  1.00  0.00    -0.200 C  
HETATM   11  H   UNK A   0      -7.934   4.810  73.024  1.00  0.00     0.000 HD 
HETATM   12  C   UNK A   0      -9.111   7.473  71.170  1.00  0.00    -0.147 C  
HETATM   13  H1  UNK A   0     -11.242   3.607  72.570  1.00  0.00     0.000 HD 
HETATM   14  C   UNK A   0      -8.165   6.672  72.082  1.00  0.00    -0.105 C  
HETATM   15  N   UNK A   0     -10.717   5.834  71.675  1.00  0.00    -0.248 NA 
HETATM   16  N   UNK A   0     -10.274   3.883  72.736  1.00  0.00    -0.160 NA 
HETATM   17  N   UNK A   0      -8.579   5.432  72.536  1.00  0.00    -0.118 N  
ENDROOT
BRANCH   3  18
HETATM   18  C   UNK A   0      -9.248   8.152  68.038  1.00  0.00    -0.132 C  
BRANCH  18  19
HETATM   19  N   UNK A   0      -8.601   8.913  66.951  1.00  0.00    -0.115 NA 
HETATM   20  H   UNK A   0      -7.860   8.503  66.382  1.00  0.00     0.000 HD 
BRANCH  19  21
HETATM   21  C   UNK A   0      -9.051  10.224  66.736  1.00  0.00    -0.143 A  
HETATM   22  C   UNK A   0     -10.808  11.673  65.868  1.00  0.00    -0.339 A  
HETATM   23  C   UNK A   0     -10.100  12.794  66.301  1.00  0.00    -0.267 A  
HETATM   24  C   UNK A   0      -8.296  11.359  67.043  1.00  0.00    -0.161 A  
HETATM   25  C   UNK A   0     -10.275  10.397  66.077  1.00  0.00    -0.295 A  
HETATM   26  C   UNK A   0      -8.819  12.639  66.842  1.00  0.00    -0.201 A  
BRANCH  23  27
HETATM   27  C   UNK A   0     -10.708  14.142  66.166  1.00  0.00    -0.297 C  
ATOM     28  H   GLU A   1      -9.050  14.998  67.097  1.00  0.00     0.000 HD 
ATOM     29  N   GLU A   1      -9.972  15.187  66.701  1.00  0.00    -0.244 N  
HETATM   30  O   UNK A   0     -11.775  14.301  65.595  1.00  0.00    -0.343 OA 
BRANCH  29  31
ATOM     31  CA  GLU A   1     -10.494  16.571  66.711  1.00  0.00    -0.269 C  
ATOM     32  C   GLU A   1      -9.440  17.538  66.122  1.00  0.00    -0.160 C  
ATOM     33  O   GLU A   1      -8.260  16.948  65.821  1.00  0.00    -0.444 OA 
ATOM     34  OXT GLU A   1      -9.612  18.740  65.978  1.00  0.00    -0.477 OA 
BRANCH  31  35
ATOM     35  CB  GLU A   1     -10.881  16.974  68.145  1.00  0.00    -0.338 C  
BRANCH  35  36
ATOM     36  CG  GLU A   1     -11.806  15.967  68.839  1.00  0.00    -0.314 C  
ATOM     37  CD  GLU A   1     -11.111  15.191  69.930  1.00  0.00    -0.284 C  
ATOM     38  OE2 GLU A   1      -9.936  15.304  70.236  1.00  0.00    -0.170 OA 
ATOM     39  OE1 GLU A   1     -11.956  14.336  70.560  1.00  0.00    -0.300 OA 
ENDBRANCH  35  36
ENDBRANCH  31  35
ENDBRANCH  29  31
ENDBRANCH  23  27
ENDBRANCH  19  21
ENDBRANCH  18  19
ENDBRANCH   3  18
TORSDOF 7
ENDMDL
MODEL      156
REMARK 921   NORMALIZED FREE ENERGY PREDICTED BY IDOCK:   -5.16 KCAL/MOL
REMARK 922        TOTAL FREE ENERGY PREDICTED BY IDOCK:   -8.50 KCAL/MOL
REMARK 923 INTER-LIGAND FREE ENERGY PREDICTED BY IDOCK:   -7.60 KCAL/MOL
REMARK 924 INTRA-LIGAND FREE ENERGY PREDICTED BY IDOCK:   -0.90 KCAL/MOL
REMARK 927      BINDING AFFINITY PREDICTED BY RF-SCORE:    0.00 PKD
ROOT
HETATM    1  C   UNK A   0     -10.372  15.509  69.703  1.00  0.00    -0.283 C  
HETATM    2  N   UNK A   0      -9.593  15.497  68.474  1.00  0.00    -0.198 NA 
HETATM    3  C   UNK A   0      -9.356  14.184  67.808  1.00  0.00    -0.200 C  
HETATM    4  O   UNK A   0     -10.334  18.255  69.156  1.00  0.00    -0.275 OA 
HETATM    5  C   UNK A   0      -7.906  14.170  67.260  1.00  0.00    -0.132 C  
HETATM    6  C   UNK A   0      -8.499  18.895  66.345  1.00  0.00    -0.293 C  
HETATM    7  N   UNK A   0      -7.618  15.376  66.465  1.00  0.00    -0.224 NA 
HETATM    8  H   UNK A   0      -6.990  15.323  65.663  1.00  0.00     0.000 HD 
HETATM    9  H2  UNK A   0      -8.598  20.786  65.544  1.00  0.00     0.000 HD 
HETATM   10  C   UNK A   0      -8.205  16.590  66.815  1.00  0.00    -0.243 C  
HETATM   11  H   UNK A   0      -9.786  20.026  67.403  1.00  0.00     0.000 HD 
HETATM   12  C   UNK A   0      -9.116  16.666  67.819  1.00  0.00    -0.212 C  
HETATM   13  H1  UNK A   0      -7.499  19.693  64.710  1.00  0.00     0.000 HD 
HETATM   14  C   UNK A   0      -9.640  18.072  68.158  1.00  0.00    -0.301 C  
HETATM   15  N   UNK A   0      -7.884  17.716  66.116  1.00  0.00    -0.455 NA 
HETATM   16  N   UNK A   0      -8.169  19.864  65.460  1.00  0.00    -0.415 NA 
HETATM   17  N   UNK A   0      -9.346  19.112  67.293  1.00  0.00    -0.297 N  
ENDROOT
BRANCH   3  18
HETATM   18  C   UNK A   0     -10.394  13.955  66.676  1.00  0.00    -0.278 C  
BRANCH  18  19
HETATM   19  N   UNK A   0      -9.880  13.029  65.647  1.00  0.00    -0.425 NA 
HETATM   20  H   UNK A   0      -9.529  13.368  64.752  1.00  0.00     0.000 HD 
BRANCH  19  21
HETATM   21  C   UNK A   0      -9.899  11.661  65.957  1.00  0.00    -0.230 A  
HETATM   22  C   UNK A   0     -10.896   9.869  67.275  1.00  0.00    -0.268 A  
HETATM   23  C   UNK A   0     -10.082   8.938  66.628  1.00  0.00    -0.357 A  
HETATM   24  C   UNK A   0      -9.001  10.735  65.418  1.00  0.00    -0.211 A  
HETATM   25  C   UNK A   0     -10.791  11.224  66.945  1.00  0.00    -0.333 A  
HETATM   26  C   UNK A   0      -9.098   9.379  65.738  1.00  0.00    -0.249 A  
BRANCH  23  27
HETATM   27  C   UNK A   0     -10.260   7.491  66.909  1.00  0.00    -0.289 C  
ATOM     28  H   GLU A   1      -8.195   7.211  66.839  1.00  0.00     0.000 HD 
ATOM     29  N   GLU A   1      -9.094   6.742  66.944  1.00  0.00    -0.132 N  
HETATM   30  O   UNK A   0     -11.365   7.016  67.117  1.00  0.00    -0.240 OA 
BRANCH  29  31
ATOM     31  CA  GLU A   1      -9.129   5.275  67.131  1.00  0.00    -0.112 C  
ATOM     32  C   GLU A   1      -8.934   4.928  68.626  1.00  0.00    -0.105 C  
ATOM     33  O   GLU A   1      -8.684   6.001  69.411  1.00  0.00    -0.120 OA 
ATOM     34  OXT GLU A   1      -8.949   3.791  69.077  1.00  0.00    -0.100 OA 
BRANCH  31  35
ATOM     35  CB  GLU A   1      -8.047   4.611  66.259  1.00  0.00    -0.103 C  
BRANCH  35  36
ATOM     36  CG  GLU A   1      -8.143   4.978  64.774  1.00  0.00    -0.113 C  
ATOM     37  CD  GLU A   1      -9.042   4.047  63.999  1.00  0.00    -0.139 C  
ATOM     38  OE2 GLU A   1      -9.623   3.079  64.464  1.00  0.00    -0.150 OA 
ATOM     39  OE1 GLU A   1      -9.149   4.413  62.697  1.00  0.00    -0.116 OA 
ENDBRANCH  35  36
ENDBRANCH  31  35
ENDBRANCH  29  31
ENDBRANCH  23  27
ENDBRANCH  19  21
ENDBRANCH  18  19
ENDBRANCH   3  18
TORSDOF 7
ENDMDL
MODEL      157
REMARK 921   NORMALIZED FREE ENERGY PREDICTED BY IDOCK:   -5.14 KCAL/MOL
REMARK 922        TOTAL FREE ENERGY PREDICTED BY IDOCK:   -8.48 KCAL/MOL
REMARK 923 INTER-LIGAND FREE ENERGY PREDICTED BY IDOCK:   -8.05 KCAL/MOL
REMARK 924 INTRA-LIGAND FREE ENERGY PREDICTED BY IDOCK:   -0.42 KCAL/MOL
REMARK 927      BINDING AFFINITY PREDICTED BY RF-SCORE:    0.00 PKD
ROOT
HETATM    1  C   UNK A   0     -11.560   5.188  73.018  1.00  0.00    -0.223 C  
HETATM    2  N   UNK A   0     -10.754   5.603  71.880  1.00  0.00    -0.235 NA 
HETATM    3  C   UNK A   0     -11.450   6.227  70.718  1.00  0.00    -0.316 C  
HETATM    4  O   UNK A   0      -9.012   4.979  74.160  1.00  0.00    -0.113 OA 
HETATM    5  C   UNK A   0     -10.785   5.711  69.416  1.00  0.00    -0.295 C  
HETATM    6  C   UNK A   0      -6.600   5.753  71.866  1.00  0.00    -0.058 C  
HETATM    7  N   UNK A   0      -9.320   5.857  69.465  1.00  0.00    -0.133 NA 
HETATM    8  H   UNK A   0      -8.797   6.062  68.614  1.00  0.00     0.000 HD 
HETATM    9  H2  UNK A   0      -4.676   6.003  72.545  1.00  0.00     0.000 HD 
HETATM   10  C   UNK A   0      -8.652   5.712  70.679  1.00  0.00    -0.130 C  
HETATM   11  H   UNK A   0      -6.542   5.547  73.869  1.00  0.00     0.000 HD 
HETATM   12  C   UNK A   0      -9.334   5.533  71.839  1.00  0.00    -0.144 C  
HETATM   13  H1  UNK A   0      -4.864   6.155  70.801  1.00  0.00     0.000 HD 
HETATM   14  C   UNK A   0      -8.483   5.315  73.103  1.00  0.00    -0.114 C  
HETATM   15  N   UNK A   0      -7.290   5.783  70.707  1.00  0.00    -0.082 NA 
HETATM   16  N   UNK A   0      -5.275   5.989  71.719  1.00  0.00    -0.020 NA 
HETATM   17  N   UNK A   0      -7.120   5.544  73.027  1.00  0.00    -0.084 N  
ENDROOT
BRANCH   3  18
HETATM   18  C   UNK A   0     -11.386   7.775  70.815  1.00  0.00    -0.279 C  
BRANCH  18  19
HETATM   19  N   UNK A   0      -9.994   8.256  70.915  1.00  0.00    -0.187 NA 
HETATM   20  H   UNK A   0      -9.320   7.811  71.538  1.00  0.00     0.000 HD 
BRANCH  19  21
HETATM   21  C   UNK A   0      -9.641   9.352  70.113  1.00  0.00    -0.238 A  
HETATM   22  C   UNK A   0     -10.397  11.199  68.716  1.00  0.00    -0.222 A  
HETATM   23  C   UNK A   0      -9.075  11.607  68.535  1.00  0.00    -0.157 A  
HETATM   24  C   UNK A   0      -8.319   9.694  69.813  1.00  0.00    -0.183 A  
HETATM   25  C   UNK A   0     -10.671  10.069  69.493  1.00  0.00    -0.269 A  
HETATM   26  C   UNK A   0      -8.033  10.822  69.041  1.00  0.00    -0.137 A  
BRANCH  23  27
HETATM   27  C   UNK A   0      -8.790  12.859  67.790  1.00  0.00    -0.188 C  
ATOM     28  H   GLU A   1     -10.815  13.354  67.822  1.00  0.00     0.000 HD 
ATOM     29  N   GLU A   1      -9.896  13.637  67.483  1.00  0.00    -0.223 N  
HETATM   30  O   UNK A   0      -7.648  13.177  67.499  1.00  0.00    -0.148 OA 
BRANCH  29  31
ATOM     31  CA  GLU A   1      -9.768  14.868  66.673  1.00  0.00    -0.261 C  
ATOM     32  C   GLU A   1     -10.588  16.011  67.318  1.00  0.00    -0.313 C  
ATOM     33  O   GLU A   1     -11.304  15.631  68.401  1.00  0.00    -0.330 OA 
ATOM     34  OXT GLU A   1     -10.641  17.152  66.880  1.00  0.00    -0.297 OA 
BRANCH  31  35
ATOM     35  CB  GLU A   1     -10.232  14.595  65.230  1.00  0.00    -0.421 C  
BRANCH  35  36
ATOM     36  CG  GLU A   1     -11.090  13.332  65.088  1.00  0.00    -0.315 C  
ATOM     37  CD  GLU A   1     -12.264  13.525  64.162  1.00  0.00    -0.394 C  
ATOM     38  OE2 GLU A   1     -12.549  14.566  63.592  1.00  0.00    -0.798 OA 
ATOM     39  OE1 GLU A   1     -12.987  12.386  64.015  1.00  0.00    -0.748 OA 
ENDBRANCH  35  36
ENDBRANCH  31  35
ENDBRANCH  29  31
ENDBRANCH  23  27
ENDBRANCH  19  21
ENDBRANCH  18  19
ENDBRANCH   3  18
TORSDOF 7
ENDMDL
MODEL      158
REMARK 921   NORMALIZED FREE ENERGY PREDICTED BY IDOCK:   -5.13 KCAL/MOL
REMARK 922        TOTAL FREE ENERGY PREDICTED BY IDOCK:   -8.46 KCAL/MOL
REMARK 923 INTER-LIGAND FREE ENERGY PREDICTED BY IDOCK:   -7.46 KCAL/MOL
REMARK 924 INTRA-LIGAND FREE ENERGY PREDICTED BY IDOCK:   -1.01 KCAL/MOL
REMARK 927      BINDING AFFINITY PREDICTED BY RF-SCORE:    0.00 PKD
ROOT
HETATM    1  C   UNK A   0     -10.734  17.215  65.754  1.00  0.00    -0.138 C  
HETATM    2  N   UNK A   0     -10.445  16.337  66.878  1.00  0.00    -0.309 NA 
HETATM    3  C   UNK A   0     -11.436  15.273  67.210  1.00  0.00    -0.224 C  
HETATM    4  O   UNK A   0      -8.048  17.882  66.176  1.00  0.00    -0.421 OA 
HETATM    5  C   UNK A   0     -11.533  15.161  68.753  1.00  0.00    -0.319 C  
HETATM    6  C   UNK A   0      -6.788  16.162  68.847  1.00  0.00    -0.152 C  
HETATM    7  N   UNK A   0     -10.200  15.040  69.370  1.00  0.00    -0.294 NA 
HETATM    8  H   UNK A   0     -10.075  14.478  70.212  1.00  0.00     0.000 HD 
HETATM    9  H2  UNK A   0      -4.756  16.218  69.152  1.00  0.00     0.000 HD 
HETATM   10  C   UNK A   0      -9.112  15.696  68.798  1.00  0.00    -0.208 C  
HETATM   11  H   UNK A   0      -5.899  17.223  67.384  1.00  0.00     0.000 HD 
HETATM   12  C   UNK A   0      -9.236  16.370  67.626  1.00  0.00    -0.199 C  
HETATM   13  H1  UNK A   0      -5.656  15.320  70.370  1.00  0.00     0.000 HD 
HETATM   14  C   UNK A   0      -7.981  17.112  67.132  1.00  0.00    -0.191 C  
HETATM   15  N   UNK A   0      -7.895  15.633  69.410  1.00  0.00    -0.230 NA 
HETATM   16  N   UNK A   0      -5.646  15.874  69.514  1.00  0.00    -0.118 NA 
HETATM   17  N   UNK A   0      -6.775  16.862  67.765  1.00  0.00    -0.140 N  
ENDROOT
BRANCH   3  18
HETATM   18  C   UNK A   0     -11.018  13.923  66.567  1.00  0.00    -0.300 C  
BRANCH  18  19
HETATM   19  N   UNK A   0     -11.911  12.824  66.985  1.00  0.00    -0.391 NA 
HETATM   20  H   UNK A   0     -12.913  12.852  66.799  1.00  0.00     0.000 HD 
BRANCH  19  21
HETATM   21  C   UNK A   0     -11.317  11.740  67.649  1.00  0.00    -0.302 A  
HETATM   22  C   UNK A   0     -10.790  10.680  69.779  1.00  0.00    -0.317 A  
HETATM   23  C   UNK A   0     -10.220   9.601  69.103  1.00  0.00    -0.212 A  
HETATM   24  C   UNK A   0     -10.625  10.718  66.993  1.00  0.00    -0.312 A  
HETATM   25  C   UNK A   0     -11.323  11.747  69.050  1.00  0.00    -0.338 A  
HETATM   26  C   UNK A   0     -10.091   9.645  67.710  1.00  0.00    -0.232 A  
BRANCH  23  27
HETATM   27  C   UNK A   0      -9.739   8.425  69.872  1.00  0.00    -0.179 C  
ATOM     28  H   GLU A   1     -10.820   7.151  68.625  1.00  0.00     0.000 HD 
ATOM     29  N   GLU A   1     -10.224   7.197  69.452  1.00  0.00    -0.184 N  
HETATM   30  O   UNK A   0      -8.950   8.551  70.795  1.00  0.00    -0.144 OA 
BRANCH  29  31
ATOM     31  CA  GLU A   1      -9.895   5.951  70.178  1.00  0.00    -0.176 C  
ATOM     32  C   GLU A   1      -9.799   4.770  69.184  1.00  0.00    -0.184 C  
ATOM     33  O   GLU A   1     -10.121   5.095  67.910  1.00  0.00    -0.161 OA 
ATOM     34  OXT GLU A   1      -9.510   3.624  69.500  1.00  0.00    -0.166 OA 
BRANCH  31  35
ATOM     35  CB  GLU A   1     -10.954   5.681  71.262  1.00  0.00    -0.251 C  
BRANCH  35  36
ATOM     36  CG  GLU A   1     -10.395   5.710  72.690  1.00  0.00    -0.235 C  
ATOM     37  CD  GLU A   1     -10.251   4.333  73.288  1.00  0.00    -0.156 C  
ATOM     38  OE2 GLU A   1     -10.562   3.290  72.739  1.00  0.00    -0.152 OA 
ATOM     39  OE1 GLU A   1      -9.715   4.376  74.534  1.00  0.00    -0.122 OA 
ENDBRANCH  35  36
ENDBRANCH  31  35
ENDBRANCH  29  31
ENDBRANCH  23  27
ENDBRANCH  19  21
ENDBRANCH  18  19
ENDBRANCH   3  18
TORSDOF 7
ENDMDL
MODEL      159
REMARK 921   NORMALIZED FREE ENERGY PREDICTED BY IDOCK:   -5.12 KCAL/MOL
REMARK 922        TOTAL FREE ENERGY PREDICTED BY IDOCK:   -8.45 KCAL/MOL
REMARK 923 INTER-LIGAND FREE ENERGY PREDICTED BY IDOCK:   -8.30 KCAL/MOL
REMARK 924 INTRA-LIGAND FREE ENERGY PREDICTED BY IDOCK:   -0.15 KCAL/MOL
REMARK 927      BINDING AFFINITY PREDICTED BY RF-SCORE:    0.00 PKD
ROOT
HETATM    1  C   UNK A   0     -10.759  16.393  65.185  1.00  0.00    -0.291 C  
HETATM    2  N   UNK A   0     -11.016  15.271  66.075  1.00  0.00    -0.332 NA 
HETATM    3  C   UNK A   0     -10.999  13.897  65.495  1.00  0.00    -0.302 C  
HETATM    4  O   UNK A   0     -10.556  17.707  67.650  1.00  0.00    -0.369 OA 
HETATM    5  C   UNK A   0     -12.134  13.074  66.156  1.00  0.00    -0.409 C  
HETATM    6  C   UNK A   0     -11.185  15.544  70.219  1.00  0.00    -0.326 C  
HETATM    7  N   UNK A   0     -12.087  13.172  67.625  1.00  0.00    -0.296 NA 
HETATM    8  H   UNK A   0     -12.365  12.377  68.200  1.00  0.00     0.000 HD 
HETATM    9  H2  UNK A   0     -10.769  16.178  72.131  1.00  0.00     0.000 HD 
HETATM   10  C   UNK A   0     -11.661  14.355  68.225  1.00  0.00    -0.341 C  
HETATM   11  H   UNK A   0     -10.380  17.390  70.175  1.00  0.00     0.000 HD 
HETATM   12  C   UNK A   0     -11.197  15.392  67.481  1.00  0.00    -0.302 C  
HETATM   13  H1  UNK A   0     -11.483  14.572  72.030  1.00  0.00     0.000 HD 
HETATM   14  C   UNK A   0     -10.823  16.670  68.253  1.00  0.00    -0.356 C  
HETATM   15  N   UNK A   0     -11.682  14.462  69.584  1.00  0.00    -0.290 NA 
HETATM   16  N   UNK A   0     -11.145  15.416  71.567  1.00  0.00    -0.455 NA 
HETATM   17  N   UNK A   0     -10.757  16.611  69.634  1.00  0.00    -0.325 N  
ENDROOT
BRANCH   3  18
HETATM   18  C   UNK A   0      -9.612  13.233  65.715  1.00  0.00    -0.049 C  
BRANCH  18  19
HETATM   19  N   UNK A   0      -9.622  11.812  65.314  1.00  0.00    -0.346 NA 
HETATM   20  H   UNK A   0      -9.647  11.535  64.333  1.00  0.00     0.000 HD 
BRANCH  19  21
HETATM   21  C   UNK A   0      -9.595  10.861  66.345  1.00  0.00    -0.197 A  
HETATM   22  C   UNK A   0      -8.533  10.092  68.399  1.00  0.00    -0.112 A  
HETATM   23  C   UNK A   0      -9.468   9.061  68.499  1.00  0.00    -0.148 A  
HETATM   24  C   UNK A   0     -10.438   9.747  66.389  1.00  0.00    -0.190 A  
HETATM   25  C   UNK A   0      -8.594  10.977  67.319  1.00  0.00    -0.130 A  
HETATM   26  C   UNK A   0     -10.388   8.858  67.465  1.00  0.00    -0.328 A  
BRANCH  23  27
HETATM   27  C   UNK A   0      -9.462   8.180  69.694  1.00  0.00    -0.159 C  
ATOM     28  H   GLU A   1     -11.520   7.898  69.513  1.00  0.00     0.000 HD 
ATOM     29  N   GLU A   1     -10.699   7.689  70.081  1.00  0.00    -0.237 N  
HETATM   30  O   UNK A   0      -8.422   7.899  70.270  1.00  0.00    -0.125 OA 
BRANCH  29  31
ATOM     31  CA  GLU A   1     -10.852   6.867  71.302  1.00  0.00    -0.234 C  
ATOM     32  C   GLU A   1     -10.848   7.775  72.554  1.00  0.00    -0.328 C  
ATOM     33  O   GLU A   1     -10.615   9.081  72.286  1.00  0.00    -0.269 OA 
ATOM     34  OXT GLU A   1     -10.989   7.370  73.700  1.00  0.00    -0.306 OA 
BRANCH  31  35
ATOM     35  CB  GLU A   1      -9.728   5.817  71.370  1.00  0.00    -0.203 C  
BRANCH  35  36
ATOM     36  CG  GLU A   1     -10.071   4.502  70.661  1.00  0.00    -0.232 C  
ATOM     37  CD  GLU A   1      -9.015   4.080  69.670  1.00  0.00    -0.101 C  
ATOM     38  OE2 GLU A   1      -8.000   4.707  69.412  1.00  0.00    -0.065 OA 
ATOM     39  OE1 GLU A   1      -9.315   2.894  69.084  1.00  0.00    -0.145 OA 
ENDBRANCH  35  36
ENDBRANCH  31  35
ENDBRANCH  29  31
ENDBRANCH  23  27
ENDBRANCH  19  21
ENDBRANCH  18  19
ENDBRANCH   3  18
TORSDOF 7
ENDMDL
MODEL      160
REMARK 921   NORMALIZED FREE ENERGY PREDICTED BY IDOCK:   -5.12 KCAL/MOL
REMARK 922        TOTAL FREE ENERGY PREDICTED BY IDOCK:   -8.45 KCAL/MOL
REMARK 923 INTER-LIGAND FREE ENERGY PREDICTED BY IDOCK:   -7.51 KCAL/MOL
REMARK 924 INTRA-LIGAND FREE ENERGY PREDICTED BY IDOCK:   -0.94 KCAL/MOL
REMARK 927      BINDING AFFINITY PREDICTED BY RF-SCORE:    0.00 PKD
ROOT
HETATM    1  C   UNK A   0     -11.845  13.045  70.048  1.00  0.00    -0.285 C  
HETATM    2  N   UNK A   0     -10.815  13.597  69.181  1.00  0.00    -0.395 NA 
HETATM    3  C   UNK A   0     -10.179  12.690  68.183  1.00  0.00    -0.240 C  
HETATM    4  O   UNK A   0     -12.216  15.771  70.571  1.00  0.00    -0.387 OA 
HETATM    5  C   UNK A   0      -8.667  13.026  68.112  1.00  0.00    -0.190 C  
HETATM    6  C   UNK A   0      -9.941  17.647  68.846  1.00  0.00    -0.324 C  
HETATM    7  N   UNK A   0      -8.444  14.471  67.930  1.00  0.00    -0.152 NA 
HETATM    8  H   UNK A   0      -7.649  14.800  67.381  1.00  0.00     0.000 HD 
HETATM    9  H2  UNK A   0     -10.218  19.684  68.794  1.00  0.00     0.000 HD 
HETATM   10  C   UNK A   0      -9.321  15.384  68.510  1.00  0.00    -0.198 C  
HETATM   11  H   UNK A   0     -11.633  18.138  69.821  1.00  0.00     0.000 HD 
HETATM   12  C   UNK A   0     -10.436  14.968  69.163  1.00  0.00    -0.247 C  
HETATM   13  H1  UNK A   0      -8.764  19.120  67.976  1.00  0.00     0.000 HD 
HETATM   14  C   UNK A   0     -11.289  16.067  69.822  1.00  0.00    -0.331 C  
HETATM   15  N   UNK A   0      -9.072  16.719  68.393  1.00  0.00    -0.225 NA 
HETATM   16  N   UNK A   0      -9.610  18.916  68.509  1.00  0.00    -0.359 NA 
HETATM   17  N   UNK A   0     -11.010  17.389  69.519  1.00  0.00    -0.163 N  
ENDROOT
BRANCH   3  18
HETATM   18  C   UNK A   0     -10.862  12.845  66.797  1.00  0.00    -0.267 C  
BRANCH  18  19
HETATM   19  N   UNK A   0     -11.530  11.597  66.379  1.00  0.00    -0.420 NA 
HETATM   20  H   UNK A   0     -12.516  11.583  66.118  1.00  0.00     0.000 HD 
BRANCH  19  21
HETATM   21  C   UNK A   0     -10.748  10.433  66.358  1.00  0.00    -0.064 A  
HETATM   22  C   UNK A   0     -10.187   8.319  67.434  1.00  0.00    -0.326 A  
HETATM   23  C   UNK A   0      -9.291   8.031  66.404  1.00  0.00    -0.259 A  
HETATM   24  C   UNK A   0      -9.752  10.190  65.408  1.00  0.00    -0.355 A  
HETATM   25  C   UNK A   0     -10.901   9.522  67.411  1.00  0.00    -0.215 A  
HETATM   26  C   UNK A   0      -9.035   8.991  65.419  1.00  0.00    -0.249 A  
BRANCH  23  27
HETATM   27  C   UNK A   0      -8.605   6.714  66.378  1.00  0.00    -0.130 C  
ATOM     28  H   GLU A   1     -10.411   5.750  66.770  1.00  0.00     0.000 HD 
ATOM     29  N   GLU A   1      -9.409   5.616  66.637  1.00  0.00    -0.139 N  
HETATM   30  O   UNK A   0      -7.415   6.624  66.119  1.00  0.00    -0.078 OA 
BRANCH  29  31
ATOM     31  CA  GLU A   1      -8.843   4.252  66.725  1.00  0.00    -0.116 C  
ATOM     32  C   GLU A   1      -9.178   3.458  65.440  1.00  0.00    -0.152 C  
ATOM     33  O   GLU A   1      -9.975   4.124  64.573  1.00  0.00    -0.182 OA 
ATOM     34  OXT GLU A   1      -8.810   2.311  65.223  1.00  0.00    -0.114 OA 
BRANCH  31  35
ATOM     35  CB  GLU A   1      -9.386   3.540  67.977  1.00  0.00    -0.237 C  
BRANCH  35  36
ATOM     36  CG  GLU A   1      -8.759   4.034  69.286  1.00  0.00    -0.124 C  
ATOM     37  CD  GLU A   1      -9.688   4.917  70.082  1.00  0.00    -0.213 C  
ATOM     38  OE2 GLU A   1     -10.811   5.248  69.740  1.00  0.00    -0.235 OA 
ATOM     39  OE1 GLU A   1      -9.131   5.309  71.256  1.00  0.00    -0.140 OA 
ENDBRANCH  35  36
ENDBRANCH  31  35
ENDBRANCH  29  31
ENDBRANCH  23  27
ENDBRANCH  19  21
ENDBRANCH  18  19
ENDBRANCH   3  18
TORSDOF 7
ENDMDL
MODEL      161
REMARK 921   NORMALIZED FREE ENERGY PREDICTED BY IDOCK:   -5.12 KCAL/MOL
REMARK 922        TOTAL FREE ENERGY PREDICTED BY IDOCK:   -8.45 KCAL/MOL
REMARK 923 INTER-LIGAND FREE ENERGY PREDICTED BY IDOCK:   -7.85 KCAL/MOL
REMARK 924 INTRA-LIGAND FREE ENERGY PREDICTED BY IDOCK:   -0.60 KCAL/MOL
REMARK 927      BINDING AFFINITY PREDICTED BY RF-SCORE:    0.00 PKD
ROOT
HETATM    1  C   UNK A   0      -7.600   8.420  71.405  1.00  0.00    -0.097 C  
HETATM    2  N   UNK A   0      -8.977   7.958  71.490  1.00  0.00    -0.132 NA 
HETATM    3  C   UNK A   0      -9.979   8.565  70.567  1.00  0.00    -0.188 C  
HETATM    4  O   UNK A   0      -7.226   6.159  73.013  1.00  0.00    -0.083 OA 
HETATM    5  C   UNK A   0     -11.305   8.758  71.345  1.00  0.00    -0.294 C  
HETATM    6  C   UNK A   0     -10.217   4.647  73.674  1.00  0.00    -0.179 C  
HETATM    7  N   UNK A   0     -11.708   7.523  72.039  1.00  0.00    -0.284 NA 
HETATM    8  H   UNK A   0     -12.697   7.295  72.145  1.00  0.00     0.000 HD 
HETATM    9  H2  UNK A   0     -10.180   2.785  74.547  1.00  0.00     0.000 HD 
HETATM   10  C   UNK A   0     -10.734   6.668  72.549  1.00  0.00    -0.229 C  
HETATM   11  H   UNK A   0      -8.314   4.032  73.909  1.00  0.00     0.000 HD 
HETATM   12  C   UNK A   0      -9.414   6.902  72.337  1.00  0.00    -0.139 C  
HETATM   13  H1  UNK A   0     -11.793   3.441  74.289  1.00  0.00     0.000 HD 
HETATM   14  C   UNK A   0      -8.433   5.927  73.011  1.00  0.00    -0.117 C  
HETATM   15  N   UNK A   0     -11.114   5.560  73.248  1.00  0.00    -0.392 NA 
HETATM   16  N   UNK A   0     -10.781   3.539  74.212  1.00  0.00    -0.191 NA 
HETATM   17  N   UNK A   0      -8.938   4.769  73.577  1.00  0.00    -0.108 N  
ENDROOT
BRANCH   3  18
HETATM   18  C   UNK A   0     -10.178   7.665  69.317  1.00  0.00    -0.210 C  
BRANCH  18  19
HETATM   19  N   UNK A   0     -10.941   8.362  68.262  1.00  0.00    -0.439 NA 
HETATM   20  H   UNK A   0     -11.629   7.873  67.691  1.00  0.00     0.000 HD 
BRANCH  19  21
HETATM   21  C   UNK A   0     -10.674   9.728  68.082  1.00  0.00    -0.233 A  
HETATM   22  C   UNK A   0      -9.130  11.425  67.262  1.00  0.00    -0.162 A  
HETATM   23  C   UNK A   0     -10.041  12.424  67.606  1.00  0.00    -0.199 A  
HETATM   24  C   UNK A   0     -11.516  10.745  68.541  1.00  0.00    -0.362 A  
HETATM   25  C   UNK A   0      -9.446  10.087  67.513  1.00  0.00    -0.169 A  
HETATM   26  C   UNK A   0     -11.212  12.086  68.294  1.00  0.00    -0.315 A  
BRANCH  23  27
HETATM   27  C   UNK A   0      -9.748  13.836  67.254  1.00  0.00    -0.242 C  
ATOM     28  H   GLU A   1      -9.680  14.340  69.277  1.00  0.00     0.000 HD 
ATOM     29  N   GLU A   1      -9.625  14.706  68.326  1.00  0.00    -0.202 N  
HETATM   30  O   UNK A   0      -9.604  14.183  66.093  1.00  0.00    -0.291 OA 
BRANCH  29  31
ATOM     31  CA  GLU A   1      -9.416  16.156  68.120  1.00  0.00    -0.209 C  
ATOM     32  C   GLU A   1      -8.129  16.612  68.847  1.00  0.00    -0.235 C  
ATOM     33  O   GLU A   1      -7.535  15.640  69.577  1.00  0.00    -0.213 OA 
ATOM     34  OXT GLU A   1      -7.692  17.755  68.823  1.00  0.00    -0.278 OA 
BRANCH  31  35
ATOM     35  CB  GLU A   1     -10.645  16.938  68.619  1.00  0.00    -0.360 C  
BRANCH  35  36
ATOM     36  CG  GLU A   1     -11.839  16.044  68.976  1.00  0.00    -0.258 C  
ATOM     37  CD  GLU A   1     -11.982  15.829  70.462  1.00  0.00    -0.371 C  
ATOM     38  OE2 GLU A   1     -11.233  16.276  71.315  1.00  0.00    -0.290 OA 
ATOM     39  OE1 GLU A   1     -13.068  15.072  70.762  1.00  0.00    -0.379 OA 
ENDBRANCH  35  36
ENDBRANCH  31  35
ENDBRANCH  29  31
ENDBRANCH  23  27
ENDBRANCH  19  21
ENDBRANCH  18  19
ENDBRANCH   3  18
TORSDOF 7
ENDMDL
MODEL      162
REMARK 921   NORMALIZED FREE ENERGY PREDICTED BY IDOCK:   -5.12 KCAL/MOL
REMARK 922        TOTAL FREE ENERGY PREDICTED BY IDOCK:   -8.45 KCAL/MOL
REMARK 923 INTER-LIGAND FREE ENERGY PREDICTED BY IDOCK:   -7.50 KCAL/MOL
REMARK 924 INTRA-LIGAND FREE ENERGY PREDICTED BY IDOCK:   -0.95 KCAL/MOL
REMARK 927      BINDING AFFINITY PREDICTED BY RF-SCORE:    0.00 PKD
ROOT
HETATM    1  C   UNK A   0      -9.474  11.375  64.328  1.00  0.00    -0.133 C  
HETATM    2  N   UNK A   0      -9.612  12.186  65.529  1.00  0.00    -0.390 NA 
HETATM    3  C   UNK A   0     -10.831  13.033  65.666  1.00  0.00    -0.273 C  
HETATM    4  O   UNK A   0      -7.430  10.251  65.878  1.00  0.00    -0.122 OA 
HETATM    5  C   UNK A   0     -10.417  14.384  66.304  1.00  0.00    -0.290 C  
HETATM    6  C   UNK A   0      -7.179  11.858  68.882  1.00  0.00    -0.098 C  
HETATM    7  N   UNK A   0      -9.612  14.181  67.521  1.00  0.00    -0.219 NA 
HETATM    8  H   UNK A   0      -9.686  14.836  68.299  1.00  0.00     0.000 HD 
HETATM    9  H2  UNK A   0      -5.988  11.009  70.328  1.00  0.00     0.000 HD 
HETATM   10  C   UNK A   0      -8.747  13.092  67.603  1.00  0.00    -0.192 C  
HETATM   11  H   UNK A   0      -6.417  10.117  68.215  1.00  0.00     0.000 HD 
HETATM   12  C   UNK A   0      -8.701  12.156  66.621  1.00  0.00    -0.153 C  
HETATM   13  H1  UNK A   0      -6.715  12.546  70.786  1.00  0.00     0.000 HD 
HETATM   14  C   UNK A   0      -7.657  11.039  66.793  1.00  0.00    -0.139 C  
HETATM   15  N   UNK A   0      -7.956  12.947  68.705  1.00  0.00    -0.300 NA 
HETATM   16  N   UNK A   0      -6.582  11.806  70.097  1.00  0.00    -0.451 NA 
HETATM   17  N   UNK A   0      -7.011  10.923  68.012  1.00  0.00    -0.071 N  
ENDROOT
BRANCH   3  18
HETATM   18  C   UNK A   0     -11.904  12.306  66.521  1.00  0.00    -0.306 C  
BRANCH  18  19
HETATM   19  N   UNK A   0     -11.737  12.592  67.960  1.00  0.00    -0.341 NA 
HETATM   20  H   UNK A   0     -11.698  13.549  68.312  1.00  0.00     0.000 HD 
BRANCH  19  21
HETATM   21  C   UNK A   0     -11.634  11.489  68.820  1.00  0.00    -0.316 A  
HETATM   22  C   UNK A   0     -11.035   9.141  69.082  1.00  0.00    -0.057 A  
HETATM   23  C   UNK A   0     -11.322   9.218  70.445  1.00  0.00    -0.283 A  
HETATM   24  C   UNK A   0     -12.043  11.512  70.157  1.00  0.00    -0.432 A  
HETATM   25  C   UNK A   0     -11.204  10.272  68.277  1.00  0.00    -0.295 A  
HETATM   26  C   UNK A   0     -11.876  10.389  70.972  1.00  0.00    -0.458 A  
BRANCH  23  27
HETATM   27  C   UNK A   0     -11.052   8.046  71.318  1.00  0.00    -0.247 C  
ATOM     28  H   GLU A   1      -9.023   8.524  71.353  1.00  0.00     0.000 HD 
ATOM     29  N   GLU A   1      -9.723   7.847  71.657  1.00  0.00    -0.158 N  
HETATM   30  O   UNK A   0     -11.958   7.333  71.718  1.00  0.00    -0.283 OA 
BRANCH  29  31
ATOM     31  CA  GLU A   1      -9.300   6.673  72.451  1.00  0.00    -0.141 C  
ATOM     32  C   GLU A   1      -8.503   7.136  73.693  1.00  0.00    -0.140 C  
ATOM     33  O   GLU A   1      -8.283   8.470  73.740  1.00  0.00    -0.376 OA 
ATOM     34  OXT GLU A   1      -8.055   6.380  74.546  1.00  0.00    -0.114 OA 
BRANCH  31  35
ATOM     35  CB  GLU A   1      -8.465   5.722  71.575  1.00  0.00    -0.128 C  
BRANCH  35  36
ATOM     36  CG  GLU A   1      -8.738   5.871  70.073  1.00  0.00    -0.133 C  
ATOM     37  CD  GLU A   1      -9.335   4.627  69.462  1.00  0.00    -0.141 C  
ATOM     38  OE2 GLU A   1      -9.563   3.588  70.060  1.00  0.00    -0.188 OA 
ATOM     39  OE1 GLU A   1      -9.609   4.792  68.144  1.00  0.00    -0.135 OA 
ENDBRANCH  35  36
ENDBRANCH  31  35
ENDBRANCH  29  31
ENDBRANCH  23  27
ENDBRANCH  19  21
ENDBRANCH  18  19
ENDBRANCH   3  18
TORSDOF 7
ENDMDL
MODEL      163
REMARK 921   NORMALIZED FREE ENERGY PREDICTED BY IDOCK:   -5.12 KCAL/MOL
REMARK 922        TOTAL FREE ENERGY PREDICTED BY IDOCK:   -8.45 KCAL/MOL
REMARK 923 INTER-LIGAND FREE ENERGY PREDICTED BY IDOCK:   -7.65 KCAL/MOL
REMARK 924 INTRA-LIGAND FREE ENERGY PREDICTED BY IDOCK:   -0.80 KCAL/MOL
REMARK 927      BINDING AFFINITY PREDICTED BY RF-SCORE:    0.00 PKD
ROOT
HETATM    1  C   UNK A   0      -7.186   7.466  67.428  1.00  0.00    -0.093 C  
HETATM    2  N   UNK A   0      -8.396   6.670  67.575  1.00  0.00    -0.121 NA 
HETATM    3  C   UNK A   0      -9.605   7.331  68.144  1.00  0.00    -0.140 C  
HETATM    4  O   UNK A   0      -6.450   5.229  65.913  1.00  0.00    -0.038 OA 
HETATM    5  C   UNK A   0     -10.319   6.322  69.079  1.00  0.00    -0.206 C  
HETATM    6  C   UNK A   0      -8.926   2.875  65.965  1.00  0.00    -0.146 C  
HETATM    7  N   UNK A   0     -10.526   5.024  68.414  1.00  0.00    -0.019 NA 
HETATM    8  H   UNK A   0     -11.354   4.467  68.624  1.00  0.00     0.000 HD 
HETATM    9  H2  UNK A   0      -8.774   1.293  64.660  1.00  0.00     0.000 HD 
HETATM   10  C   UNK A   0      -9.586   4.560  67.497  1.00  0.00    -0.172 C  
HETATM   11  H   UNK A   0      -7.291   3.087  64.810  1.00  0.00     0.000 HD 
HETATM   12  C   UNK A   0      -8.526   5.325  67.130  1.00  0.00    -0.106 C  
HETATM   13  H1  UNK A   0     -10.167   1.226  65.735  1.00  0.00     0.000 HD 
HETATM   14  C   UNK A   0      -7.519   4.676  66.164  1.00  0.00    -0.082 C  
HETATM   15  N   UNK A   0      -9.749   3.329  66.934  1.00  0.00    -0.395 NA 
HETATM   16  N   UNK A   0      -9.326   1.705  65.413  1.00  0.00    -0.301 NA 
HETATM   17  N   UNK A   0      -7.863   3.480  65.558  1.00  0.00    -0.088 N  
ENDROOT
BRANCH   3  18
HETATM   18  C   UNK A   0     -10.545   7.815  67.006  1.00  0.00    -0.326 C  
BRANCH  18  19
HETATM   19  N   UNK A   0      -9.799   8.540  65.958  1.00  0.00    -0.472 NA 
HETATM   20  H   UNK A   0      -9.194   8.051  65.299  1.00  0.00     0.000 HD 
BRANCH  19  21
HETATM   21  C   UNK A   0      -9.961   9.933  65.912  1.00  0.00    -0.277 A  
HETATM   22  C   UNK A   0     -10.085  12.026  67.153  1.00  0.00    -0.217 A  
HETATM   23  C   UNK A   0     -10.213  12.731  65.956  1.00  0.00    -0.290 A  
HETATM   24  C   UNK A   0     -10.224  10.640  64.735  1.00  0.00    -0.401 A  
HETATM   25  C   UNK A   0      -9.973  10.633  67.125  1.00  0.00    -0.234 A  
HETATM   26  C   UNK A   0     -10.335  12.033  64.750  1.00  0.00    -0.318 A  
BRANCH  23  27
HETATM   27  C   UNK A   0     -10.237  14.216  65.979  1.00  0.00    -0.308 C  
ATOM     28  H   GLU A   1      -9.603  14.208  67.966  1.00  0.00     0.000 HD 
ATOM     29  N   GLU A   1      -9.900  14.800  67.190  1.00  0.00    -0.230 N  
HETATM   30  O   UNK A   0     -10.514  14.861  64.981  1.00  0.00    -0.393 OA 
BRANCH  29  31
ATOM     31  CA  GLU A   1      -9.962  16.266  67.380  1.00  0.00    -0.249 C  
ATOM     32  C   GLU A   1      -8.658  16.768  68.043  1.00  0.00    -0.210 C  
ATOM     33  O   GLU A   1      -7.800  15.780  68.387  1.00  0.00    -0.130 OA 
ATOM     34  OXT GLU A   1      -8.418  17.942  68.291  1.00  0.00    -0.262 OA 
BRANCH  31  35
ATOM     35  CB  GLU A   1     -11.195  16.632  68.228  1.00  0.00    -0.220 C  
BRANCH  35  36
ATOM     36  CG  GLU A   1     -11.056  16.257  69.708  1.00  0.00    -0.337 C  
ATOM     37  CD  GLU A   1     -11.802  14.995  70.063  1.00  0.00    -0.319 C  
ATOM     38  OE2 GLU A   1     -12.477  14.334  69.291  1.00  0.00    -0.241 OA 
ATOM     39  OE1 GLU A   1     -11.633  14.656  71.366  1.00  0.00    -0.303 OA 
ENDBRANCH  35  36
ENDBRANCH  31  35
ENDBRANCH  29  31
ENDBRANCH  23  27
ENDBRANCH  19  21
ENDBRANCH  18  19
ENDBRANCH   3  18
TORSDOF 7
ENDMDL
MODEL      164
REMARK 921   NORMALIZED FREE ENERGY PREDICTED BY IDOCK:   -5.12 KCAL/MOL
REMARK 922        TOTAL FREE ENERGY PREDICTED BY IDOCK:   -8.44 KCAL/MOL
REMARK 923 INTER-LIGAND FREE ENERGY PREDICTED BY IDOCK:   -7.19 KCAL/MOL
REMARK 924 INTRA-LIGAND FREE ENERGY PREDICTED BY IDOCK:   -1.25 KCAL/MOL
REMARK 927      BINDING AFFINITY PREDICTED BY RF-SCORE:    0.00 PKD
ROOT
HETATM    1  C   UNK A   0     -11.023  15.978  67.773  1.00  0.00    -0.307 C  
HETATM    2  N   UNK A   0     -11.324  14.726  67.095  1.00  0.00    -0.347 NA 
HETATM    3  C   UNK A   0     -11.365  14.729  65.604  1.00  0.00    -0.343 C  
HETATM    4  O   UNK A   0     -10.762  14.213  69.931  1.00  0.00     0.020 OA 
HETATM    5  C   UNK A   0     -12.531  13.816  65.146  1.00  0.00    -0.450 C  
HETATM    6  C   UNK A   0     -11.473  11.015  68.961  1.00  0.00    -0.299 C  
HETATM    7  N   UNK A   0     -12.477  12.500  65.805  1.00  0.00    -0.566 NA 
HETATM    8  H   UNK A   0     -12.786  11.665  65.306  1.00  0.00     0.000 HD 
HETATM    9  H2  UNK A   0     -11.027   9.493  70.269  1.00  0.00     0.000 HD 
HETATM   10  C   UNK A   0     -12.002  12.399  67.110  1.00  0.00    -0.177 C  
HETATM   11  H   UNK A   0     -10.594  11.760  70.612  1.00  0.00     0.000 HD 
HETATM   12  C   UNK A   0     -11.497  13.480  67.759  1.00  0.00    -0.315 C  
HETATM   13  H1  UNK A   0     -11.808   8.974  68.779  1.00  0.00     0.000 HD 
HETATM   14  C   UNK A   0     -11.070  13.259  69.220  1.00  0.00    -0.153 C  
HETATM   15  N   UNK A   0     -12.015  11.188  67.737  1.00  0.00    -0.652 NA 
HETATM   16  N   UNK A   0     -11.436   9.723  69.363  1.00  0.00    -0.446 NA 
HETATM   17  N   UNK A   0     -11.003  11.962  69.699  1.00  0.00    -0.467 N  
ENDROOT
BRANCH   3  18
HETATM   18  C   UNK A   0     -10.006  14.249  65.024  1.00  0.00    -0.173 C  
BRANCH  18  19
HETATM   19  N   UNK A   0     -10.190  13.169  64.035  1.00  0.00    -0.725 NA 
HETATM   20  H   UNK A   0     -10.843  13.264  63.257  1.00  0.00     0.000 HD 
BRANCH  19  21
HETATM   21  C   UNK A   0      -9.425  12.007  64.213  1.00  0.00     0.139 A  
HETATM   22  C   UNK A   0      -8.110  10.237  63.174  1.00  0.00    -0.158 A  
HETATM   23  C   UNK A   0      -7.823   9.708  64.433  1.00  0.00    -0.129 A  
HETATM   24  C   UNK A   0      -9.239  11.388  65.453  1.00  0.00    -0.167 A  
HETATM   25  C   UNK A   0      -8.917  11.374  63.071  1.00  0.00    -0.150 A  
HETATM   26  C   UNK A   0      -8.432  10.253  65.569  1.00  0.00    -0.167 A  
BRANCH  23  27
HETATM   27  C   UNK A   0      -6.890   8.559  64.550  1.00  0.00    -0.069 C  
ATOM     28  H   GLU A   1      -8.442   7.237  64.112  1.00  0.00     0.000 HD 
ATOM     29  N   GLU A   1      -7.457   7.307  64.368  1.00  0.00    -0.089 N  
HETATM   30  O   UNK A   0      -5.701   8.728  64.768  1.00  0.00    -0.060 OA 
BRANCH  29  31
ATOM     31  CA  GLU A   1      -6.662   6.071  64.538  1.00  0.00    -0.046 C  
ATOM     32  C   GLU A   1      -6.897   5.124  63.338  1.00  0.00    -0.041 C  
ATOM     33  O   GLU A   1      -7.826   5.568  62.460  1.00  0.00    -0.069 OA 
ATOM     34  OXT GLU A   1      -6.345   4.041  63.196  1.00  0.00    -0.021 OA 
BRANCH  31  35
ATOM     35  CB  GLU A   1      -7.033   5.390  65.867  1.00  0.00    -0.066 C  
BRANCH  35  36
ATOM     36  CG  GLU A   1      -8.334   4.582  65.803  1.00  0.00    -0.114 C  
ATOM     37  CD  GLU A   1      -9.543   5.390  66.203  1.00  0.00    -0.153 C  
ATOM     38  OE2 GLU A   1      -9.524   6.552  66.573  1.00  0.00    -0.161 OA 
ATOM     39  OE1 GLU A   1     -10.690   4.671  66.099  1.00  0.00    -0.269 OA 
ENDBRANCH  35  36
ENDBRANCH  31  35
ENDBRANCH  29  31
ENDBRANCH  23  27
ENDBRANCH  19  21
ENDBRANCH  18  19
ENDBRANCH   3  18
TORSDOF 7
ENDMDL
MODEL      165
REMARK 921   NORMALIZED FREE ENERGY PREDICTED BY IDOCK:   -5.11 KCAL/MOL
REMARK 922        TOTAL FREE ENERGY PREDICTED BY IDOCK:   -8.43 KCAL/MOL
REMARK 923 INTER-LIGAND FREE ENERGY PREDICTED BY IDOCK:   -7.15 KCAL/MOL
REMARK 924 INTRA-LIGAND FREE ENERGY PREDICTED BY IDOCK:   -1.29 KCAL/MOL
REMARK 927      BINDING AFFINITY PREDICTED BY RF-SCORE:    0.00 PKD
ROOT
HETATM    1  C   UNK A   0      -9.785   3.813  70.087  1.00  0.00    -0.147 C  
HETATM    2  N   UNK A   0      -8.576   4.624  70.065  1.00  0.00    -0.076 NA 
HETATM    3  C   UNK A   0      -7.692   4.531  68.867  1.00  0.00    -0.070 C  
HETATM    4  O   UNK A   0     -10.321   5.496  72.260  1.00  0.00    -0.196 OA 
HETATM    5  C   UNK A   0      -6.218   4.573  69.345  1.00  0.00    -0.027 C  
HETATM    6  C   UNK A   0      -7.712   7.635  72.796  1.00  0.00    -0.098 C  
HETATM    7  N   UNK A   0      -5.979   5.704  70.259  1.00  0.00    -0.024 NA 
HETATM    8  H   UNK A   0      -5.076   6.179  70.259  1.00  0.00     0.000 HD 
HETATM    9  H2  UNK A   0      -8.000   9.190  74.110  1.00  0.00     0.000 HD 
HETATM   10  C   UNK A   0      -6.990   6.120  71.122  1.00  0.00    -0.068 C  
HETATM   11  H   UNK A   0      -9.605   7.616  73.483  1.00  0.00     0.000 HD 
HETATM   12  C   UNK A   0      -8.228   5.565  71.072  1.00  0.00    -0.120 C  
HETATM   13  H1  UNK A   0      -6.376   9.091  73.436  1.00  0.00     0.000 HD 
HETATM   14  C   UNK A   0      -9.238   6.059  72.123  1.00  0.00    -0.145 C  
HETATM   15  N   UNK A   0      -6.741   7.124  72.010  1.00  0.00    -0.056 NA 
HETATM   16  N   UNK A   0      -7.326   8.725  73.501  1.00  0.00    -0.374 NA 
HETATM   17  N   UNK A   0      -8.913   7.173  72.878  1.00  0.00    -0.128 N  
ENDROOT
BRANCH   3  18
HETATM   18  C   UNK A   0      -8.001   5.685  67.875  1.00  0.00    -0.097 C  
BRANCH  18  19
HETATM   19  N   UNK A   0      -9.453   5.916  67.747  1.00  0.00    -0.113 NA 
HETATM   20  H   UNK A   0     -10.104   5.146  67.590  1.00  0.00     0.000 HD 
BRANCH  19  21
HETATM   21  C   UNK A   0      -9.898   7.242  67.849  1.00  0.00    -0.144 A  
HETATM   22  C   UNK A   0     -10.293   9.366  66.720  1.00  0.00    -0.303 A  
HETATM   23  C   UNK A   0     -10.815   9.898  67.899  1.00  0.00    -0.312 A  
HETATM   24  C   UNK A   0     -10.298   7.832  69.051  1.00  0.00    -0.219 A  
HETATM   25  C   UNK A   0      -9.827   8.047  66.704  1.00  0.00    -0.322 A  
HETATM   26  C   UNK A   0     -10.768   9.147  69.078  1.00  0.00    -0.176 A  
BRANCH  23  27
HETATM   27  C   UNK A   0     -11.396  11.265  67.892  1.00  0.00    -0.299 C  
ATOM     28  H   GLU A   1     -11.030  11.423  65.845  1.00  0.00     0.000 HD 
ATOM     29  N   GLU A   1     -11.375  11.916  66.669  1.00  0.00    -0.335 N  
HETATM   30  O   UNK A   0     -11.877  11.754  68.901  1.00  0.00    -0.300 OA 
BRANCH  29  31
ATOM     31  CA  GLU A   1     -11.846  13.312  66.533  1.00  0.00    -0.398 C  
ATOM     32  C   GLU A   1     -12.786  13.436  65.311  1.00  0.00    -0.422 C  
ATOM     33  O   GLU A   1     -12.901  12.299  64.588  1.00  0.00    -0.665 OA 
ATOM     34  OXT GLU A   1     -13.348  14.470  64.976  1.00  0.00    -0.369 OA 
BRANCH  31  35
ATOM     35  CB  GLU A   1     -10.639  14.260  66.407  1.00  0.00    -0.286 C  
BRANCH  35  36
ATOM     36  CG  GLU A   1     -10.388  15.107  67.661  1.00  0.00    -0.248 C  
ATOM     37  CD  GLU A   1      -9.326  14.522  68.557  1.00  0.00    -0.203 C  
ATOM     38  OE2 GLU A   1      -8.730  13.476  68.355  1.00  0.00    -0.173 OA 
ATOM     39  OE1 GLU A   1      -9.088  15.306  69.639  1.00  0.00    -0.232 OA 
ENDBRANCH  35  36
ENDBRANCH  31  35
ENDBRANCH  29  31
ENDBRANCH  23  27
ENDBRANCH  19  21
ENDBRANCH  18  19
ENDBRANCH   3  18
TORSDOF 7
ENDMDL
MODEL      166
REMARK 921   NORMALIZED FREE ENERGY PREDICTED BY IDOCK:   -5.09 KCAL/MOL
REMARK 922        TOTAL FREE ENERGY PREDICTED BY IDOCK:   -8.41 KCAL/MOL
REMARK 923 INTER-LIGAND FREE ENERGY PREDICTED BY IDOCK:   -6.99 KCAL/MOL
REMARK 924 INTRA-LIGAND FREE ENERGY PREDICTED BY IDOCK:   -1.42 KCAL/MOL
REMARK 927      BINDING AFFINITY PREDICTED BY RF-SCORE:    0.00 PKD
ROOT
HETATM    1  C   UNK A   0     -11.693   6.539  69.407  1.00  0.00    -0.017 C  
HETATM    2  N   UNK A   0     -10.580   5.626  69.623  1.00  0.00    -0.311 NA 
HETATM    3  C   UNK A   0      -9.907   5.047  68.425  1.00  0.00    -0.147 C  
HETATM    4  O   UNK A   0     -11.251   6.991  72.135  1.00  0.00    -0.241 OA 
HETATM    5  C   UNK A   0      -9.558   3.568  68.729  1.00  0.00    -0.067 C  
HETATM    6  C   UNK A   0      -8.736   4.988  73.293  1.00  0.00    -0.111 C  
HETATM    7  N   UNK A   0      -8.852   3.434  70.015  1.00  0.00    -0.080 NA 
HETATM    8  H   UNK A   0      -8.139   2.713  70.135  1.00  0.00     0.000 HD 
HETATM    9  H2  UNK A   0      -7.995   5.368  75.173  1.00  0.00     0.000 HD 
HETATM   10  C   UNK A   0      -9.161   4.294  71.066  1.00  0.00    -0.140 C  
HETATM   11  H   UNK A   0      -9.650   6.599  74.082  1.00  0.00     0.000 HD 
HETATM   12  C   UNK A   0     -10.036   5.319  70.900  1.00  0.00    -0.226 C  
HETATM   13  H1  UNK A   0      -7.278   3.975  74.369  1.00  0.00     0.000 HD 
HETATM   14  C   UNK A   0     -10.350   6.156  72.153  1.00  0.00    -0.197 C  
HETATM   15  N   UNK A   0      -8.551   4.123  72.274  1.00  0.00    -0.105 NA 
HETATM   16  N   UNK A   0      -7.937   4.753  74.360  1.00  0.00    -0.095 NA 
HETATM   17  N   UNK A   0      -9.569   5.972  73.281  1.00  0.00    -0.143 N  
ENDROOT
BRANCH   3  18
HETATM   18  C   UNK A   0      -8.638   5.868  68.066  1.00  0.00    -0.113 C  
BRANCH  18  19
HETATM   19  N   UNK A   0      -8.883   6.774  66.926  1.00  0.00    -0.116 NA 
HETATM   20  H   UNK A   0      -8.867   6.437  65.964  1.00  0.00     0.000 HD 
BRANCH  19  21
HETATM   21  C   UNK A   0      -9.139   8.120  67.228  1.00  0.00    -0.138 A  
HETATM   22  C   UNK A   0      -8.889   9.948  68.820  1.00  0.00    -0.136 A  
HETATM   23  C   UNK A   0      -9.528  10.813  67.932  1.00  0.00    -0.165 A  
HETATM   24  C   UNK A   0      -9.893   8.965  66.409  1.00  0.00    -0.353 A  
HETATM   25  C   UNK A   0      -8.709   8.607  68.469  1.00  0.00    -0.139 A  
HETATM   26  C   UNK A   0     -10.077  10.308  66.748  1.00  0.00    -0.272 A  
BRANCH  23  27
HETATM   27  C   UNK A   0      -9.635  12.257  68.263  1.00  0.00    -0.212 C  
ATOM     28  H   GLU A   1     -11.562  11.958  69.002  1.00  0.00     0.000 HD 
ATOM     29  N   GLU A   1     -10.846  12.658  68.805  1.00  0.00    -0.241 N  
HETATM   30  O   UNK A   0      -8.699  13.019  68.084  1.00  0.00    -0.180 OA 
BRANCH  29  31
ATOM     31  CA  GLU A   1     -11.121  14.080  69.105  1.00  0.00    -0.259 C  
ATOM     32  C   GLU A   1     -12.023  14.190  70.357  1.00  0.00    -0.330 C  
ATOM     33  O   GLU A   1     -12.438  12.998  70.843  1.00  0.00    -0.367 OA 
ATOM     34  OXT GLU A   1     -12.386  15.248  70.854  1.00  0.00    -0.317 OA 
BRANCH  31  35
ATOM     35  CB  GLU A   1     -11.774  14.755  67.886  1.00  0.00    -0.367 C  
BRANCH  35  36
ATOM     36  CG  GLU A   1     -10.908  15.851  67.252  1.00  0.00    -0.279 C  
ATOM     37  CD  GLU A   1     -10.275  15.417  65.954  1.00  0.00    -0.344 C  
ATOM     38  OE2 GLU A   1     -10.392  14.313  65.446  1.00  0.00    -0.327 OA 
ATOM     39  OE1 GLU A   1      -9.548  16.413  65.387  1.00  0.00    -0.455 OA 
ENDBRANCH  35  36
ENDBRANCH  31  35
ENDBRANCH  29  31
ENDBRANCH  23  27
ENDBRANCH  19  21
ENDBRANCH  18  19
ENDBRANCH   3  18
TORSDOF 7
ENDMDL
MODEL      167
REMARK 921   NORMALIZED FREE ENERGY PREDICTED BY IDOCK:   -5.07 KCAL/MOL
REMARK 922        TOTAL FREE ENERGY PREDICTED BY IDOCK:   -8.37 KCAL/MOL
REMARK 923 INTER-LIGAND FREE ENERGY PREDICTED BY IDOCK:   -7.73 KCAL/MOL
REMARK 924 INTRA-LIGAND FREE ENERGY PREDICTED BY IDOCK:   -0.64 KCAL/MOL
REMARK 927      BINDING AFFINITY PREDICTED BY RF-SCORE:    0.00 PKD
ROOT
HETATM    1  C   UNK A   0      -8.114  16.611  66.257  1.00  0.00    -0.326 C  
HETATM    2  N   UNK A   0      -8.546  17.803  66.971  1.00  0.00    -0.230 NA 
HETATM    3  C   UNK A   0      -9.984  18.188  66.887  1.00  0.00    -0.342 C  
HETATM    4  O   UNK A   0      -5.841  17.049  67.832  1.00  0.00    -0.114 OA 
HETATM    5  C   UNK A   0     -10.070  19.732  66.783  1.00  0.00    -0.444 C  
HETATM    6  C   UNK A   0      -6.216  19.871  69.722  1.00  0.00    -0.352 C  
HETATM    7  N   UNK A   0      -9.269  20.389  67.830  1.00  0.00    -0.212 NA 
HETATM    8  H   UNK A   0      -9.579  21.274  68.233  1.00  0.00     0.000 HD 
HETATM    9  H2  UNK A   0      -4.836  20.222  71.206  1.00  0.00     0.000 HD 
HETATM   10  C   UNK A   0      -8.086  19.798  68.267  1.00  0.00    -0.287 C  
HETATM   11  H   UNK A   0      -4.891  18.356  69.806  1.00  0.00     0.000 HD 
HETATM   12  C   UNK A   0      -7.702  18.577  67.815  1.00  0.00    -0.233 C  
HETATM   13  H1  UNK A   0      -6.054  21.480  71.024  1.00  0.00     0.000 HD 
HETATM   14  C   UNK A   0      -6.342  18.061  68.317  1.00  0.00    -0.189 C  
HETATM   15  N   UNK A   0      -7.315  20.443  69.189  1.00  0.00     0.153 NA 
HETATM   16  N   UNK A   0      -5.662  20.586  70.730  1.00  0.00    -0.521 NA 
HETATM   17  N   UNK A   0      -5.720  18.740  69.350  1.00  0.00    -0.216 N  
ENDROOT
BRANCH   3  18
HETATM   18  C   UNK A   0     -10.760  17.657  68.123  1.00  0.00    -0.307 C  
BRANCH  18  19
HETATM   19  N   UNK A   0      -9.962  16.676  68.884  1.00  0.00    -0.258 NA 
HETATM   20  H   UNK A   0      -9.201  16.968  69.498  1.00  0.00     0.000 HD 
BRANCH  19  21
HETATM   21  C   UNK A   0     -10.297  15.323  68.724  1.00  0.00    -0.232 A  
HETATM   22  C   UNK A   0      -9.511  13.026  68.516  1.00  0.00    -0.098 A  
HETATM   23  C   UNK A   0     -10.830  12.576  68.466  1.00  0.00    -0.271 A  
HETATM   24  C   UNK A   0     -11.606  14.869  68.539  1.00  0.00    -0.347 A  
HETATM   25  C   UNK A   0      -9.252  14.395  68.632  1.00  0.00    -0.181 A  
HETATM   26  C   UNK A   0     -11.877  13.503  68.425  1.00  0.00    -0.408 A  
BRANCH  23  27
HETATM   27  C   UNK A   0     -11.107  11.117  68.439  1.00  0.00    -0.247 C  
ATOM     28  H   GLU A   1      -9.652  10.801  69.899  1.00  0.00     0.000 HD 
ATOM     29  N   GLU A   1     -10.320  10.344  69.278  1.00  0.00    -0.217 N  
HETATM   30  O   UNK A   0     -11.989  10.652  67.735  1.00  0.00    -0.359 OA 
BRANCH  29  31
ATOM     31  CA  GLU A   1     -10.430   8.869  69.292  1.00  0.00    -0.224 C  
ATOM     32  C   GLU A   1     -11.044   8.398  70.632  1.00  0.00    -0.256 C  
ATOM     33  O   GLU A   1     -11.255   9.396  71.521  1.00  0.00    -0.355 OA 
ATOM     34  OXT GLU A   1     -11.280   7.230  70.909  1.00  0.00    -0.257 OA 
BRANCH  31  35
ATOM     35  CB  GLU A   1      -9.044   8.239  69.062  1.00  0.00    -0.147 C  
BRANCH  35  36
ATOM     36  CG  GLU A   1      -7.966   8.758  70.021  1.00  0.00    -0.108 C  
ATOM     37  CD  GLU A   1      -6.782   9.355  69.301  1.00  0.00    -0.049 C  
ATOM     38  OE2 GLU A   1      -6.649   9.410  68.089  1.00  0.00    -0.058 OA 
ATOM     39  OE1 GLU A   1      -5.859   9.847  70.165  1.00  0.00    -0.041 OA 
ENDBRANCH  35  36
ENDBRANCH  31  35
ENDBRANCH  29  31
ENDBRANCH  23  27
ENDBRANCH  19  21
ENDBRANCH  18  19
ENDBRANCH   3  18
TORSDOF 7
ENDMDL
MODEL      168
REMARK 921   NORMALIZED FREE ENERGY PREDICTED BY IDOCK:   -5.07 KCAL/MOL
REMARK 922        TOTAL FREE ENERGY PREDICTED BY IDOCK:   -8.37 KCAL/MOL
REMARK 923 INTER-LIGAND FREE ENERGY PREDICTED BY IDOCK:   -7.25 KCAL/MOL
REMARK 924 INTRA-LIGAND FREE ENERGY PREDICTED BY IDOCK:   -1.12 KCAL/MOL
REMARK 927      BINDING AFFINITY PREDICTED BY RF-SCORE:    0.00 PKD
ROOT
HETATM    1  C   UNK A   0     -11.200  13.478  69.040  1.00  0.00    -0.269 C  
HETATM    2  N   UNK A   0     -10.159  13.901  68.116  1.00  0.00    -0.243 NA 
HETATM    3  C   UNK A   0      -9.346  12.846  67.445  1.00  0.00    -0.194 C  
HETATM    4  O   UNK A   0     -11.895  16.177  68.771  1.00  0.00    -0.339 OA 
HETATM    5  C   UNK A   0      -7.877  13.334  67.372  1.00  0.00    -0.153 C  
HETATM    6  C   UNK A   0      -9.679  17.790  66.729  1.00  0.00    -0.309 C  
HETATM    7  N   UNK A   0      -7.788  14.694  66.812  1.00  0.00    -0.278 NA 
HETATM    8  H   UNK A   0      -6.986  14.960  66.241  1.00  0.00     0.000 HD 
HETATM    9  H2  UNK A   0     -10.159  19.689  66.103  1.00  0.00     0.000 HD 
HETATM   10  C   UNK A   0      -8.802  15.614  67.067  1.00  0.00    -0.225 C  
HETATM   11  H   UNK A   0     -11.493  18.311  67.432  1.00  0.00     0.000 HD 
HETATM   12  C   UNK A   0      -9.923  15.253  67.744  1.00  0.00    -0.224 C  
HETATM   13  H1  UNK A   0      -8.587  19.111  65.557  1.00  0.00     0.000 HD 
HETATM   14  C   UNK A   0     -10.939  16.374  68.024  1.00  0.00    -0.327 C  
HETATM   15  N   UNK A   0      -8.682  16.889  66.601  1.00  0.00    -0.229 NA 
HETATM   16  N   UNK A   0      -9.451  18.954  66.076  1.00  0.00    -0.476 NA 
HETATM   17  N   UNK A   0     -10.772  17.591  67.385  1.00  0.00    -0.301 N  
ENDROOT
BRANCH   3  18
HETATM   18  C   UNK A   0      -9.915  12.540  66.033  1.00  0.00    -0.257 C  
BRANCH  18  19
HETATM   19  N   UNK A   0      -9.097  11.536  65.324  1.00  0.00    -0.403 NA 
HETATM   20  H   UNK A   0      -8.674  11.737  64.417  1.00  0.00     0.000 HD 
BRANCH  19  21
HETATM   21  C   UNK A   0      -8.928  10.294  65.953  1.00  0.00    -0.158 A  
HETATM   22  C   UNK A   0      -7.378   8.581  66.727  1.00  0.00    -0.082 A  
HETATM   23  C   UNK A   0      -8.445   7.848  67.249  1.00  0.00    -0.121 A  
HETATM   24  C   UNK A   0      -9.993   9.486  66.362  1.00  0.00    -0.339 A  
HETATM   25  C   UNK A   0      -7.626   9.791  66.073  1.00  0.00    -0.102 A  
HETATM   26  C   UNK A   0      -9.757   8.276  67.020  1.00  0.00    -0.274 A  
BRANCH  23  27
HETATM   27  C   UNK A   0      -8.174   6.612  68.027  1.00  0.00    -0.117 C  
ATOM     28  H   GLU A   1     -10.137   5.978  67.727  1.00  0.00     0.000 HD 
ATOM     29  N   GLU A   1      -9.253   5.758  68.186  1.00  0.00    -0.110 N  
HETATM   30  O   UNK A   0      -7.061   6.372  68.468  1.00  0.00    -0.077 OA 
BRANCH  29  31
ATOM     31  CA  GLU A   1      -9.149   4.531  69.007  1.00  0.00    -0.122 C  
ATOM     32  C   GLU A   1      -9.482   3.290  68.146  1.00  0.00    -0.155 C  
ATOM     33  O   GLU A   1      -9.881   3.584  66.887  1.00  0.00    -0.105 OA 
ATOM     34  OXT GLU A   1      -9.446   2.138  68.555  1.00  0.00    -0.184 OA 
BRANCH  31  35
ATOM     35  CB  GLU A   1     -10.087   4.635  70.223  1.00  0.00    -0.276 C  
BRANCH  35  36
ATOM     36  CG  GLU A   1      -9.555   5.547  71.334  1.00  0.00    -0.195 C  
ATOM     37  CD  GLU A   1     -10.248   6.886  71.373  1.00  0.00    -0.197 C  
ATOM     38  OE2 GLU A   1     -11.121   7.250  70.603  1.00  0.00    -0.250 OA 
ATOM     39  OE1 GLU A   1      -9.794   7.662  72.389  1.00  0.00    -0.161 OA 
ENDBRANCH  35  36
ENDBRANCH  31  35
ENDBRANCH  29  31
ENDBRANCH  23  27
ENDBRANCH  19  21
ENDBRANCH  18  19
ENDBRANCH   3  18
TORSDOF 7
ENDMDL
MODEL      169
REMARK 921   NORMALIZED FREE ENERGY PREDICTED BY IDOCK:   -5.06 KCAL/MOL
REMARK 922        TOTAL FREE ENERGY PREDICTED BY IDOCK:   -8.36 KCAL/MOL
REMARK 923 INTER-LIGAND FREE ENERGY PREDICTED BY IDOCK:   -8.09 KCAL/MOL
REMARK 924 INTRA-LIGAND FREE ENERGY PREDICTED BY IDOCK:   -0.27 KCAL/MOL
REMARK 927      BINDING AFFINITY PREDICTED BY RF-SCORE:    0.00 PKD
ROOT
HETATM    1  C   UNK A   0      -8.162   7.625  71.368  1.00  0.00    -0.099 C  
HETATM    2  N   UNK A   0      -9.384   7.356  70.624  1.00  0.00    -0.161 NA 
HETATM    3  C   UNK A   0     -10.645   8.002  71.091  1.00  0.00    -0.203 C  
HETATM    4  O   UNK A   0      -7.060   6.413  69.097  1.00  0.00    -0.078 OA 
HETATM    5  C   UNK A   0     -11.802   6.982  70.934  1.00  0.00    -0.356 C  
HETATM    6  C   UNK A   0      -9.524   5.431  66.944  1.00  0.00    -0.135 C  
HETATM    7  N   UNK A   0     -11.821   6.392  69.584  1.00  0.00    -0.523 NA 
HETATM    8  H   UNK A   0     -12.708   6.142  69.147  1.00  0.00     0.000 HD 
HETATM    9  H2  UNK A   0      -8.966   4.826  65.059  1.00  0.00     0.000 HD 
HETATM   10  C   UNK A   0     -10.622   6.177  68.907  1.00  0.00    -0.276 C  
HETATM   11  H   UNK A   0      -7.531   5.619  66.719  1.00  0.00     0.000 HD 
HETATM   12  C   UNK A   0      -9.438   6.588  69.429  1.00  0.00    -0.145 C  
HETATM   13  H1  UNK A   0     -10.692   4.707  65.387  1.00  0.00     0.000 HD 
HETATM   14  C   UNK A   0      -8.178   6.230  68.621  1.00  0.00    -0.112 C  
HETATM   15  N   UNK A   0     -10.642   5.570  67.686  1.00  0.00    -0.198 NA 
HETATM   16  N   UNK A   0      -9.752   4.949  65.699  1.00  0.00    -0.239 NA 
HETATM   17  N   UNK A   0      -8.335   5.737  67.338  1.00  0.00    -0.105 N  
ENDROOT
BRANCH   3  18
HETATM   18  C   UNK A   0     -10.918   9.302  70.287  1.00  0.00    -0.247 C  
BRANCH  18  19
HETATM   19  N   UNK A   0     -10.299   9.252  68.948  1.00  0.00    -0.210 NA 
HETATM   20  H   UNK A   0      -9.972   8.374  68.544  1.00  0.00     0.000 HD 
BRANCH  19  21
HETATM   21  C   UNK A   0     -10.178  10.467  68.257  1.00  0.00    -0.160 A  
HETATM   22  C   UNK A   0     -10.700  11.745  66.249  1.00  0.00    -0.312 A  
HETATM   23  C   UNK A   0     -10.065  12.863  66.793  1.00  0.00    -0.238 A  
HETATM   24  C   UNK A   0      -9.433  11.551  68.728  1.00  0.00    -0.099 A  
HETATM   25  C   UNK A   0     -10.743  10.553  66.978  1.00  0.00    -0.310 A  
HETATM   26  C   UNK A   0      -9.386  12.749  68.010  1.00  0.00    -0.213 A  
BRANCH  23  27
HETATM   27  C   UNK A   0     -10.103  14.155  66.062  1.00  0.00    -0.316 C  
ATOM     28  H   GLU A   1      -8.576  14.898  67.271  1.00  0.00     0.000 HD 
ATOM     29  N   GLU A   1      -9.226  15.126  66.519  1.00  0.00    -0.269 N  
HETATM   30  O   UNK A   0     -10.846  14.322  65.108  1.00  0.00    -0.332 OA 
BRANCH  29  31
ATOM     31  CA  GLU A   1      -9.215  16.486  65.938  1.00  0.00    -0.174 C  
ATOM     32  C   GLU A   1      -7.860  17.174  66.231  1.00  0.00    -0.316 C  
ATOM     33  O   GLU A   1      -7.032  16.446  67.015  1.00  0.00    -0.186 OA 
ATOM     34  OXT GLU A   1      -7.558  18.294  65.843  1.00  0.00    -0.460 OA 
BRANCH  31  35
ATOM     35  CB  GLU A   1     -10.389  17.306  66.503  1.00  0.00    -0.308 C  
BRANCH  35  36
ATOM     36  CG  GLU A   1     -10.288  17.566  68.011  1.00  0.00    -0.368 C  
ATOM     37  CD  GLU A   1     -11.094  16.586  68.828  1.00  0.00    -0.309 C  
ATOM     38  OE2 GLU A   1     -11.786  15.690  68.373  1.00  0.00    -0.367 OA 
ATOM     39  OE1 GLU A   1     -10.959  16.806  70.160  1.00  0.00    -0.264 OA 
ENDBRANCH  35  36
ENDBRANCH  31  35
ENDBRANCH  29  31
ENDBRANCH  23  27
ENDBRANCH  19  21
ENDBRANCH  18  19
ENDBRANCH   3  18
TORSDOF 7
ENDMDL
MODEL      170
REMARK 921   NORMALIZED FREE ENERGY PREDICTED BY IDOCK:   -5.06 KCAL/MOL
REMARK 922        TOTAL FREE ENERGY PREDICTED BY IDOCK:   -8.36 KCAL/MOL
REMARK 923 INTER-LIGAND FREE ENERGY PREDICTED BY IDOCK:   -7.31 KCAL/MOL
REMARK 924 INTRA-LIGAND FREE ENERGY PREDICTED BY IDOCK:   -1.04 KCAL/MOL
REMARK 927      BINDING AFFINITY PREDICTED BY RF-SCORE:    0.00 PKD
ROOT
HETATM    1  C   UNK A   0      -7.905  12.883  67.678  1.00  0.00    -0.168 C  
HETATM    2  N   UNK A   0      -9.094  12.668  66.867  1.00  0.00    -0.214 NA 
HETATM    3  C   UNK A   0      -9.797  11.358  66.987  1.00  0.00    -0.191 C  
HETATM    4  O   UNK A   0      -8.345  15.507  66.805  1.00  0.00    -0.232 OA 
HETATM    5  C   UNK A   0     -10.274  10.930  65.576  1.00  0.00    -0.271 C  
HETATM    6  C   UNK A   0     -11.037  15.639  64.705  1.00  0.00    -0.373 C  
HETATM    7  N   UNK A   0     -11.007  12.015  64.902  1.00  0.00    -0.298 NA 
HETATM    8  H   UNK A   0     -11.780  11.797  64.272  1.00  0.00     0.000 HD 
HETATM    9  H2  UNK A   0     -11.770  17.492  64.199  1.00  0.00     0.000 HD 
HETATM   10  C   UNK A   0     -10.641  13.340  65.127  1.00  0.00    -0.330 C  
HETATM   11  H   UNK A   0     -10.001  17.075  65.662  1.00  0.00     0.000 HD 
HETATM   12  C   UNK A   0      -9.680  13.658  66.031  1.00  0.00    -0.222 C  
HETATM   13  H1  UNK A   0     -12.590  16.142  63.422  1.00  0.00     0.000 HD 
HETATM   14  C   UNK A   0      -9.314  15.149  66.139  1.00  0.00    -0.311 C  
HETATM   15  N   UNK A   0     -11.280  14.336  64.450  1.00  0.00    -0.593 NA 
HETATM   16  N   UNK A   0     -11.868  16.487  64.054  1.00  0.00    -1.283 NA 
HETATM   17  N   UNK A   0     -10.123  16.075  65.503  1.00  0.00    -0.340 N  
ENDROOT
BRANCH   3  18
HETATM   18  C   UNK A   0     -10.986  11.471  67.980  1.00  0.00    -0.231 C  
BRANCH  18  19
HETATM   19  N   UNK A   0     -10.535  11.360  69.381  1.00  0.00    -0.434 NA 
HETATM   20  H   UNK A   0     -10.439  12.182  69.977  1.00  0.00     0.000 HD 
BRANCH  19  21
HETATM   21  C   UNK A   0     -10.243  10.072  69.856  1.00  0.00    -0.260 A  
HETATM   22  C   UNK A   0     -10.866   7.717  69.909  1.00  0.00    -0.241 A  
HETATM   23  C   UNK A   0      -9.741   7.434  70.685  1.00  0.00    -0.175 A  
HETATM   24  C   UNK A   0      -9.198   9.794  70.741  1.00  0.00     0.123 A  
HETATM   25  C   UNK A   0     -11.117   9.033  69.510  1.00  0.00    -0.039 A  
HETATM   26  C   UNK A   0      -8.936   8.482  71.144  1.00  0.00    -0.232 A  
BRANCH  23  27
HETATM   27  C   UNK A   0      -9.423   6.025  71.029  1.00  0.00    -0.168 C  
ATOM     28  H   GLU A   1      -7.440   6.551  71.403  1.00  0.00     0.000 HD 
ATOM     29  N   GLU A   1      -8.100   5.774  71.356  1.00  0.00    -0.113 N  
HETATM   30  O   UNK A   0     -10.289   5.165  71.040  1.00  0.00    -0.225 OA 
BRANCH  29  31
ATOM     31  CA  GLU A   1      -7.625   4.402  71.639  1.00  0.00    -0.074 C  
ATOM     32  C   GLU A   1      -7.318   4.250  73.147  1.00  0.00    -0.075 C  
ATOM     33  O   GLU A   1      -7.451   5.396  73.854  1.00  0.00    -0.089 OA 
ATOM     34  OXT GLU A   1      -6.937   3.212  73.672  1.00  0.00    -0.034 OA 
BRANCH  31  35
ATOM     35  CB  GLU A   1      -6.383   4.092  70.783  1.00  0.00    -0.022 C  
BRANCH  35  36
ATOM     36  CG  GLU A   1      -6.287   4.939  69.509  1.00  0.00    -0.031 C  
ATOM     37  CD  GLU A   1      -7.025   4.328  68.344  1.00  0.00    -0.051 C  
ATOM     38  OE2 GLU A   1      -7.620   3.263  68.366  1.00  0.00    -0.055 OA 
ATOM     39  OE1 GLU A   1      -6.964   5.112  67.238  1.00  0.00    -0.062 OA 
ENDBRANCH  35  36
ENDBRANCH  31  35
ENDBRANCH  29  31
ENDBRANCH  23  27
ENDBRANCH  19  21
ENDBRANCH  18  19
ENDBRANCH   3  18
TORSDOF 7
ENDMDL
MODEL      171
REMARK 921   NORMALIZED FREE ENERGY PREDICTED BY IDOCK:   -5.05 KCAL/MOL
REMARK 922        TOTAL FREE ENERGY PREDICTED BY IDOCK:   -8.35 KCAL/MOL
REMARK 923 INTER-LIGAND FREE ENERGY PREDICTED BY IDOCK:   -7.98 KCAL/MOL
REMARK 924 INTRA-LIGAND FREE ENERGY PREDICTED BY IDOCK:   -0.37 KCAL/MOL
REMARK 927      BINDING AFFINITY PREDICTED BY RF-SCORE:    0.00 PKD
ROOT
HETATM    1  C   UNK A   0     -11.075  14.264  69.946  1.00  0.00    -0.076 C  
HETATM    2  N   UNK A   0     -10.467  14.355  68.627  1.00  0.00    -0.241 NA 
HETATM    3  C   UNK A   0     -10.238  13.089  67.872  1.00  0.00    -0.234 C  
HETATM    4  O   UNK A   0     -11.285  17.026  69.533  1.00  0.00     0.049 OA 
HETATM    5  C   UNK A   0      -8.876  13.197  67.140  1.00  0.00    -0.222 C  
HETATM    6  C   UNK A   0      -9.886  17.902  66.542  1.00  0.00    -0.343 C  
HETATM    7  N   UNK A   0      -8.774  14.452  66.374  1.00  0.00    -0.454 NA 
HETATM    8  H   UNK A   0      -8.257  14.474  65.495  1.00  0.00     0.000 HD 
HETATM    9  H2  UNK A   0     -10.211  19.813  65.853  1.00  0.00     0.000 HD 
HETATM   10  C   UNK A   0      -9.385  15.607  66.856  1.00  0.00    -0.234 C  
HETATM   11  H   UNK A   0     -11.089  18.899  67.812  1.00  0.00     0.000 HD 
HETATM   12  C   UNK A   0     -10.157  15.579  67.973  1.00  0.00    -0.223 C  
HETATM   13  H1  UNK A   0      -9.165  18.832  64.830  1.00  0.00     0.000 HD 
HETATM   14  C   UNK A   0     -10.720  16.931  68.445  1.00  0.00    -0.368 C  
HETATM   15  N   UNK A   0      -9.232  16.779  66.177  1.00  0.00    -0.409 NA 
HETATM   16  N   UNK A   0      -9.738  18.927  65.669  1.00  0.00    -0.271 NA 
HETATM   17  N   UNK A   0     -10.610  18.022  67.601  1.00  0.00    -0.413 N  
ENDROOT
BRANCH   3  18
HETATM   18  C   UNK A   0     -11.401  12.834  66.876  1.00  0.00    -0.321 C  
BRANCH  18  19
HETATM   19  N   UNK A   0     -12.135  11.595  67.204  1.00  0.00    -0.383 NA 
HETATM   20  H   UNK A   0     -12.974  11.322  66.693  1.00  0.00     0.000 HD 
BRANCH  19  21
HETATM   21  C   UNK A   0     -11.626  10.813  68.251  1.00  0.00    -0.221 A  
HETATM   22  C   UNK A   0     -11.602  10.354  70.644  1.00  0.00    -0.440 A  
HETATM   23  C   UNK A   0     -10.732   9.284  70.433  1.00  0.00    -0.300 A  
HETATM   24  C   UNK A   0     -10.653   9.825  68.074  1.00  0.00    -0.291 A  
HETATM   25  C   UNK A   0     -12.034  11.118  69.556  1.00  0.00    -0.425 A  
HETATM   26  C   UNK A   0     -10.216   9.053  69.153  1.00  0.00    -0.213 A  
BRANCH  23  27
HETATM   27  C   UNK A   0     -10.349   8.414  71.574  1.00  0.00    -0.230 C  
ATOM     28  H   GLU A   1      -8.523   7.996  70.659  1.00  0.00     0.000 HD 
ATOM     29  N   GLU A   1      -9.117   7.790  71.463  1.00  0.00    -0.131 N  
HETATM   30  O   UNK A   0     -11.075   8.289  72.547  1.00  0.00    -0.353 OA 
BRANCH  29  31
ATOM     31  CA  GLU A   1      -8.645   6.832  72.486  1.00  0.00    -0.122 C  
ATOM     32  C   GLU A   1      -7.143   6.528  72.272  1.00  0.00    -0.077 C  
ATOM     33  O   GLU A   1      -6.616   7.110  71.170  1.00  0.00    -0.044 OA 
ATOM     34  OXT GLU A   1      -6.480   5.792  72.990  1.00  0.00    -0.060 OA 
BRANCH  31  35
ATOM     35  CB  GLU A   1      -9.488   5.545  72.426  1.00  0.00    -0.160 C  
BRANCH  35  36
ATOM     36  CG  GLU A   1      -9.173   4.660  71.214  1.00  0.00    -0.191 C  
ATOM     37  CD  GLU A   1     -10.174   4.823  70.097  1.00  0.00    -0.189 C  
ATOM     38  OE2 GLU A   1     -11.155   5.547  70.129  1.00  0.00    -0.248 OA 
ATOM     39  OE1 GLU A   1      -9.856   4.064  69.017  1.00  0.00    -0.141 OA 
ENDBRANCH  35  36
ENDBRANCH  31  35
ENDBRANCH  29  31
ENDBRANCH  23  27
ENDBRANCH  19  21
ENDBRANCH  18  19
ENDBRANCH   3  18
TORSDOF 7
ENDMDL
MODEL      172
REMARK 921   NORMALIZED FREE ENERGY PREDICTED BY IDOCK:   -5.03 KCAL/MOL
REMARK 922        TOTAL FREE ENERGY PREDICTED BY IDOCK:   -8.33 KCAL/MOL
REMARK 923 INTER-LIGAND FREE ENERGY PREDICTED BY IDOCK:   -6.09 KCAL/MOL
REMARK 924 INTRA-LIGAND FREE ENERGY PREDICTED BY IDOCK:   -2.24 KCAL/MOL
REMARK 927      BINDING AFFINITY PREDICTED BY RF-SCORE:    0.00 PKD
ROOT
HETATM    1  C   UNK A   0      -9.285  13.294  66.912  1.00  0.00    -0.241 C  
HETATM    2  N   UNK A   0      -8.640  11.994  67.021  1.00  0.00    -0.181 NA 
HETATM    3  C   UNK A   0      -7.152  11.956  67.115  1.00  0.00    -0.142 C  
HETATM    4  O   UNK A   0     -11.532  11.710  67.445  1.00  0.00    -0.368 OA 
HETATM    5  C   UNK A   0      -6.642  10.752  66.282  1.00  0.00    -0.132 C  
HETATM    6  C   UNK A   0     -10.646   8.420  67.711  1.00  0.00    -0.171 C  
HETATM    7  N   UNK A   0      -7.359   9.513  66.631  1.00  0.00    -0.089 NA 
HETATM    8  H   UNK A   0      -6.874   8.616  66.603  1.00  0.00     0.000 HD 
HETATM    9  H2  UNK A   0     -12.052   7.103  68.431  1.00  0.00     0.000 HD 
HETATM   10  C   UNK A   0      -8.701   9.571  66.996  1.00  0.00    -0.128 C  
HETATM   11  H   UNK A   0     -12.329   9.409  68.206  1.00  0.00     0.000 HD 
HETATM   12  C   UNK A   0      -9.341  10.762  67.131  1.00  0.00    -0.155 C  
HETATM   13  H1  UNK A   0     -10.527   6.362  67.956  1.00  0.00     0.000 HD 
HETATM   14  C   UNK A   0     -10.840  10.694  67.470  1.00  0.00    -0.296 C  
HETATM   15  N   UNK A   0      -9.377   8.415  67.254  1.00  0.00    -0.142 NA 
HETATM   16  N   UNK A   0     -11.106   7.195  68.059  1.00  0.00    -0.505 NA 
HETATM   17  N   UNK A   0     -11.379   9.473  67.840  1.00  0.00    -0.401 N  
ENDROOT
BRANCH   3  18
HETATM   18  C   UNK A   0      -6.705  11.853  68.598  1.00  0.00    -0.074 C  
BRANCH  18  19
HETATM   19  N   UNK A   0      -5.856  10.667  68.828  1.00  0.00    -0.040 NA 
HETATM   20  H   UNK A   0      -4.969  10.544  68.339  1.00  0.00     0.000 HD 
BRANCH  19  21
HETATM   21  C   UNK A   0      -6.325   9.717  69.747  1.00  0.00    -0.050 A  
HETATM   22  C   UNK A   0      -8.163   8.962  71.159  1.00  0.00    -0.218 A  
HETATM   23  C   UNK A   0      -7.411   7.853  71.548  1.00  0.00    -0.073 A  
HETATM   24  C   UNK A   0      -5.540   8.676  70.249  1.00  0.00    -0.024 A  
HETATM   25  C   UNK A   0      -7.612   9.892  70.272  1.00  0.00    -0.172 A  
HETATM   26  C   UNK A   0      -6.080   7.738  71.133  1.00  0.00    -0.034 A  
BRANCH  23  27
HETATM   27  C   UNK A   0      -8.029   6.817  72.414  1.00  0.00    -0.098 C  
ATOM     28  H   GLU A   1      -8.915   5.933  70.746  1.00  0.00     0.000 HD 
ATOM     29  N   GLU A   1      -8.834   5.896  71.762  1.00  0.00    -0.139 N  
HETATM   30  O   UNK A   0      -7.810   6.781  73.614  1.00  0.00    -0.095 OA 
BRANCH  29  31
ATOM     31  CA  GLU A   1      -9.578   4.859  72.510  1.00  0.00    -0.144 C  
ATOM     32  C   GLU A   1      -9.665   3.563  71.671  1.00  0.00    -0.163 C  
ATOM     33  O   GLU A   1      -9.143   3.675  70.428  1.00  0.00    -0.101 OA 
ATOM     34  OXT GLU A   1     -10.197   2.529  72.053  1.00  0.00    -0.152 OA 
BRANCH  31  35
ATOM     35  CB  GLU A   1     -10.979   5.382  72.875  1.00  0.00    -0.338 C  
BRANCH  35  36
ATOM     36  CG  GLU A   1     -11.663   6.153  71.740  1.00  0.00    -0.312 C  
ATOM     37  CD  GLU A   1     -11.663   7.645  71.964  1.00  0.00    -0.298 C  
ATOM     38  OE2 GLU A   1     -11.205   8.210  72.943  1.00  0.00    -0.381 OA 
ATOM     39  OE1 GLU A   1     -12.233   8.312  70.930  1.00  0.00    -0.228 OA 
ENDBRANCH  35  36
ENDBRANCH  31  35
ENDBRANCH  29  31
ENDBRANCH  23  27
ENDBRANCH  19  21
ENDBRANCH  18  19
ENDBRANCH   3  18
TORSDOF 7
ENDMDL
MODEL      173
REMARK 921   NORMALIZED FREE ENERGY PREDICTED BY IDOCK:   -5.03 KCAL/MOL
REMARK 922        TOTAL FREE ENERGY PREDICTED BY IDOCK:   -8.32 KCAL/MOL
REMARK 923 INTER-LIGAND FREE ENERGY PREDICTED BY IDOCK:   -6.92 KCAL/MOL
REMARK 924 INTRA-LIGAND FREE ENERGY PREDICTED BY IDOCK:   -1.39 KCAL/MOL
REMARK 927      BINDING AFFINITY PREDICTED BY RF-SCORE:    0.00 PKD
ROOT
HETATM    1  C   UNK A   0     -10.864  15.907  67.616  1.00  0.00    -0.312 C  
HETATM    2  N   UNK A   0     -11.067  14.472  67.488  1.00  0.00    -0.297 NA 
HETATM    3  C   UNK A   0     -10.560  13.800  66.257  1.00  0.00    -0.289 C  
HETATM    4  O   UNK A   0     -11.654  15.319  70.237  1.00  0.00    -0.256 OA 
HETATM    5  C   UNK A   0     -11.593  12.727  65.826  1.00  0.00    -0.376 C  
HETATM    6  C   UNK A   0     -12.396  11.999  70.553  1.00  0.00    -0.282 C  
HETATM    7  N   UNK A   0     -11.964  11.853  66.952  1.00  0.00    -0.591 NA 
HETATM    8  H   UNK A   0     -12.182  10.870  66.787  1.00  0.00     0.000 HD 
HETATM    9  H2  UNK A   0     -12.673  11.253  72.449  1.00  0.00     0.000 HD 
HETATM   10  C   UNK A   0     -12.017  12.374  68.243  1.00  0.00    -0.214 C  
HETATM   11  H   UNK A   0     -12.086  13.448  71.916  1.00  0.00     0.000 HD 
HETATM   12  C   UNK A   0     -11.640  13.653  68.500  1.00  0.00    -0.335 C  
HETATM   13  H1  UNK A   0     -12.919  10.083  71.157  1.00  0.00     0.000 HD 
HETATM   14  C   UNK A   0     -11.810  14.135  69.951  1.00  0.00    -0.325 C  
HETATM   15  N   UNK A   0     -12.425  11.577  69.271  1.00  0.00    -0.194 NA 
HETATM   16  N   UNK A   0     -12.687  11.031  71.453  1.00  0.00    -0.423 NA 
HETATM   17  N   UNK A   0     -12.103  13.197  70.927  1.00  0.00    -0.474 N  
ENDROOT
BRANCH   3  18
HETATM   18  C   UNK A   0      -9.164  13.172  66.518  1.00  0.00    -0.177 C  
BRANCH  18  19
HETATM   19  N   UNK A   0      -8.916  12.013  65.639  1.00  0.00    -0.417 NA 
HETATM   20  H   UNK A   0      -9.114  12.051  64.639  1.00  0.00     0.000 HD 
BRANCH  19  21
HETATM   21  C   UNK A   0      -8.398  10.857  66.241  1.00  0.00    -0.164 A  
HETATM   22  C   UNK A   0      -6.636   9.174  66.271  1.00  0.00    -0.066 A  
HETATM   23  C   UNK A   0      -7.219   8.580  67.390  1.00  0.00    -0.084 A  
HETATM   24  C   UNK A   0      -9.039  10.173  67.277  1.00  0.00    -0.151 A  
HETATM   25  C   UNK A   0      -7.234  10.299  65.696  1.00  0.00    -0.148 A  
HETATM   26  C   UNK A   0      -8.450   9.049  67.861  1.00  0.00    -0.121 A  
BRANCH  23  27
HETATM   27  C   UNK A   0      -6.533   7.444  68.058  1.00  0.00    -0.049 C  
ATOM     28  H   GLU A   1      -7.863   7.565  69.659  1.00  0.00     0.000 HD 
ATOM     29  N   GLU A   1      -7.037   7.088  69.299  1.00  0.00    -0.080 N  
HETATM   30  O   UNK A   0      -5.605   6.860  67.521  1.00  0.00    -0.018 OA 
BRANCH  29  31
ATOM     31  CA  GLU A   1      -6.400   6.029  70.112  1.00  0.00    -0.032 C  
ATOM     32  C   GLU A   1      -7.441   4.944  70.476  1.00  0.00    -0.058 C  
ATOM     33  O   GLU A   1      -8.699   5.230  70.068  1.00  0.00    -0.112 OA 
ATOM     34  OXT GLU A   1      -7.188   3.933  71.117  1.00  0.00    -0.032 OA 
BRANCH  31  35
ATOM     35  CB  GLU A   1      -5.773   6.646  71.376  1.00  0.00    -0.032 C  
BRANCH  35  36
ATOM     36  CG  GLU A   1      -6.789   6.933  72.489  1.00  0.00    -0.062 C  
ATOM     37  CD  GLU A   1      -6.897   8.401  72.817  1.00  0.00    -0.076 C  
ATOM     38  OE2 GLU A   1      -6.244   9.290  72.296  1.00  0.00    -0.268 OA 
ATOM     39  OE1 GLU A   1      -7.831   8.638  73.773  1.00  0.00    -0.407 OA 
ENDBRANCH  35  36
ENDBRANCH  31  35
ENDBRANCH  29  31
ENDBRANCH  23  27
ENDBRANCH  19  21
ENDBRANCH  18  19
ENDBRANCH   3  18
TORSDOF 7
ENDMDL
MODEL      174
REMARK 921   NORMALIZED FREE ENERGY PREDICTED BY IDOCK:   -5.00 KCAL/MOL
REMARK 922        TOTAL FREE ENERGY PREDICTED BY IDOCK:   -8.28 KCAL/MOL
REMARK 923 INTER-LIGAND FREE ENERGY PREDICTED BY IDOCK:   -7.44 KCAL/MOL
REMARK 924 INTRA-LIGAND FREE ENERGY PREDICTED BY IDOCK:   -0.83 KCAL/MOL
REMARK 927      BINDING AFFINITY PREDICTED BY RF-SCORE:    0.00 PKD
ROOT
HETATM    1  C   UNK A   0     -10.779  17.121  65.080  1.00  0.00     0.105 C  
HETATM    2  N   UNK A   0     -10.352  16.103  66.028  1.00  0.00    -0.341 NA 
HETATM    3  C   UNK A   0     -11.176  14.866  66.148  1.00  0.00    -0.325 C  
HETATM    4  O   UNK A   0      -8.210  18.076  65.651  1.00  0.00    -0.455 OA 
HETATM    5  C   UNK A   0     -11.235  14.463  67.644  1.00  0.00    -0.313 C  
HETATM    6  C   UNK A   0      -6.683  16.098  67.981  1.00  0.00    -0.131 C  
HETATM    7  N   UNK A   0      -9.891  14.423  68.246  1.00  0.00    -0.222 NA 
HETATM    8  H   UNK A   0      -9.676  13.741  68.973  1.00  0.00     0.000 HD 
HETATM    9  H2  UNK A   0      -4.675  16.388  68.318  1.00  0.00     0.000 HD 
HETATM   10  C   UNK A   0      -8.916  15.321  67.817  1.00  0.00    -0.177 C  
HETATM   11  H   UNK A   0      -5.974  17.523  66.747  1.00  0.00     0.000 HD 
HETATM   12  C   UNK A   0      -9.150  16.173  66.786  1.00  0.00    -0.230 C  
HETATM   13  H1  UNK A   0      -5.421  15.164  69.340  1.00  0.00     0.000 HD 
HETATM   14  C   UNK A   0      -8.022  17.164  66.452  1.00  0.00    -0.311 C  
HETATM   15  N   UNK A   0      -7.695  15.323  68.423  1.00  0.00    -0.120 NA 
HETATM   16  N   UNK A   0      -5.502  15.860  68.599  1.00  0.00    -0.100 NA 
HETATM   17  N   UNK A   0      -6.784  16.978  67.044  1.00  0.00    -0.182 N  
ENDROOT
BRANCH   3  18
HETATM   18  C   UNK A   0     -10.578  13.729  65.276  1.00  0.00    -0.353 C  
BRANCH  18  19
HETATM   19  N   UNK A   0     -11.467  12.551  65.236  1.00  0.00    -0.320 NA 
HETATM   20  H   UNK A   0     -12.368  12.579  64.759  1.00  0.00     0.000 HD 
BRANCH  19  21
HETATM   21  C   UNK A   0     -11.016  11.392  65.885  1.00  0.00    -0.207 A  
HETATM   22  C   UNK A   0     -10.971  10.075  67.935  1.00  0.00    -0.311 A  
HETATM   23  C   UNK A   0     -10.230   9.087  67.286  1.00  0.00    -0.323 A  
HETATM   24  C   UNK A   0     -10.162  10.458  65.292  1.00  0.00    -0.332 A  
HETATM   25  C   UNK A   0     -11.349  11.225  67.236  1.00  0.00    -0.329 A  
HETATM   26  C   UNK A   0      -9.781   9.303  65.979  1.00  0.00    -0.359 A  
BRANCH  23  27
HETATM   27  C   UNK A   0      -9.911   7.823  67.999  1.00  0.00    -0.163 C  
ATOM     28  H   GLU A   1     -10.494   8.682  69.808  1.00  0.00     0.000 HD 
ATOM     29  N   GLU A   1     -10.100   7.848  69.372  1.00  0.00    -0.191 N  
HETATM   30  O   UNK A   0      -9.531   6.833  67.395  1.00  0.00    -0.130 OA 
BRANCH  29  31
ATOM     31  CA  GLU A   1      -9.744   6.688  70.218  1.00  0.00    -0.171 C  
ATOM     32  C   GLU A   1     -10.950   6.288  71.100  1.00  0.00    -0.280 C  
ATOM     33  O   GLU A   1     -12.014   7.117  70.987  1.00  0.00    -0.320 OA 
ATOM     34  OXT GLU A   1     -10.953   5.342  71.877  1.00  0.00    -0.223 OA 
BRANCH  31  35
ATOM     35  CB  GLU A   1      -8.513   7.026  71.077  1.00  0.00    -0.133 C  
BRANCH  35  36
ATOM     36  CG  GLU A   1      -7.409   7.761  70.308  1.00  0.00    -0.067 C  
ATOM     37  CD  GLU A   1      -6.825   8.915  71.085  1.00  0.00    -0.085 C  
ATOM     38  OE2 GLU A   1      -7.185   9.272  72.194  1.00  0.00    -0.305 OA 
ATOM     39  OE1 GLU A   1      -5.821   9.526  70.406  1.00  0.00    -0.039 OA 
ENDBRANCH  35  36
ENDBRANCH  31  35
ENDBRANCH  29  31
ENDBRANCH  23  27
ENDBRANCH  19  21
ENDBRANCH  18  19
ENDBRANCH   3  18
TORSDOF 7
ENDMDL
MODEL      175
REMARK 921   NORMALIZED FREE ENERGY PREDICTED BY IDOCK:   -5.00 KCAL/MOL
REMARK 922        TOTAL FREE ENERGY PREDICTED BY IDOCK:   -8.28 KCAL/MOL
REMARK 923 INTER-LIGAND FREE ENERGY PREDICTED BY IDOCK:   -7.73 KCAL/MOL
REMARK 924 INTRA-LIGAND FREE ENERGY PREDICTED BY IDOCK:   -0.54 KCAL/MOL
REMARK 927      BINDING AFFINITY PREDICTED BY RF-SCORE:    0.00 PKD
ROOT
HETATM    1  C   UNK A   0      -7.051   8.908  67.709  1.00  0.00    -0.079 C  
HETATM    2  N   UNK A   0      -8.305   8.326  67.254  1.00  0.00    -0.123 NA 
HETATM    3  C   UNK A   0      -9.325   9.238  66.660  1.00  0.00    -0.170 C  
HETATM    4  O   UNK A   0      -6.360   6.196  67.803  1.00  0.00    -0.037 OA 
HETATM    5  C   UNK A   0     -10.726   8.780  67.140  1.00  0.00    -0.134 C  
HETATM    6  C   UNK A   0      -9.021   4.247  66.912  1.00  0.00    -0.122 C  
HETATM    7  N   UNK A   0     -10.925   7.336  66.927  1.00  0.00    -0.588 NA 
HETATM    8  H   UNK A   0     -11.850   6.976  66.694  1.00  0.00     0.000 HD 
HETATM    9  H2  UNK A   0      -8.676   2.248  66.574  1.00  0.00     0.000 HD 
HETATM   10  C   UNK A   0      -9.844   6.466  67.044  1.00  0.00    -0.154 C  
HETATM   11  H   UNK A   0      -7.060   3.839  67.120  1.00  0.00     0.000 HD 
HETATM   12  C   UNK A   0      -8.587   6.932  67.258  1.00  0.00    -0.120 C  
HETATM   13  H1  UNK A   0     -10.361   2.736  66.426  1.00  0.00     0.000 HD 
HETATM   14  C   UNK A   0      -7.488   5.870  67.440  1.00  0.00    -0.078 C  
HETATM   15  N   UNK A   0     -10.047   5.124  66.910  1.00  0.00    -0.201 NA 
HETATM   16  N   UNK A   0      -9.388   2.978  66.613  1.00  0.00    -0.335 NA 
HETATM   17  N   UNK A   0      -7.791   4.551  67.148  1.00  0.00    -0.097 N  
ENDROOT
BRANCH   3  18
HETATM   18  C   UNK A   0      -9.224   9.228  65.110  1.00  0.00    -0.200 C  
BRANCH  18  19
HETATM   19  N   UNK A   0     -10.183  10.168  64.498  1.00  0.00    -0.372 NA 
HETATM   20  H   UNK A   0     -10.705   9.924  63.656  1.00  0.00     0.000 HD 
BRANCH  19  21
HETATM   21  C   UNK A   0     -10.344  11.412  65.126  1.00  0.00    -0.290 A  
HETATM   22  C   UNK A   0     -11.856  13.228  65.724  1.00  0.00    -0.428 A  
HETATM   23  C   UNK A   0     -10.819  13.871  66.400  1.00  0.00    -0.291 A  
HETATM   24  C   UNK A   0      -9.289  12.133  65.692  1.00  0.00    -0.040 A  
HETATM   25  C   UNK A   0     -11.610  12.010  65.082  1.00  0.00    -0.330 A  
HETATM   26  C   UNK A   0      -9.523  13.349  66.339  1.00  0.00    -0.230 A  
BRANCH  23  27
HETATM   27  C   UNK A   0     -11.101  15.115  67.161  1.00  0.00    -0.335 C  
ATOM     28  H   GLU A   1      -9.539  16.086  66.180  1.00  0.00     0.000 HD 
ATOM     29  N   GLU A   1     -10.255  16.180  66.901  1.00  0.00    -0.277 N  
HETATM   30  O   UNK A   0     -12.037  15.180  67.943  1.00  0.00    -0.174 OA 
BRANCH  29  31
ATOM     31  CA  GLU A   1     -10.368  17.453  67.646  1.00  0.00    -0.355 C  
ATOM     32  C   GLU A   1     -10.487  18.636  66.657  1.00  0.00    -0.413 C  
ATOM     33  O   GLU A   1     -10.370  18.280  65.357  1.00  0.00    -0.509 OA 
ATOM     34  OXT GLU A   1     -10.625  19.804  66.993  1.00  0.00    -0.458 OA 
BRANCH  31  35
ATOM     35  CB  GLU A   1      -9.153  17.624  68.576  1.00  0.00    -0.279 C  
BRANCH  35  36
ATOM     36  CG  GLU A   1      -8.069  16.558  68.374  1.00  0.00    -0.196 C  
ATOM     37  CD  GLU A   1      -8.259  15.355  69.264  1.00  0.00    -0.252 C  
ATOM     38  OE2 GLU A   1      -9.149  15.222  70.087  1.00  0.00     0.058 OA 
ATOM     39  OE1 GLU A   1      -7.316  14.406  69.040  1.00  0.00    -0.123 OA 
ENDBRANCH  35  36
ENDBRANCH  31  35
ENDBRANCH  29  31
ENDBRANCH  23  27
ENDBRANCH  19  21
ENDBRANCH  18  19
ENDBRANCH   3  18
TORSDOF 7
ENDMDL
MODEL      176
REMARK 921   NORMALIZED FREE ENERGY PREDICTED BY IDOCK:   -4.99 KCAL/MOL
REMARK 922        TOTAL FREE ENERGY PREDICTED BY IDOCK:   -8.26 KCAL/MOL
REMARK 923 INTER-LIGAND FREE ENERGY PREDICTED BY IDOCK:   -8.33 KCAL/MOL
REMARK 924 INTRA-LIGAND FREE ENERGY PREDICTED BY IDOCK:    0.07 KCAL/MOL
REMARK 927      BINDING AFFINITY PREDICTED BY RF-SCORE:    0.00 PKD
ROOT
HETATM    1  C   UNK A   0     -10.139  15.265  69.563  1.00  0.00    -0.256 C  
HETATM    2  N   UNK A   0     -10.216  15.464  68.123  1.00  0.00    -0.228 NA 
HETATM    3  C   UNK A   0     -10.429  14.267  67.260  1.00  0.00    -0.269 C  
HETATM    4  O   UNK A   0     -10.384  18.054  69.498  1.00  0.00    -0.093 OA 
HETATM    5  C   UNK A   0      -9.565  14.426  65.983  1.00  0.00    -0.262 C  
HETATM    6  C   UNK A   0     -10.508  19.174  66.272  1.00  0.00    -0.467 C  
HETATM    7  N   UNK A   0      -9.773  15.742  65.353  1.00  0.00    -0.377 NA 
HETATM    8  H   UNK A   0      -9.727  15.836  64.338  1.00  0.00     0.000 HD 
HETATM    9  H2  UNK A   0     -11.025  21.140  65.958  1.00  0.00     0.000 HD 
HETATM   10  C   UNK A   0     -10.031  16.856  66.148  1.00  0.00    -0.315 C  
HETATM   11  H   UNK A   0     -10.927  20.067  68.028  1.00  0.00     0.000 HD 
HETATM   12  C   UNK A   0     -10.189  16.738  67.491  1.00  0.00    -0.289 C  
HETATM   13  H1  UNK A   0     -10.629  20.243  64.496  1.00  0.00     0.000 HD 
HETATM   14  C   UNK A   0     -10.400  18.049  68.269  1.00  0.00    -0.380 C  
HETATM   15  N   UNK A   0     -10.157  18.081  65.563  1.00  0.00    -0.409 NA 
HETATM   16  N   UNK A   0     -10.737  20.269  65.510  1.00  0.00    -0.200 NA 
HETATM   17  N   UNK A   0     -10.645  19.208  67.554  1.00  0.00    -0.461 N  
ENDROOT
BRANCH   3  18
HETATM   18  C   UNK A   0     -11.934  14.109  66.913  1.00  0.00    -0.449 C  
BRANCH  18  19
HETATM   19  N   UNK A   0     -12.184  12.884  66.128  1.00  0.00    -0.508 NA 
HETATM   20  H   UNK A   0     -12.858  12.871  65.362  1.00  0.00     0.000 HD 
BRANCH  19  21
HETATM   21  C   UNK A   0     -11.453  11.741  66.483  1.00  0.00    -0.255 A  
HETATM   22  C   UNK A   0      -9.972   9.946  65.759  1.00  0.00    -0.347 A  
HETATM   23  C   UNK A   0      -9.899   9.475  67.070  1.00  0.00    -0.246 A  
HETATM   24  C   UNK A   0     -11.475  11.178  67.762  1.00  0.00    -0.349 A  
HETATM   25  C   UNK A   0     -10.757  11.067  65.471  1.00  0.00    -0.218 A  
HETATM   26  C   UNK A   0     -10.692  10.060  68.062  1.00  0.00    -0.303 A  
BRANCH  23  27
HETATM   27  C   UNK A   0      -8.991   8.344  67.392  1.00  0.00    -0.134 C  
ATOM     28  H   GLU A   1     -10.592   7.268  68.184  1.00  0.00     0.000 HD 
ATOM     29  N   GLU A   1      -9.584   7.264  68.027  1.00  0.00    -0.138 N  
HETATM   30  O   UNK A   0      -7.809   8.373  67.088  1.00  0.00    -0.098 OA 
BRANCH  29  31
ATOM     31  CA  GLU A   1      -8.785   6.105  68.480  1.00  0.00    -0.111 C  
ATOM     32  C   GLU A   1      -9.463   4.789  68.032  1.00  0.00    -0.140 C  
ATOM     33  O   GLU A   1     -10.658   4.965  67.423  1.00  0.00    -0.075 OA 
ATOM     34  OXT GLU A   1      -9.008   3.672  68.242  1.00  0.00    -0.107 OA 
BRANCH  31  35
ATOM     35  CB  GLU A   1      -8.615   6.152  70.009  1.00  0.00    -0.136 C  
BRANCH  35  36
ATOM     36  CG  GLU A   1      -9.024   4.853  70.714  1.00  0.00    -0.167 C  
ATOM     37  CD  GLU A   1      -9.949   5.088  71.881  1.00  0.00    -0.187 C  
ATOM     38  OE2 GLU A   1     -10.330   6.180  72.271  1.00  0.00    -0.188 OA 
ATOM     39  OE1 GLU A   1     -10.333   3.925  72.465  1.00  0.00    -0.167 OA 
ENDBRANCH  35  36
ENDBRANCH  31  35
ENDBRANCH  29  31
ENDBRANCH  23  27
ENDBRANCH  19  21
ENDBRANCH  18  19
ENDBRANCH   3  18
TORSDOF 7
ENDMDL
MODEL      177
REMARK 921   NORMALIZED FREE ENERGY PREDICTED BY IDOCK:   -4.99 KCAL/MOL
REMARK 922        TOTAL FREE ENERGY PREDICTED BY IDOCK:   -8.26 KCAL/MOL
REMARK 923 INTER-LIGAND FREE ENERGY PREDICTED BY IDOCK:   -7.24 KCAL/MOL
REMARK 924 INTRA-LIGAND FREE ENERGY PREDICTED BY IDOCK:   -1.02 KCAL/MOL
REMARK 927      BINDING AFFINITY PREDICTED BY RF-SCORE:    0.00 PKD
ROOT
HETATM    1  C   UNK A   0      -6.825  17.113  65.677  1.00  0.00     0.673 C  
HETATM    2  N   UNK A   0      -8.178  17.015  66.204  1.00  0.00    -0.456 NA 
HETATM    3  C   UNK A   0      -9.007  15.846  65.792  1.00  0.00    -0.060 C  
HETATM    4  O   UNK A   0      -6.686  19.078  67.666  1.00  0.00    -0.203 OA 
HETATM    5  C   UNK A   0     -10.462  16.333  65.571  1.00  0.00    -0.362 C  
HETATM    6  C   UNK A   0      -9.698  19.403  69.246  1.00  0.00    -0.263 C  
HETATM    7  N   UNK A   0     -10.948  17.118  66.720  1.00  0.00     0.054 NA 
HETATM    8  H   UNK A   0     -11.931  17.076  66.989  1.00  0.00     0.000 HD 
HETATM    9  H2  UNK A   0      -9.764  20.533  70.963  1.00  0.00     0.000 HD 
HETATM   10  C   UNK A   0     -10.060  17.917  67.436  1.00  0.00    -0.340 C  
HETATM   11  H   UNK A   0      -7.853  20.067  69.708  1.00  0.00     0.000 HD 
HETATM   12  C   UNK A   0      -8.731  17.915  67.155  1.00  0.00    -0.243 C  
HETATM   13  H1  UNK A   0     -11.321  19.894  70.446  1.00  0.00     0.000 HD 
HETATM   14  C   UNK A   0      -7.862  18.892  67.967  1.00  0.00    -0.277 C  
HETATM   15  N   UNK A   0     -10.528  18.691  68.456  1.00  0.00    -0.386 NA 
HETATM   16  N   UNK A   0     -10.315  19.988  70.300  1.00  0.00    -0.394 NA 
HETATM   17  N   UNK A   0      -8.427  19.522  69.063  1.00  0.00    -0.280 N  
ENDROOT
BRANCH   3  18
HETATM   18  C   UNK A   0      -8.939  14.727  66.867  1.00  0.00    -0.253 C  
BRANCH  18  19
HETATM   19  N   UNK A   0      -9.605  13.492  66.408  1.00  0.00    -0.321 NA 
HETATM   20  H   UNK A   0      -9.742  13.298  65.416  1.00  0.00     0.000 HD 
BRANCH  19  21
HETATM   21  C   UNK A   0     -10.040  12.599  67.398  1.00  0.00    -0.218 A  
HETATM   22  C   UNK A   0     -11.907  11.742  68.710  1.00  0.00    -0.380 A  
HETATM   23  C   UNK A   0     -11.057  10.820  69.321  1.00  0.00    -0.312 A  
HETATM   24  C   UNK A   0      -9.180  11.762  68.115  1.00  0.00    -0.186 A  
HETATM   25  C   UNK A   0     -11.392  12.632  67.763  1.00  0.00    -0.349 A  
HETATM   26  C   UNK A   0      -9.683  10.866  69.061  1.00  0.00    -0.181 A  
BRANCH  23  27
HETATM   27  C   UNK A   0     -11.620   9.812  70.255  1.00  0.00    -0.220 C  
ATOM     28  H   GLU A   1      -9.901   8.648  70.056  1.00  0.00     0.000 HD 
ATOM     29  N   GLU A   1     -10.828   8.697  70.480  1.00  0.00    -0.224 N  
HETATM   30  O   UNK A   0     -12.699   9.985  70.798  1.00  0.00    -0.315 OA 
BRANCH  29  31
ATOM     31  CA  GLU A   1     -11.299   7.576  71.322  1.00  0.00    -0.261 C  
ATOM     32  C   GLU A   1     -10.773   7.744  72.767  1.00  0.00    -0.356 C  
ATOM     33  O   GLU A   1      -9.938   8.796  72.930  1.00  0.00    -0.036 OA 
ATOM     34  OXT GLU A   1     -11.031   6.980  73.687  1.00  0.00    -0.270 OA 
BRANCH  31  35
ATOM     35  CB  GLU A   1     -10.842   6.237  70.714  1.00  0.00    -0.339 C  
BRANCH  35  36
ATOM     36  CG  GLU A   1      -9.386   6.245  70.233  1.00  0.00    -0.170 C  
ATOM     37  CD  GLU A   1      -8.478   5.416  71.107  1.00  0.00    -0.125 C  
ATOM     38  OE2 GLU A   1      -8.822   4.814  72.111  1.00  0.00    -0.122 OA 
ATOM     39  OE1 GLU A   1      -7.203   5.401  70.641  1.00  0.00    -0.064 OA 
ENDBRANCH  35  36
ENDBRANCH  31  35
ENDBRANCH  29  31
ENDBRANCH  23  27
ENDBRANCH  19  21
ENDBRANCH  18  19
ENDBRANCH   3  18
TORSDOF 7
ENDMDL
MODEL      178
REMARK 921   NORMALIZED FREE ENERGY PREDICTED BY IDOCK:   -4.97 KCAL/MOL
REMARK 922        TOTAL FREE ENERGY PREDICTED BY IDOCK:   -8.24 KCAL/MOL
REMARK 923 INTER-LIGAND FREE ENERGY PREDICTED BY IDOCK:   -7.21 KCAL/MOL
REMARK 924 INTRA-LIGAND FREE ENERGY PREDICTED BY IDOCK:   -1.03 KCAL/MOL
REMARK 927      BINDING AFFINITY PREDICTED BY RF-SCORE:    0.00 PKD
ROOT
HETATM    1  C   UNK A   0      -9.063  14.800  65.959  1.00  0.00    -0.026 C  
HETATM    2  N   UNK A   0     -10.121  13.808  65.838  1.00  0.00    -0.307 NA 
HETATM    3  C   UNK A   0     -10.590  13.448  64.469  1.00  0.00    -0.425 C  
HETATM    4  O   UNK A   0      -9.076  13.821  68.583  1.00  0.00    -0.163 OA 
HETATM    5  C   UNK A   0     -12.128  13.264  64.514  1.00  0.00    -0.408 C  
HETATM    6  C   UNK A   0     -11.507  11.451  68.968  1.00  0.00    -0.300 C  
HETATM    7  N   UNK A   0     -12.533  12.366  65.609  1.00  0.00    -0.562 NA 
HETATM    8  H   UNK A   0     -13.341  11.754  65.497  1.00  0.00     0.000 HD 
HETATM    9  H2  UNK A   0     -11.499  10.341  70.699  1.00  0.00     0.000 HD 
HETATM   10  C   UNK A   0     -11.809  12.359  66.799  1.00  0.00    -0.315 C  
HETATM   11  H   UNK A   0      -9.936  11.972  70.115  1.00  0.00     0.000 HD 
HETATM   12  C   UNK A   0     -10.676  13.095  66.936  1.00  0.00    -0.263 C  
HETATM   13  H1  UNK A   0     -12.831   9.983  69.604  1.00  0.00     0.000 HD 
HETATM   14  C   UNK A   0     -10.004  13.059  68.320  1.00  0.00    -0.235 C  
HETATM   15  N   UNK A   0     -12.227  11.575  67.833  1.00  0.00    -0.427 NA 
HETATM   16  N   UNK A   0     -11.989  10.516  69.821  1.00  0.00    -0.431 NA 
HETATM   17  N   UNK A   0     -10.442  12.124  69.242  1.00  0.00    -0.430 N  
ENDROOT
BRANCH   3  18
HETATM   18  C   UNK A   0      -9.877  12.160  63.974  1.00  0.00    -0.191 C  
BRANCH  18  19
HETATM   19  N   UNK A   0      -8.749  11.792  64.852  1.00  0.00    -0.080 NA 
HETATM   20  H   UNK A   0      -7.852  12.274  64.798  1.00  0.00     0.000 HD 
BRANCH  19  21
HETATM   21  C   UNK A   0      -8.968  10.747  65.763  1.00  0.00    -0.187 A  
HETATM   22  C   UNK A   0      -8.244   9.613  67.795  1.00  0.00    -0.114 A  
HETATM   23  C   UNK A   0      -9.326   8.738  67.694  1.00  0.00    -0.157 A  
HETATM   24  C   UNK A   0      -9.966   9.782  65.605  1.00  0.00    -0.352 A  
HETATM   25  C   UNK A   0      -8.065  10.603  66.824  1.00  0.00    -0.131 A  
HETATM   26  C   UNK A   0     -10.157   8.790  66.570  1.00  0.00    -0.349 A  
BRANCH  23  27
HETATM   27  C   UNK A   0      -9.571   7.749  68.775  1.00  0.00    -0.154 C  
ATOM     28  H   GLU A   1      -7.666   6.949  68.492  1.00  0.00     0.000 HD 
ATOM     29  N   GLU A   1      -8.540   6.854  69.011  1.00  0.00    -0.128 N  
HETATM   30  O   UNK A   0     -10.609   7.756  69.417  1.00  0.00    -0.224 OA 
BRANCH  29  31
ATOM     31  CA  GLU A   1      -8.679   5.763  70.000  1.00  0.00    -0.132 C  
ATOM     32  C   GLU A   1      -7.994   6.163  71.327  1.00  0.00    -0.113 C  
ATOM     33  O   GLU A   1      -7.346   7.350  71.276  1.00  0.00    -0.074 OA 
ATOM     34  OXT GLU A   1      -7.979   5.467  72.333  1.00  0.00    -0.101 OA 
BRANCH  31  35
ATOM     35  CB  GLU A   1      -8.081   4.463  69.433  1.00  0.00    -0.061 C  
BRANCH  35  36
ATOM     36  CG  GLU A   1      -8.768   3.977  68.152  1.00  0.00    -0.120 C  
ATOM     37  CD  GLU A   1      -7.870   4.053  66.942  1.00  0.00    -0.096 C  
ATOM     38  OE2 GLU A   1      -6.726   4.476  66.939  1.00  0.00    -0.049 OA 
ATOM     39  OE1 GLU A   1      -8.481   3.579  65.827  1.00  0.00    -0.104 OA 
ENDBRANCH  35  36
ENDBRANCH  31  35
ENDBRANCH  29  31
ENDBRANCH  23  27
ENDBRANCH  19  21
ENDBRANCH  18  19
ENDBRANCH   3  18
TORSDOF 7
ENDMDL
MODEL      179
REMARK 921   NORMALIZED FREE ENERGY PREDICTED BY IDOCK:   -4.87 KCAL/MOL
REMARK 922        TOTAL FREE ENERGY PREDICTED BY IDOCK:   -8.09 KCAL/MOL
REMARK 923 INTER-LIGAND FREE ENERGY PREDICTED BY IDOCK:   -7.78 KCAL/MOL
REMARK 924 INTRA-LIGAND FREE ENERGY PREDICTED BY IDOCK:   -0.31 KCAL/MOL
REMARK 927      BINDING AFFINITY PREDICTED BY RF-SCORE:    0.00 PKD
ROOT
HETATM    1  C   UNK A   0     -11.362  16.684  68.514  1.00  0.00    -0.152 C  
HETATM    2  N   UNK A   0     -10.291  16.492  67.548  1.00  0.00    -0.288 NA 
HETATM    3  C   UNK A   0     -10.087  15.124  66.989  1.00  0.00    -0.244 C  
HETATM    4  O   UNK A   0     -10.754  19.361  67.966  1.00  0.00    -0.377 OA 
HETATM    5  C   UNK A   0      -8.563  14.871  66.862  1.00  0.00    -0.239 C  
HETATM    6  C   UNK A   0      -8.152  19.576  65.763  1.00  0.00    -0.054 C  
HETATM    7  N   UNK A   0      -7.888  15.979  66.163  1.00  0.00    -0.079 NA 
HETATM    8  H   UNK A   0      -7.083  15.792  65.565  1.00  0.00     0.000 HD 
HETATM    9  H2  UNK A   0      -7.738  21.416  64.942  1.00  0.00     0.000 HD 
HETATM   10  C   UNK A   0      -8.354  17.282  66.323  1.00  0.00    -0.254 C  
HETATM   11  H   UNK A   0      -9.487  20.937  66.411  1.00  0.00     0.000 HD 
HETATM   12  C   UNK A   0      -9.480  17.542  67.036  1.00  0.00    -0.268 C  
HETATM   13  H1  UNK A   0      -6.636  20.131  64.457  1.00  0.00     0.000 HD 
HETATM   14  C   UNK A   0      -9.854  19.026  67.200  1.00  0.00    -0.324 C  
HETATM   15  N   UNK A   0      -7.686  18.310  65.726  1.00  0.00    -0.532 NA 
HETATM   16  N   UNK A   0      -7.448  20.438  64.991  1.00  0.00    -0.405 NA 
HETATM   17  N   UNK A   0      -9.179  19.964  66.438  1.00  0.00    -0.392 N  
ENDROOT
BRANCH   3  18
HETATM   18  C   UNK A   0     -10.803  14.988  65.617  1.00  0.00    -0.349 C  
BRANCH  18  19
HETATM   19  N   UNK A   0     -11.722  13.833  65.598  1.00  0.00    -0.335 NA 
HETATM   20  H   UNK A   0     -12.668  13.911  65.224  1.00  0.00     0.000 HD 
BRANCH  19  21
HETATM   21  C   UNK A   0     -11.236  12.624  66.118  1.00  0.00    -0.309 A  
HETATM   22  C   UNK A   0     -11.170  11.081  68.002  1.00  0.00    -0.372 A  
HETATM   23  C   UNK A   0     -10.382  10.202  67.258  1.00  0.00    -0.291 A  
HETATM   24  C   UNK A   0     -10.338  11.797  65.436  1.00  0.00    -0.311 A  
HETATM   25  C   UNK A   0     -11.582  12.289  67.433  1.00  0.00    -0.425 A  
HETATM   26  C   UNK A   0      -9.923  10.585  65.994  1.00  0.00    -0.295 A  
BRANCH  23  27
HETATM   27  C   UNK A   0     -10.025   8.877  67.827  1.00  0.00    -0.192 C  
ATOM     28  H   GLU A   1      -8.270   8.853  66.701  1.00  0.00     0.000 HD 
ATOM     29  N   GLU A   1      -8.848   8.321  67.352  1.00  0.00    -0.130 N  
HETATM   30  O   UNK A   0     -10.723   8.342  68.674  1.00  0.00    -0.155 OA 
BRANCH  29  31
ATOM     31  CA  GLU A   1      -8.413   6.970  67.769  1.00  0.00    -0.120 C  
ATOM     32  C   GLU A   1      -6.887   6.821  67.568  1.00  0.00    -0.077 C  
ATOM     33  O   GLU A   1      -6.302   7.891  66.981  1.00  0.00    -0.052 OA 
ATOM     34  OXT GLU A   1      -6.248   5.819  67.858  1.00  0.00    -0.027 OA 
BRANCH  31  35
ATOM     35  CB  GLU A   1      -9.187   5.902  66.974  1.00  0.00    -0.120 C  
BRANCH  35  36
ATOM     36  CG  GLU A   1      -9.009   4.480  67.519  1.00  0.00    -0.126 C  
ATOM     37  CD  GLU A   1      -9.750   4.254  68.813  1.00  0.00    -0.114 C  
ATOM     38  OE2 GLU A   1     -10.406   5.094  69.406  1.00  0.00    -0.234 OA 
ATOM     39  OE1 GLU A   1      -9.616   2.979  69.257  1.00  0.00    -0.143 OA 
ENDBRANCH  35  36
ENDBRANCH  31  35
ENDBRANCH  29  31
ENDBRANCH  23  27
ENDBRANCH  19  21
ENDBRANCH  18  19
ENDBRANCH   3  18
TORSDOF 7
ENDMDL
MODEL      180
REMARK 921   NORMALIZED FREE ENERGY PREDICTED BY IDOCK:   -4.84 KCAL/MOL
REMARK 922        TOTAL FREE ENERGY PREDICTED BY IDOCK:   -8.05 KCAL/MOL
REMARK 923 INTER-LIGAND FREE ENERGY PREDICTED BY IDOCK:   -6.93 KCAL/MOL
REMARK 924 INTRA-LIGAND FREE ENERGY PREDICTED BY IDOCK:   -1.12 KCAL/MOL
REMARK 927      BINDING AFFINITY PREDICTED BY RF-SCORE:    0.00 PKD
ROOT
HETATM    1  C   UNK A   0     -10.753  16.687  65.406  1.00  0.00    -0.215 C  
HETATM    2  N   UNK A   0     -10.500  16.227  66.763  1.00  0.00    -0.298 NA 
HETATM    3  C   UNK A   0     -11.596  15.510  67.476  1.00  0.00    -0.106 C  
HETATM    4  O   UNK A   0      -7.978  17.047  65.501  1.00  0.00    -0.120 OA 
HETATM    5  C   UNK A   0     -11.591  15.963  68.959  1.00  0.00    -0.389 C  
HETATM    6  C   UNK A   0      -6.763  16.208  68.582  1.00  0.00    -0.128 C  
HETATM    7  N   UNK A   0     -10.245  15.867  69.548  1.00  0.00    -0.262 NA 
HETATM    8  H   UNK A   0     -10.133  15.626  70.533  1.00  0.00     0.000 HD 
HETATM    9  H2  UNK A   0      -4.724  16.061  68.802  1.00  0.00     0.000 HD 
HETATM   10  C   UNK A   0      -9.125  16.109  68.755  1.00  0.00    -0.229 C  
HETATM   11  H   UNK A   0      -5.852  16.540  66.817  1.00  0.00     0.000 HD 
HETATM   12  C   UNK A   0      -9.245  16.339  67.422  1.00  0.00    -0.211 C  
HETATM   13  H1  UNK A   0      -5.642  15.795  70.281  1.00  0.00     0.000 HD 
HETATM   14  C   UNK A   0      -7.943  16.662  66.668  1.00  0.00    -0.280 C  
HETATM   15  N   UNK A   0      -7.885  16.083  69.322  1.00  0.00    -0.235 NA 
HETATM   16  N   UNK A   0      -5.622  16.004  69.283  1.00  0.00    -0.113 NA 
HETATM   17  N   UNK A   0      -6.737  16.472  67.321  1.00  0.00    -0.163 N  
ENDROOT
BRANCH   3  18
HETATM   18  C   UNK A   0     -11.410  13.973  67.351  1.00  0.00    -0.329 C  
BRANCH  18  19
HETATM   19  N   UNK A   0     -12.279  13.243  68.295  1.00  0.00    -0.181 NA 
HETATM   20  H   UNK A   0     -13.186  13.612  68.580  1.00  0.00     0.000 HD 
BRANCH  19  21
HETATM   21  C   UNK A   0     -11.799  12.018  68.783  1.00  0.00    -0.302 A  
HETATM   22  C   UNK A   0     -11.618  10.494  70.676  1.00  0.00    -0.445 A  
HETATM   23  C   UNK A   0     -10.949   9.571  69.871  1.00  0.00    -0.263 A  
HETATM   24  C   UNK A   0     -11.013  11.142  68.029  1.00  0.00    -0.307 A  
HETATM   25  C   UNK A   0     -12.028  11.714  70.131  1.00  0.00    -0.441 A  
HETATM   26  C   UNK A   0     -10.600   9.918  68.562  1.00  0.00    -0.248 A  
BRANCH  23  27
HETATM   27  C   UNK A   0     -10.598   8.237  70.422  1.00  0.00    -0.224 C  
ATOM     28  H   GLU A   1      -8.571   8.713  70.320  1.00  0.00     0.000 HD 
ATOM     29  N   GLU A   1      -9.242   7.980  70.547  1.00  0.00    -0.153 N  
HETATM   30  O   UNK A   0     -11.462   7.444  70.760  1.00  0.00    -0.279 OA 
BRANCH  29  31
ATOM     31  CA  GLU A   1      -8.748   6.662  71.004  1.00  0.00    -0.138 C  
ATOM     32  C   GLU A   1      -7.860   6.837  72.258  1.00  0.00    -0.095 C  
ATOM     33  O   GLU A   1      -7.649   8.127  72.607  1.00  0.00    -0.111 OA 
ATOM     34  OXT GLU A   1      -7.341   5.913  72.869  1.00  0.00    -0.089 OA 
BRANCH  31  35
ATOM     35  CB  GLU A   1      -7.976   5.970  69.866  1.00  0.00    -0.113 C  
BRANCH  35  36
ATOM     36  CG  GLU A   1      -8.796   5.799  68.581  1.00  0.00    -0.110 C  
ATOM     37  CD  GLU A   1      -8.228   6.573  67.418  1.00  0.00    -0.121 C  
ATOM     38  OE2 GLU A   1      -7.242   7.291  67.464  1.00  0.00    -0.085 OA 
ATOM     39  OE1 GLU A   1      -8.942   6.376  66.281  1.00  0.00    -0.150 OA 
ENDBRANCH  35  36
ENDBRANCH  31  35
ENDBRANCH  29  31
ENDBRANCH  23  27
ENDBRANCH  19  21
ENDBRANCH  18  19
ENDBRANCH   3  18
TORSDOF 7
ENDMDL
MODEL      181
REMARK 921   NORMALIZED FREE ENERGY PREDICTED BY IDOCK:   -4.79 KCAL/MOL
REMARK 922        TOTAL FREE ENERGY PREDICTED BY IDOCK:   -7.99 KCAL/MOL
REMARK 923 INTER-LIGAND FREE ENERGY PREDICTED BY IDOCK:   -6.66 KCAL/MOL
REMARK 924 INTRA-LIGAND FREE ENERGY PREDICTED BY IDOCK:   -1.33 KCAL/MOL
REMARK 927      BINDING AFFINITY PREDICTED BY RF-SCORE:    0.00 PKD
ROOT
HETATM    1  C   UNK A   0     -11.546  13.234  69.787  1.00  0.00    -0.227 C  
HETATM    2  N   UNK A   0     -10.508  13.379  68.777  1.00  0.00    -0.360 NA 
HETATM    3  C   UNK A   0      -9.850  12.143  68.264  1.00  0.00    -0.212 C  
HETATM    4  O   UNK A   0     -11.947  15.919  69.100  1.00  0.00    -0.380 OA 
HETATM    5  C   UNK A   0      -8.341  12.438  68.072  1.00  0.00    -0.170 C  
HETATM    6  C   UNK A   0      -9.664  16.915  66.763  1.00  0.00    -0.266 C  
HETATM    7  N   UNK A   0      -8.127  13.671  67.296  1.00  0.00    -0.291 NA 
HETATM    8  H   UNK A   0      -7.328  13.748  66.666  1.00  0.00     0.000 HD 
HETATM    9  H2  UNK A   0      -9.957  18.734  65.848  1.00  0.00     0.000 HD 
HETATM   10  C   UNK A   0      -9.020  14.733  67.425  1.00  0.00    -0.192 C  
HETATM   11  H   UNK A   0     -11.373  17.751  67.421  1.00  0.00     0.000 HD 
HETATM   12  C   UNK A   0     -10.141  14.618  68.183  1.00  0.00    -0.224 C  
HETATM   13  H1  UNK A   0      -8.487  17.897  65.361  1.00  0.00     0.000 HD 
HETATM   14  C   UNK A   0     -11.011  15.881  68.305  1.00  0.00    -0.329 C  
HETATM   15  N   UNK A   0      -8.780  15.895  66.754  1.00  0.00    -0.242 NA 
HETATM   16  N   UNK A   0      -9.338  17.926  65.922  1.00  0.00    -0.514 NA 
HETATM   17  N   UNK A   0     -10.739  16.953  67.472  1.00  0.00    -0.308 N  
ENDROOT
BRANCH   3  18
HETATM   18  C   UNK A   0     -10.515  11.686  66.938  1.00  0.00    -0.227 C  
BRANCH  18  19
HETATM   19  N   UNK A   0      -9.569  10.934  66.088  1.00  0.00    -0.195 NA 
HETATM   20  H   UNK A   0      -8.942  11.410  65.440  1.00  0.00     0.000 HD 
BRANCH  19  21
HETATM   21  C   UNK A   0      -9.575   9.537  66.213  1.00  0.00    -0.226 A  
HETATM   22  C   UNK A   0      -8.584   7.414  65.543  1.00  0.00    -0.093 A  
HETATM   23  C   UNK A   0      -9.437   6.738  66.415  1.00  0.00    -0.166 A  
HETATM   24  C   UNK A   0     -10.510   8.835  66.978  1.00  0.00    -0.338 A  
HETATM   25  C   UNK A   0      -8.665   8.806  65.438  1.00  0.00    -0.217 A  
HETATM   26  C   UNK A   0     -10.436   7.444  67.093  1.00  0.00    -0.403 A  
BRANCH  23  27
HETATM   27  C   UNK A   0      -9.287   5.272  66.597  1.00  0.00    -0.138 C  
ATOM     28  H   GLU A   1      -7.248   5.513  66.959  1.00  0.00     0.000 HD 
ATOM     29  N   GLU A   1      -7.998   4.830  66.852  1.00  0.00    -0.102 N  
HETATM   30  O   UNK A   0     -10.251   4.525  66.546  1.00  0.00    -0.243 OA 
BRANCH  29  31
ATOM     31  CA  GLU A   1      -7.689   3.389  66.972  1.00  0.00    -0.079 C  
ATOM     32  C   GLU A   1      -6.663   3.162  68.107  1.00  0.00    -0.045 C  
ATOM     33  O   GLU A   1      -6.204   4.304  68.670  1.00  0.00    -0.030 OA 
ATOM     34  OXT GLU A   1      -6.247   2.064  68.452  1.00  0.00    -0.024 OA 
BRANCH  31  35
ATOM     35  CB  GLU A   1      -7.161   2.853  65.629  1.00  0.00    -0.070 C  
BRANCH  35  36
ATOM     36  CG  GLU A   1      -8.184   2.008  64.860  1.00  0.00    -0.080 C  
ATOM     37  CD  GLU A   1      -8.799   2.748  63.699  1.00  0.00    -0.088 C  
ATOM     38  OE2 GLU A   1      -8.556   3.904  63.391  1.00  0.00    -0.091 OA 
ATOM     39  OE1 GLU A   1      -9.668   1.971  63.005  1.00  0.00    -0.090 OA 
ENDBRANCH  35  36
ENDBRANCH  31  35
ENDBRANCH  29  31
ENDBRANCH  23  27
ENDBRANCH  19  21
ENDBRANCH  18  19
ENDBRANCH   3  18
TORSDOF 7
ENDMDL
MODEL      182
REMARK 921   NORMALIZED FREE ENERGY PREDICTED BY IDOCK:   -4.79 KCAL/MOL
REMARK 922        TOTAL FREE ENERGY PREDICTED BY IDOCK:   -7.98 KCAL/MOL
REMARK 923 INTER-LIGAND FREE ENERGY PREDICTED BY IDOCK:   -6.79 KCAL/MOL
REMARK 924 INTRA-LIGAND FREE ENERGY PREDICTED BY IDOCK:   -1.19 KCAL/MOL
REMARK 927      BINDING AFFINITY PREDICTED BY RF-SCORE:    0.00 PKD
ROOT
HETATM    1  C   UNK A   0      -7.090  16.779  68.747  1.00  0.00    -0.202 C  
HETATM    2  N   UNK A   0      -8.464  17.074  68.366  1.00  0.00    -0.230 NA 
HETATM    3  C   UNK A   0      -8.696  17.787  67.077  1.00  0.00    -0.244 C  
HETATM    4  O   UNK A   0      -8.435  15.186  70.615  1.00  0.00     0.980 OA 
HETATM    5  C   UNK A   0      -9.849  18.802  67.283  1.00  0.00    -0.317 C  
HETATM    6  C   UNK A   0     -11.817  15.540  70.284  1.00  0.00    -0.357 C  
HETATM    7  N   UNK A   0     -11.022  18.167  67.909  1.00  0.00    -0.198 NA 
HETATM    8  H   UNK A   0     -11.963  18.478  67.666  1.00  0.00     0.000 HD 
HETATM    9  H2  UNK A   0     -13.025  14.227  71.305  1.00  0.00     0.000 HD 
HETATM   10  C   UNK A   0     -10.841  17.141  68.834  1.00  0.00    -0.172 C  
HETATM   11  H   UNK A   0     -10.692  14.193  71.271  1.00  0.00     0.000 HD 
HETATM   12  C   UNK A   0      -9.604  16.648  69.101  1.00  0.00    -0.208 C  
HETATM   13  H1  UNK A   0     -13.889  15.464  70.399  1.00  0.00     0.000 HD 
HETATM   14  C   UNK A   0      -9.525  15.566  70.192  1.00  0.00     0.290 C  
HETATM   15  N   UNK A   0     -11.926  16.603  69.459  1.00  0.00     0.014 NA 
HETATM   16  N   UNK A   0     -13.008  15.042  70.692  1.00  0.00    -0.531 NA 
HETATM   17  N   UNK A   0     -10.704  15.006  70.654  1.00  0.00    -0.528 N  
ENDROOT
BRANCH   3  18
HETATM   18  C   UNK A   0      -9.026  16.773  65.948  1.00  0.00    -0.068 C  
BRANCH  18  19
HETATM   19  N   UNK A   0      -8.257  15.521  66.101  1.00  0.00    -0.212 NA 
HETATM   20  H   UNK A   0      -7.312  15.428  65.729  1.00  0.00     0.000 HD 
BRANCH  19  21
HETATM   21  C   UNK A   0      -8.887  14.468  66.780  1.00  0.00    -0.220 A  
HETATM   22  C   UNK A   0     -10.981  13.381  67.391  1.00  0.00    -0.287 A  
HETATM   23  C   UNK A   0     -10.271  12.375  68.047  1.00  0.00    -0.219 A  
HETATM   24  C   UNK A   0      -8.199  13.528  67.553  1.00  0.00    -0.186 A  
HETATM   25  C   UNK A   0     -10.287  14.426  66.773  1.00  0.00    -0.273 A  
HETATM   26  C   UNK A   0      -8.882  12.478  68.173  1.00  0.00    -0.191 A  
BRANCH  23  27
HETATM   27  C   UNK A   0     -11.002  11.217  68.620  1.00  0.00    -0.218 C  
ATOM     28  H   GLU A   1     -11.019  12.137  70.491  1.00  0.00     0.000 HD 
ATOM     29  N   GLU A   1     -11.272  11.293  69.977  1.00  0.00    -0.197 N  
HETATM   30  O   UNK A   0     -11.354  10.281  67.921  1.00  0.00    -0.294 OA 
BRANCH  29  31
ATOM     31  CA  GLU A   1     -11.920  10.175  70.696  1.00  0.00    -0.332 C  
ATOM     32  C   GLU A   1     -12.930  10.726  71.730  1.00  0.00    -0.463 C  
ATOM     33  O   GLU A   1     -12.939  12.076  71.825  1.00  0.00    -0.405 OA 
ATOM     34  OXT GLU A   1     -13.634  10.027  72.447  1.00  0.00    -0.341 OA 
BRANCH  31  35
ATOM     35  CB  GLU A   1     -10.851   9.299  71.375  1.00  0.00    -0.434 C  
BRANCH  35  36
ATOM     36  CG  GLU A   1     -10.977   7.807  71.044  1.00  0.00    -0.260 C  
ATOM     37  CD  GLU A   1      -9.877   7.316  70.136  1.00  0.00    -0.179 C  
ATOM     38  OE2 GLU A   1      -8.984   8.006  69.672  1.00  0.00    -0.143 OA 
ATOM     39  OE1 GLU A   1      -9.981   5.985  69.889  1.00  0.00    -0.164 OA 
ENDBRANCH  35  36
ENDBRANCH  31  35
ENDBRANCH  29  31
ENDBRANCH  23  27
ENDBRANCH  19  21
ENDBRANCH  18  19
ENDBRANCH   3  18
TORSDOF 7
ENDMDL
MODEL      183
REMARK 921   NORMALIZED FREE ENERGY PREDICTED BY IDOCK:   -4.78 KCAL/MOL
REMARK 922        TOTAL FREE ENERGY PREDICTED BY IDOCK:   -7.96 KCAL/MOL
REMARK 923 INTER-LIGAND FREE ENERGY PREDICTED BY IDOCK:   -7.40 KCAL/MOL
REMARK 924 INTRA-LIGAND FREE ENERGY PREDICTED BY IDOCK:   -0.56 KCAL/MOL
REMARK 927      BINDING AFFINITY PREDICTED BY RF-SCORE:    0.00 PKD
ROOT
HETATM    1  C   UNK A   0     -11.152  14.730  68.840  1.00  0.00    -0.252 C  
HETATM    2  N   UNK A   0     -11.261  13.285  68.707  1.00  0.00    -0.262 NA 
HETATM    3  C   UNK A   0     -10.475  12.619  67.628  1.00  0.00    -0.219 C  
HETATM    4  O   UNK A   0     -12.454  14.144  71.249  1.00  0.00    -0.333 OA 
HETATM    5  C   UNK A   0     -11.346  11.493  67.014  1.00  0.00    -0.269 C  
HETATM    6  C   UNK A   0     -13.103  10.798  71.480  1.00  0.00    -0.414 C  
HETATM    7  N   UNK A   0     -11.911  10.619  68.057  1.00  0.00    -0.767 NA 
HETATM    8  H   UNK A   0     -12.046   9.625  67.874  1.00  0.00     0.000 HD 
HETATM    9  H2  UNK A   0     -13.744  10.067  73.293  1.00  0.00     0.000 HD 
HETATM   10  C   UNK A   0     -12.259  11.156  69.295  1.00  0.00    -0.226 C  
HETATM   11  H   UNK A   0     -13.152  12.279  72.843  1.00  0.00     0.000 HD 
HETATM   12  C   UNK A   0     -12.000  12.455  69.594  1.00  0.00    -0.274 C  
HETATM   13  H1  UNK A   0     -13.660   8.867  72.007  1.00  0.00     0.000 HD 
HETATM   14  C   UNK A   0     -12.495  12.949  70.965  1.00  0.00    -0.283 C  
HETATM   15  N   UNK A   0     -12.841  10.356  70.233  1.00  0.00    -0.533 NA 
HETATM   16  N   UNK A   0     -13.536   9.830  72.322  1.00  0.00    -0.586 NA 
HETATM   17  N   UNK A   0     -12.947  12.013  71.879  1.00  0.00    -0.374 N  
ENDROOT
BRANCH   3  18
HETATM   18  C   UNK A   0      -9.141  12.062  68.193  1.00  0.00    -0.191 C  
BRANCH  18  19
HETATM   19  N   UNK A   0      -9.368  11.197  69.368  1.00  0.00    -0.378 NA 
HETATM   20  H   UNK A   0      -9.933  11.508  70.158  1.00  0.00     0.000 HD 
BRANCH  19  21
HETATM   21  C   UNK A   0      -8.771   9.927  69.347  1.00  0.00    -0.179 A  
HETATM   22  C   UNK A   0      -7.630   8.177  70.601  1.00  0.00    -0.073 A  
HETATM   23  C   UNK A   0      -7.601   7.375  69.460  1.00  0.00    -0.099 A  
HETATM   24  C   UNK A   0      -8.615   9.167  68.185  1.00  0.00    -0.129 A  
HETATM   25  C   UNK A   0      -8.203   9.451  70.535  1.00  0.00    -0.221 A  
HETATM   26  C   UNK A   0      -8.047   7.892  68.239  1.00  0.00    -0.123 A  
BRANCH  23  27
HETATM   27  C   UNK A   0      -7.080   5.988  69.552  1.00  0.00    -0.069 C  
ATOM     28  H   GLU A   1      -8.761   5.275  68.547  1.00  0.00     0.000 HD 
ATOM     29  N   GLU A   1      -7.897   5.005  69.017  1.00  0.00    -0.080 N  
HETATM   30  O   UNK A   0      -5.990   5.752  70.049  1.00  0.00    -0.023 OA 
BRANCH  29  31
ATOM     31  CA  GLU A   1      -7.542   3.572  69.114  1.00  0.00    -0.052 C  
ATOM     32  C   GLU A   1      -8.091   2.808  67.886  1.00  0.00    -0.069 C  
ATOM     33  O   GLU A   1      -8.840   3.568  67.055  1.00  0.00    -0.112 OA 
ATOM     34  OXT GLU A   1      -7.920   1.613  67.685  1.00  0.00    -0.058 OA 
BRANCH  31  35
ATOM     35  CB  GLU A   1      -8.091   2.985  70.427  1.00  0.00    -0.055 C  
BRANCH  35  36
ATOM     36  CG  GLU A   1      -9.506   3.465  70.771  1.00  0.00    -0.240 C  
ATOM     37  CD  GLU A   1      -9.528   4.436  71.925  1.00  0.00    -0.144 C  
ATOM     38  OE2 GLU A   1      -8.552   4.800  72.559  1.00  0.00    -0.114 OA 
ATOM     39  OE1 GLU A   1     -10.783   4.881  72.187  1.00  0.00    -0.198 OA 
ENDBRANCH  35  36
ENDBRANCH  31  35
ENDBRANCH  29  31
ENDBRANCH  23  27
ENDBRANCH  19  21
ENDBRANCH  18  19
ENDBRANCH   3  18
TORSDOF 7
ENDMDL
MODEL      184
REMARK 921   NORMALIZED FREE ENERGY PREDICTED BY IDOCK:   -4.77 KCAL/MOL
REMARK 922        TOTAL FREE ENERGY PREDICTED BY IDOCK:   -7.95 KCAL/MOL
REMARK 923 INTER-LIGAND FREE ENERGY PREDICTED BY IDOCK:   -8.04 KCAL/MOL
REMARK 924 INTRA-LIGAND FREE ENERGY PREDICTED BY IDOCK:    0.09 KCAL/MOL
REMARK 927      BINDING AFFINITY PREDICTED BY RF-SCORE:    0.00 PKD
ROOT
HETATM    1  C   UNK A   0     -10.831  11.609  64.594  1.00  0.00    -0.314 C  
HETATM    2  N   UNK A   0     -10.336  10.805  65.701  1.00  0.00    -0.250 NA 
HETATM    3  C   UNK A   0      -9.112   9.983  65.478  1.00  0.00    -0.186 C  
HETATM    4  O   UNK A   0     -12.364  12.695  66.671  1.00  0.00    -0.474 OA 
HETATM    5  C   UNK A   0      -9.296   8.626  66.203  1.00  0.00    -0.226 C  
HETATM    6  C   UNK A   0     -11.704  11.091  69.615  1.00  0.00    -0.329 C  
HETATM    7  N   UNK A   0      -9.720   8.815  67.602  1.00  0.00    -0.162 NA 
HETATM    8  H   UNK A   0      -9.410   8.164  68.323  1.00  0.00     0.000 HD 
HETATM    9  H2  UNK A   0     -12.444  11.919  71.346  1.00  0.00     0.000 HD 
HETATM   10  C   UNK A   0     -10.546   9.887  67.934  1.00  0.00    -0.254 C  
HETATM   11  H   UNK A   0     -12.661  12.814  69.202  1.00  0.00     0.000 HD 
HETATM   12  C   UNK A   0     -10.893  10.819  67.009  1.00  0.00    -0.252 C  
HETATM   13  H1  UNK A   0     -11.584  10.400  71.570  1.00  0.00     0.000 HD 
HETATM   14  C   UNK A   0     -11.867  11.914  67.479  1.00  0.00    -0.179 C  
HETATM   15  N   UNK A   0     -10.988  10.019  69.217  1.00  0.00    -0.229 NA 
HETATM   16  N   UNK A   0     -11.925  11.135  70.950  1.00  0.00    -0.320 NA 
HETATM   17  N   UNK A   0     -12.136  12.021  68.833  1.00  0.00    -0.231 N  
ENDROOT
BRANCH   3  18
HETATM   18  C   UNK A   0      -7.853  10.736  65.989  1.00  0.00    -0.149 C  
BRANCH  18  19
HETATM   19  N   UNK A   0      -8.009  11.160  67.395  1.00  0.00    -0.121 NA 
HETATM   20  H   UNK A   0      -8.219  10.489  68.134  1.00  0.00     0.000 HD 
BRANCH  19  21
HETATM   21  C   UNK A   0      -7.855  12.528  67.667  1.00  0.00    -0.162 A  
HETATM   22  C   UNK A   0      -8.920  14.624  68.306  1.00  0.00    -0.184 A  
HETATM   23  C   UNK A   0      -7.678  15.261  68.295  1.00  0.00    -0.112 A  
HETATM   24  C   UNK A   0      -6.642  13.209  67.532  1.00  0.00    -0.159 A  
HETATM   25  C   UNK A   0      -9.002  13.267  67.980  1.00  0.00    -0.191 A  
HETATM   26  C   UNK A   0      -6.547  14.565  67.857  1.00  0.00    -0.178 A  
BRANCH  23  27
HETATM   27  C   UNK A   0      -7.577  16.676  68.733  1.00  0.00    -0.227 C  
ATOM     28  H   GLU A   1      -9.418  17.095  67.847  1.00  0.00     0.000 HD 
ATOM     29  N   GLU A   1      -8.624  17.498  68.345  1.00  0.00    -0.269 N  
HETATM   30  O   UNK A   0      -6.638  17.065  69.409  1.00  0.00    -0.229 OA 
BRANCH  29  31
ATOM     31  CA  GLU A   1      -8.613  18.947  68.641  1.00  0.00    -0.340 C  
ATOM     32  C   GLU A   1      -9.915  19.601  68.120  1.00  0.00    -0.437 C  
ATOM     33  O   GLU A   1     -10.722  18.755  67.440  1.00  0.00    -0.438 OA 
ATOM     34  OXT GLU A   1     -10.192  20.786  68.254  1.00  0.00    -0.036 OA 
BRANCH  31  35
ATOM     35  CB  GLU A   1      -7.370  19.601  68.009  1.00  0.00    -0.321 C  
BRANCH  35  36
ATOM     36  CG  GLU A   1      -7.398  19.620  66.476  1.00  0.00    -0.262 C  
ATOM     37  CD  GLU A   1      -6.328  18.751  65.862  1.00  0.00    -0.225 C  
ATOM     38  OE2 GLU A   1      -5.496  18.112  66.484  1.00  0.00    -0.135 OA 
ATOM     39  OE1 GLU A   1      -6.395  18.747  64.507  1.00  0.00    -0.462 OA 
ENDBRANCH  35  36
ENDBRANCH  31  35
ENDBRANCH  29  31
ENDBRANCH  23  27
ENDBRANCH  19  21
ENDBRANCH  18  19
ENDBRANCH   3  18
TORSDOF 7
ENDMDL
MODEL      185
REMARK 921   NORMALIZED FREE ENERGY PREDICTED BY IDOCK:   -4.77 KCAL/MOL
REMARK 922        TOTAL FREE ENERGY PREDICTED BY IDOCK:   -7.95 KCAL/MOL
REMARK 923 INTER-LIGAND FREE ENERGY PREDICTED BY IDOCK:   -7.97 KCAL/MOL
REMARK 924 INTRA-LIGAND FREE ENERGY PREDICTED BY IDOCK:    0.02 KCAL/MOL
REMARK 927      BINDING AFFINITY PREDICTED BY RF-SCORE:    0.00 PKD
ROOT
HETATM    1  C   UNK A   0     -10.187   4.585  70.251  1.00  0.00    -0.067 C  
HETATM    2  N   UNK A   0      -9.274   5.085  71.269  1.00  0.00    -0.142 NA 
HETATM    3  C   UNK A   0      -9.390   6.516  71.673  1.00  0.00    -0.146 C  
HETATM    4  O   UNK A   0      -9.145   2.153  71.167  1.00  0.00    -0.077 OA 
HETATM    5  C   UNK A   0      -7.962   7.078  71.890  1.00  0.00    -0.098 C  
HETATM    6  C   UNK A   0      -6.787   2.688  73.581  1.00  0.00    -0.027 C  
HETATM    7  N   UNK A   0      -7.166   6.205  72.770  1.00  0.00    -0.084 NA 
HETATM    8  H   UNK A   0      -6.475   6.608  73.403  1.00  0.00     0.000 HD 
HETATM    9  H2  UNK A   0      -6.121   1.062  74.649  1.00  0.00     0.000 HD 
HETATM   10  C   UNK A   0      -7.360   4.826  72.732  1.00  0.00    -0.085 C  
HETATM   11  H   UNK A   0      -7.769   1.029  72.998  1.00  0.00     0.000 HD 
HETATM   12  C   UNK A   0      -8.337   4.275  71.968  1.00  0.00    -0.106 C  
HETATM   13  H1  UNK A   0      -5.335   2.582  75.062  1.00  0.00     0.000 HD 
HETATM   14  C   UNK A   0      -8.407   2.737  71.956  1.00  0.00    -0.058 C  
HETATM   15  N   UNK A   0      -6.575   4.018  73.501  1.00  0.00    -0.044 NA 
HETATM   16  N   UNK A   0      -6.017   2.067  74.505  1.00  0.00    -0.004 NA 
HETATM   17  N   UNK A   0      -7.649   2.036  72.878  1.00  0.00    -0.036 N  
ENDROOT
BRANCH   3  18
HETATM   18  C   UNK A   0     -10.255   6.649  72.956  1.00  0.00    -0.205 C  
BRANCH  18  19
HETATM   19  N   UNK A   0     -11.639   7.050  72.638  1.00  0.00    -0.470 NA 
HETATM   20  H   UNK A   0     -12.423   6.411  72.771  1.00  0.00     0.000 HD 
BRANCH  19  21
HETATM   21  C   UNK A   0     -11.827   8.350  72.145  1.00  0.00    -0.375 A  
HETATM   22  C   UNK A   0     -10.888  10.234  70.918  1.00  0.00     0.005 A  
HETATM   23  C   UNK A   0     -12.092  10.925  71.052  1.00  0.00    -0.425 A  
HETATM   24  C   UNK A   0     -12.978   9.107  72.385  1.00  0.00    -0.468 A  
HETATM   25  C   UNK A   0     -10.758   8.958  71.474  1.00  0.00    -0.398 A  
HETATM   26  C   UNK A   0     -13.119  10.382  71.831  1.00  0.00    -0.563 A  
BRANCH  23  27
HETATM   27  C   UNK A   0     -12.262  12.238  70.380  1.00  0.00    -0.288 C  
ATOM     28  H   GLU A   1     -11.719  11.389  68.554  1.00  0.00     0.000 HD 
ATOM     29  N   GLU A   1     -11.970  12.259  69.025  1.00  0.00    -0.284 N  
HETATM   30  O   UNK A   0     -12.657  13.217  70.993  1.00  0.00    -0.356 OA 
BRANCH  29  31
ATOM     31  CA  GLU A   1     -12.016  13.516  68.248  1.00  0.00    -0.342 C  
ATOM     32  C   GLU A   1     -11.965  13.203  66.734  1.00  0.00    -0.373 C  
ATOM     33  O   GLU A   1     -11.797  11.891  66.448  1.00  0.00    -0.561 OA 
ATOM     34  OXT GLU A   1     -12.018  14.050  65.852  1.00  0.00    -0.370 OA 
BRANCH  31  35
ATOM     35  CB  GLU A   1     -10.852  14.433  68.667  1.00  0.00    -0.260 C  
BRANCH  35  36
ATOM     36  CG  GLU A   1     -11.241  15.912  68.771  1.00  0.00    -0.359 C  
ATOM     37  CD  GLU A   1     -10.590  16.763  67.709  1.00  0.00    -0.341 C  
ATOM     38  OE2 GLU A   1      -9.812  16.359  66.861  1.00  0.00    -0.246 OA 
ATOM     39  OE1 GLU A   1     -10.980  18.061  67.791  1.00  0.00    -0.317 OA 
ENDBRANCH  35  36
ENDBRANCH  31  35
ENDBRANCH  29  31
ENDBRANCH  23  27
ENDBRANCH  19  21
ENDBRANCH  18  19
ENDBRANCH   3  18
TORSDOF 7
ENDMDL
MODEL      186
REMARK 921   NORMALIZED FREE ENERGY PREDICTED BY IDOCK:   -4.77 KCAL/MOL
REMARK 922        TOTAL FREE ENERGY PREDICTED BY IDOCK:   -7.95 KCAL/MOL
REMARK 923 INTER-LIGAND FREE ENERGY PREDICTED BY IDOCK:   -8.01 KCAL/MOL
REMARK 924 INTRA-LIGAND FREE ENERGY PREDICTED BY IDOCK:    0.06 KCAL/MOL
REMARK 927      BINDING AFFINITY PREDICTED BY RF-SCORE:    0.00 PKD
ROOT
HETATM    1  C   UNK A   0      -5.430   7.936  67.660  1.00  0.00    -0.033 C  
HETATM    2  N   UNK A   0      -6.779   7.825  67.126  1.00  0.00    -0.066 NA 
HETATM    3  C   UNK A   0      -7.791   7.078  67.928  1.00  0.00    -0.114 C  
HETATM    4  O   UNK A   0      -5.263   9.820  65.594  1.00  0.00    -0.040 OA 
HETATM    5  C   UNK A   0      -8.675   6.258  66.956  1.00  0.00    -0.108 C  
HETATM    6  C   UNK A   0      -8.196   9.948  63.845  1.00  0.00    -0.156 C  
HETATM    7  N   UNK A   0      -9.189   7.095  65.857  1.00  0.00    -0.377 NA 
HETATM    8  H   UNK A   0     -10.112   6.912  65.463  1.00  0.00     0.000 HD 
HETATM    9  H2  UNK A   0      -8.446  11.483  62.501  1.00  0.00     0.000 HD 
HETATM   10  C   UNK A   0      -8.409   8.136  65.360  1.00  0.00    -0.155 C  
HETATM   11  H   UNK A   0      -6.597  11.171  63.890  1.00  0.00     0.000 HD 
HETATM   12  C   UNK A   0      -7.220   8.458  65.931  1.00  0.00    -0.072 C  
HETATM   13  H1  UNK A   0      -9.779  10.335  62.558  1.00  0.00     0.000 HD 
HETATM   14  C   UNK A   0      -6.418   9.580  65.249  1.00  0.00    -0.078 C  
HETATM   15  N   UNK A   0      -8.862   8.865  64.300  1.00  0.00    -0.420 NA 
HETATM   16  N   UNK A   0      -8.865  10.639  62.893  1.00  0.00    -0.218 NA 
HETATM   17  N   UNK A   0      -7.040  10.333  64.268  1.00  0.00    -0.273 N  
ENDROOT
BRANCH   3  18
HETATM   18  C   UNK A   0      -8.641   8.061  68.779  1.00  0.00    -0.128 C  
BRANCH  18  19
HETATM   19  N   UNK A   0      -9.971   8.286  68.181  1.00  0.00    -0.184 NA 
HETATM   20  H   UNK A   0     -10.575   7.508  67.916  1.00  0.00     0.000 HD 
BRANCH  19  21
HETATM   21  C   UNK A   0     -10.366   9.619  67.992  1.00  0.00    -0.218 A  
HETATM   22  C   UNK A   0     -11.239  11.661  68.996  1.00  0.00    -0.323 A  
HETATM   23  C   UNK A   0     -11.132  12.313  67.767  1.00  0.00    -0.304 A  
HETATM   24  C   UNK A   0     -10.390  10.247  66.744  1.00  0.00    -0.288 A  
HETATM   25  C   UNK A   0     -10.868  10.317  69.098  1.00  0.00    -0.270 A  
HETATM   26  C   UNK A   0     -10.757  11.591  66.630  1.00  0.00    -0.311 A  
BRANCH  23  27
HETATM   27  C   UNK A   0     -11.435  13.764  67.679  1.00  0.00    -0.323 C  
ATOM     28  H   GLU A   1     -10.402  13.884  65.872  1.00  0.00     0.000 HD 
ATOM     29  N   GLU A   1     -10.906  14.420  66.578  1.00  0.00    -0.305 N  
HETATM   30  O   UNK A   0     -12.126  14.319  68.518  1.00  0.00    -0.329 OA 
BRANCH  29  31
ATOM     31  CA  GLU A   1     -11.059  15.881  66.407  1.00  0.00    -0.015 C  
ATOM     32  C   GLU A   1     -11.109  16.233  64.902  1.00  0.00    -0.290 C  
ATOM     33  O   GLU A   1     -10.912  15.175  64.082  1.00  0.00     0.046 OA 
ATOM     34  OXT GLU A   1     -11.262  17.366  64.463  1.00  0.00    -1.018 OA 
BRANCH  31  35
ATOM     35  CB  GLU A   1      -9.904  16.614  67.113  1.00  0.00    -0.257 C  
BRANCH  35  36
ATOM     36  CG  GLU A   1      -9.584  17.986  66.506  1.00  0.00    -0.318 C  
ATOM     37  CD  GLU A   1      -9.966  19.129  67.413  1.00  0.00    -0.351 C  
ATOM     38  OE2 GLU A   1     -10.500  19.015  68.504  1.00  0.00    -0.316 OA 
ATOM     39  OE1 GLU A   1      -9.636  20.331  66.878  1.00  0.00    -0.397 OA 
ENDBRANCH  35  36
ENDBRANCH  31  35
ENDBRANCH  29  31
ENDBRANCH  23  27
ENDBRANCH  19  21
ENDBRANCH  18  19
ENDBRANCH   3  18
TORSDOF 7
ENDMDL
MODEL      187
REMARK 921   NORMALIZED FREE ENERGY PREDICTED BY IDOCK:   -4.76 KCAL/MOL
REMARK 922        TOTAL FREE ENERGY PREDICTED BY IDOCK:   -7.94 KCAL/MOL
REMARK 923 INTER-LIGAND FREE ENERGY PREDICTED BY IDOCK:   -7.53 KCAL/MOL
REMARK 924 INTRA-LIGAND FREE ENERGY PREDICTED BY IDOCK:   -0.41 KCAL/MOL
REMARK 927      BINDING AFFINITY PREDICTED BY RF-SCORE:    0.00 PKD
ROOT
HETATM    1  C   UNK A   0     -10.612  14.741  69.240  1.00  0.00    -0.240 C  
HETATM    2  N   UNK A   0     -10.105  15.025  67.906  1.00  0.00    -0.226 NA 
HETATM    3  C   UNK A   0      -8.696  15.496  67.778  1.00  0.00    -0.167 C  
HETATM    4  O   UNK A   0     -12.660  13.589  67.716  1.00  0.00     0.094 OA 
HETATM    5  C   UNK A   0      -8.645  16.586  66.677  1.00  0.00    -0.254 C  
HETATM    6  C   UNK A   0     -12.072  14.038  64.381  1.00  0.00    -0.458 C  
HETATM    7  N   UNK A   0      -9.307  16.136  65.441  1.00  0.00    -0.273 NA 
HETATM    8  H   UNK A   0      -8.958  16.441  64.532  1.00  0.00     0.000 HD 
HETATM    9  H2  UNK A   0     -13.246  12.997  63.051  1.00  0.00     0.000 HD 
HETATM   10  C   UNK A   0     -10.413  15.293  65.517  1.00  0.00    -0.374 C  
HETATM   11  H   UNK A   0     -13.354  12.846  65.377  1.00  0.00     0.000 HD 
HETATM   12  C   UNK A   0     -10.838  14.799  66.709  1.00  0.00    -0.316 C  
HETATM   13  H1  UNK A   0     -12.079  14.084  62.305  1.00  0.00     0.000 HD 
HETATM   14  C   UNK A   0     -12.112  13.936  66.673  1.00  0.00    -0.448 C  
HETATM   15  N   UNK A   0     -11.062  14.932  64.373  1.00  0.00    -0.645 NA 
HETATM   16  N   UNK A   0     -12.495  13.682  63.144  1.00  0.00    -1.045 NA 
HETATM   17  N   UNK A   0     -12.599  13.529  65.442  1.00  0.00    -0.536 N  
ENDROOT
BRANCH   3  18
HETATM   18  C   UNK A   0      -7.755  14.307  67.445  1.00  0.00    -0.173 C  
BRANCH  18  19
HETATM   19  N   UNK A   0      -8.480  13.214  66.767  1.00  0.00    -0.426 NA 
HETATM   20  H   UNK A   0      -8.958  13.362  65.879  1.00  0.00     0.000 HD 
BRANCH  19  21
HETATM   21  C   UNK A   0      -8.482  11.963  67.402  1.00  0.00    -0.166 A  
HETATM   22  C   UNK A   0      -9.760  10.285  68.622  1.00  0.00    -0.171 A  
HETATM   23  C   UNK A   0      -8.641   9.451  68.652  1.00  0.00    -0.123 A  
HETATM   24  C   UNK A   0      -7.339  11.175  67.557  1.00  0.00    -0.102 A  
HETATM   25  C   UNK A   0      -9.671  11.538  68.010  1.00  0.00    -0.187 A  
HETATM   26  C   UNK A   0      -7.416   9.919  68.165  1.00  0.00    -0.080 A  
BRANCH  23  27
HETATM   27  C   UNK A   0      -8.762   8.083  69.217  1.00  0.00    -0.137 C  
ATOM     28  H   GLU A   1      -6.714   7.783  68.961  1.00  0.00     0.000 HD 
ATOM     29  N   GLU A   1      -7.588   7.347  69.256  1.00  0.00    -0.099 N  
HETATM   30  O   UNK A   0      -9.828   7.663  69.637  1.00  0.00    -0.177 OA 
BRANCH  29  31
ATOM     31  CA  GLU A   1      -7.577   5.942  69.717  1.00  0.00    -0.081 C  
ATOM     32  C   GLU A   1      -6.225   5.620  70.397  1.00  0.00    -0.027 C  
ATOM     33  O   GLU A   1      -5.328   6.632  70.344  1.00  0.00    -0.018 OA 
ATOM     34  OXT GLU A   1      -5.947   4.541  70.901  1.00  0.00    -0.016 OA 
BRANCH  31  35
ATOM     35  CB  GLU A   1      -7.840   4.999  68.528  1.00  0.00    -0.082 C  
BRANCH  35  36
ATOM     36  CG  GLU A   1      -8.684   3.772  68.892  1.00  0.00    -0.132 C  
ATOM     37  CD  GLU A   1      -8.934   2.865  67.712  1.00  0.00    -0.159 C  
ATOM     38  OE2 GLU A   1      -8.549   3.068  66.573  1.00  0.00    -0.105 OA 
ATOM     39  OE1 GLU A   1      -9.646   1.764  68.063  1.00  0.00    -0.180 OA 
ENDBRANCH  35  36
ENDBRANCH  31  35
ENDBRANCH  29  31
ENDBRANCH  23  27
ENDBRANCH  19  21
ENDBRANCH  18  19
ENDBRANCH   3  18
TORSDOF 7
ENDMDL
MODEL      188
REMARK 921   NORMALIZED FREE ENERGY PREDICTED BY IDOCK:   -4.74 KCAL/MOL
REMARK 922        TOTAL FREE ENERGY PREDICTED BY IDOCK:   -7.92 KCAL/MOL
REMARK 923 INTER-LIGAND FREE ENERGY PREDICTED BY IDOCK:   -6.80 KCAL/MOL
REMARK 924 INTRA-LIGAND FREE ENERGY PREDICTED BY IDOCK:   -1.12 KCAL/MOL
REMARK 927      BINDING AFFINITY PREDICTED BY RF-SCORE:    0.00 PKD
ROOT
HETATM    1  C   UNK A   0     -10.870  17.073  65.129  1.00  0.00    -0.049 C  
HETATM    2  N   UNK A   0     -10.481  15.914  65.918  1.00  0.00    -0.341 NA 
HETATM    3  C   UNK A   0     -11.315  14.682  65.814  1.00  0.00    -0.340 C  
HETATM    4  O   UNK A   0      -8.317  17.899  65.927  1.00  0.00    -0.521 OA 
HETATM    5  C   UNK A   0     -11.427  14.048  67.224  1.00  0.00    -0.348 C  
HETATM    6  C   UNK A   0      -6.879  15.561  67.962  1.00  0.00    -0.136 C  
HETATM    7  N   UNK A   0     -10.104  13.900  67.855  1.00  0.00    -0.236 NA 
HETATM    8  H   UNK A   0      -9.917  13.109  68.472  1.00  0.00     0.000 HD 
HETATM    9  H2  UNK A   0      -4.882  15.772  68.406  1.00  0.00     0.000 HD 
HETATM   10  C   UNK A   0      -9.110  14.843  67.606  1.00  0.00    -0.183 C  
HETATM   11  H   UNK A   0      -6.122  17.156  66.993  1.00  0.00     0.000 HD 
HETATM   12  C   UNK A   0      -9.305  15.850  66.716  1.00  0.00    -0.240 C  
HETATM   13  H1  UNK A   0      -5.669  14.410  69.197  1.00  0.00     0.000 HD 
HETATM   14  C   UNK A   0      -8.160  16.869  66.579  1.00  0.00    -0.291 C  
HETATM   15  N   UNK A   0      -7.909  14.736  68.244  1.00  0.00    -0.118 NA 
HETATM   16  N   UNK A   0      -5.721  15.216  68.573  1.00  0.00    -0.091 NA 
HETATM   17  N   UNK A   0      -6.944  16.579  67.174  1.00  0.00    -0.175 N  
ENDROOT
BRANCH   3  18
HETATM   18  C   UNK A   0     -10.695  13.691  64.793  1.00  0.00    -0.410 C  
BRANCH  18  19
HETATM   19  N   UNK A   0     -11.418  12.405  64.776  1.00  0.00    -0.315 NA 
HETATM   20  H   UNK A   0     -12.417  12.358  64.576  1.00  0.00     0.000 HD 
BRANCH  19  21
HETATM   21  C   UNK A   0     -10.669  11.250  65.049  1.00  0.00    -0.256 A  
HETATM   22  C   UNK A   0      -9.987   9.590  66.696  1.00  0.00    -0.314 A  
HETATM   23  C   UNK A   0      -9.264   8.910  65.716  1.00  0.00    -0.283 A  
HETATM   24  C   UNK A   0      -9.835  10.633  64.112  1.00  0.00    -0.396 A  
HETATM   25  C   UNK A   0     -10.674  10.760  66.361  1.00  0.00    -0.228 A  
HETATM   26  C   UNK A   0      -9.146   9.461  64.435  1.00  0.00    -0.180 A  
BRANCH  23  27
HETATM   27  C   UNK A   0      -8.614   7.617  66.049  1.00  0.00    -0.151 C  
ATOM     28  H   GLU A   1      -9.456   6.741  64.354  1.00  0.00     0.000 HD 
ATOM     29  N   GLU A   1      -8.889   6.569  65.184  1.00  0.00     0.101 N  
HETATM   30  O   UNK A   0      -7.870   7.512  67.011  1.00  0.00    -0.111 OA 
BRANCH  29  31
ATOM     31  CA  GLU A   1      -8.375   5.206  65.441  1.00  0.00    -0.132 C  
ATOM     32  C   GLU A   1      -7.750   4.626  64.150  1.00  0.00    -0.078 C  
ATOM     33  O   GLU A   1      -7.886   5.424  63.066  1.00  0.00    -0.073 OA 
ATOM     34  OXT GLU A   1      -7.219   3.526  64.075  1.00  0.00    -0.052 OA 
BRANCH  31  35
ATOM     35  CB  GLU A   1      -9.512   4.308  65.961  1.00  0.00    -0.177 C  
BRANCH  35  36
ATOM     36  CG  GLU A   1      -9.193   3.624  67.296  1.00  0.00    -0.215 C  
ATOM     37  CD  GLU A   1      -9.747   4.372  68.483  1.00  0.00    -0.113 C  
ATOM     38  OE2 GLU A   1     -10.361   5.425  68.429  1.00  0.00    -0.179 OA 
ATOM     39  OE1 GLU A   1      -9.491   3.729  69.651  1.00  0.00    -0.166 OA 
ENDBRANCH  35  36
ENDBRANCH  31  35
ENDBRANCH  29  31
ENDBRANCH  23  27
ENDBRANCH  19  21
ENDBRANCH  18  19
ENDBRANCH   3  18
TORSDOF 7
ENDMDL
MODEL      189
REMARK 921   NORMALIZED FREE ENERGY PREDICTED BY IDOCK:   -4.74 KCAL/MOL
REMARK 922        TOTAL FREE ENERGY PREDICTED BY IDOCK:   -7.92 KCAL/MOL
REMARK 923 INTER-LIGAND FREE ENERGY PREDICTED BY IDOCK:   -7.03 KCAL/MOL
REMARK 924 INTRA-LIGAND FREE ENERGY PREDICTED BY IDOCK:   -0.89 KCAL/MOL
REMARK 927      BINDING AFFINITY PREDICTED BY RF-SCORE:    0.00 PKD
ROOT
HETATM    1  C   UNK A   0      -9.744   3.871  69.758  1.00  0.00    -0.156 C  
HETATM    2  N   UNK A   0      -9.806   4.857  68.690  1.00  0.00    -0.162 NA 
HETATM    3  C   UNK A   0     -10.066   6.278  69.061  1.00  0.00    -0.172 C  
HETATM    4  O   UNK A   0      -8.713   2.335  67.656  1.00  0.00    -0.093 OA 
HETATM    5  C   UNK A   0     -11.010   6.895  67.997  1.00  0.00    -0.166 C  
HETATM    6  C   UNK A   0      -8.703   4.130  64.749  1.00  0.00    -0.127 C  
HETATM    7  N   UNK A   0     -10.517   6.648  66.631  1.00  0.00    -0.461 NA 
HETATM    8  H   UNK A   0     -10.668   7.342  65.899  1.00  0.00     0.000 HD 
HETATM    9  H2  UNK A   0      -7.686   3.348  63.142  1.00  0.00     0.000 HD 
HETATM   10  C   UNK A   0      -9.843   5.463  66.344  1.00  0.00    -0.176 C  
HETATM   11  H   UNK A   0      -7.813   2.401  65.270  1.00  0.00     0.000 HD 
HETATM   12  C   UNK A   0      -9.547   4.569  67.322  1.00  0.00    -0.185 C  
HETATM   13  H1  UNK A   0      -8.517   4.866  62.816  1.00  0.00     0.000 HD 
HETATM   14  C   UNK A   0      -8.864   3.266  66.869  1.00  0.00    -0.137 C  
HETATM   15  N   UNK A   0      -9.447   5.211  65.063  1.00  0.00    -0.358 NA 
HETATM   16  N   UNK A   0      -8.271   4.119  63.466  1.00  0.00    -0.090 NA 
HETATM   17  N   UNK A   0      -8.392   3.186  65.570  1.00  0.00    -0.098 N  
ENDROOT
BRANCH   3  18
HETATM   18  C   UNK A   0      -8.732   7.065  69.164  1.00  0.00    -0.132 C  
BRANCH  18  19
HETATM   19  N   UNK A   0      -8.838   8.193  70.110  1.00  0.00    -0.144 NA 
HETATM   20  H   UNK A   0      -8.665   8.070  71.107  1.00  0.00     0.000 HD 
BRANCH  19  21
HETATM   21  C   UNK A   0      -9.190   9.441  69.574  1.00  0.00    -0.176 A  
HETATM   22  C   UNK A   0      -8.488  11.399  68.304  1.00  0.00    -0.154 A  
HETATM   23  C   UNK A   0      -9.777  11.924  68.398  1.00  0.00    -0.201 A  
HETATM   24  C   UNK A   0     -10.436  10.042  69.772  1.00  0.00    -0.291 A  
HETATM   25  C   UNK A   0      -8.200  10.169  68.902  1.00  0.00    -0.124 A  
HETATM   26  C   UNK A   0     -10.737  11.270  69.177  1.00  0.00    -0.247 A  
BRANCH  23  27
HETATM   27  C   UNK A   0     -10.109  13.183  67.683  1.00  0.00    -0.221 C  
ATOM     28  H   GLU A   1      -8.289  14.013  68.272  1.00  0.00     0.000 HD 
ATOM     29  N   GLU A   1      -9.165  14.193  67.782  1.00  0.00    -0.186 N  
HETATM   30  O   UNK A   0     -11.139  13.293  67.037  1.00  0.00    -0.272 OA 
BRANCH  29  31
ATOM     31  CA  GLU A   1      -9.402  15.528  67.189  1.00  0.00    -0.216 C  
ATOM     32  C   GLU A   1      -8.090  16.075  66.579  1.00  0.00    -0.269 C  
ATOM     33  O   GLU A   1      -7.012  15.285  66.793  1.00  0.00    -0.080 OA 
ATOM     34  OXT GLU A   1      -7.996  17.145  65.994  1.00  0.00    -0.451 OA 
BRANCH  31  35
ATOM     35  CB  GLU A   1      -9.959  16.484  68.260  1.00  0.00    -0.250 C  
BRANCH  35  36
ATOM     36  CG  GLU A   1     -10.868  17.580  67.692  1.00  0.00    -0.229 C  
ATOM     37  CD  GLU A   1     -10.283  18.962  67.847  1.00  0.00    -0.394 C  
ATOM     38  OE2 GLU A   1      -9.220  19.221  68.386  1.00  0.00    -0.327 OA 
ATOM     39  OE1 GLU A   1     -11.081  19.914  67.301  1.00  0.00    -0.288 OA 
ENDBRANCH  35  36
ENDBRANCH  31  35
ENDBRANCH  29  31
ENDBRANCH  23  27
ENDBRANCH  19  21
ENDBRANCH  18  19
ENDBRANCH   3  18
TORSDOF 7
ENDMDL
MODEL      190
REMARK 921   NORMALIZED FREE ENERGY PREDICTED BY IDOCK:   -4.71 KCAL/MOL
REMARK 922        TOTAL FREE ENERGY PREDICTED BY IDOCK:   -7.88 KCAL/MOL
REMARK 923 INTER-LIGAND FREE ENERGY PREDICTED BY IDOCK:   -7.20 KCAL/MOL
REMARK 924 INTRA-LIGAND FREE ENERGY PREDICTED BY IDOCK:   -0.67 KCAL/MOL
REMARK 927      BINDING AFFINITY PREDICTED BY RF-SCORE:    0.00 PKD
ROOT
HETATM    1  C   UNK A   0      -7.563   9.225  70.619  1.00  0.00    -0.147 C  
HETATM    2  N   UNK A   0      -8.850   8.564  70.463  1.00  0.00    -0.145 NA 
HETATM    3  C   UNK A   0     -10.050   9.415  70.222  1.00  0.00    -0.240 C  
HETATM    4  O   UNK A   0      -6.688   6.580  70.331  1.00  0.00    -0.050 OA 
HETATM    5  C   UNK A   0     -11.240   8.816  71.015  1.00  0.00    -0.273 C  
HETATM    6  C   UNK A   0      -9.351   4.462  70.020  1.00  0.00    -0.157 C  
HETATM    7  N   UNK A   0     -11.389   7.373  70.755  1.00  0.00    -0.275 NA 
HETATM    8  H   UNK A   0     -12.316   6.948  70.745  1.00  0.00     0.000 HD 
HETATM    9  H2  UNK A   0      -8.972   2.520  69.459  1.00  0.00     0.000 HD 
HETATM   10  C   UNK A   0     -10.259   6.593  70.523  1.00  0.00    -0.189 C  
HETATM   11  H   UNK A   0      -7.381   4.213  69.682  1.00  0.00     0.000 HD 
HETATM   12  C   UNK A   0      -9.025   7.153  70.438  1.00  0.00    -0.155 C  
HETATM   13  H1  UNK A   0     -10.665   2.871  69.789  1.00  0.00     0.000 HD 
HETATM   14  C   UNK A   0      -7.847   6.180  70.250  1.00  0.00    -0.102 C  
HETATM   15  N   UNK A   0     -10.397   5.247  70.349  1.00  0.00    -0.275 NA 
HETATM   16  N   UNK A   0      -9.696   3.184  69.734  1.00  0.00    -0.048 NA 
HETATM   17  N   UNK A   0      -8.126   4.857  69.950  1.00  0.00    -0.072 N  
ENDROOT
BRANCH   3  18
HETATM   18  C   UNK A   0     -10.362   9.496  68.703  1.00  0.00    -0.205 C  
BRANCH  18  19
HETATM   19  N   UNK A   0      -9.299  10.211  67.969  1.00  0.00    -0.141 NA 
HETATM   20  H   UNK A   0      -8.620   9.712  67.394  1.00  0.00     0.000 HD 
BRANCH  19  21
HETATM   21  C   UNK A   0      -9.265  11.607  68.100  1.00  0.00    -0.184 A  
HETATM   22  C   UNK A   0      -7.902  13.609  68.374  1.00  0.00    -0.140 A  
HETATM   23  C   UNK A   0      -9.048  14.401  68.310  1.00  0.00    -0.193 A  
HETATM   24  C   UNK A   0     -10.411  12.404  68.171  1.00  0.00    -0.228 A  
HETATM   25  C   UNK A   0      -8.017  12.219  68.281  1.00  0.00    -0.163 A  
HETATM   26  C   UNK A   0     -10.308  13.794  68.261  1.00  0.00    -0.247 A  
BRANCH  23  27
HETATM   27  C   UNK A   0      -8.918  15.880  68.313  1.00  0.00    -0.184 C  
ATOM     28  H   GLU A   1     -10.003  15.993  66.536  1.00  0.00     0.000 HD 
ATOM     29  N   GLU A   1      -9.486  16.533  67.230  1.00  0.00    -0.232 N  
HETATM   30  O   UNK A   0      -8.363  16.466  69.229  1.00  0.00    -0.218 OA 
BRANCH  29  31
ATOM     31  CA  GLU A   1      -9.360  17.997  67.062  1.00  0.00    -0.265 C  
ATOM     32  C   GLU A   1     -10.201  18.464  65.851  1.00  0.00    -0.233 C  
ATOM     33  O   GLU A   1     -10.782  17.454  65.162  1.00  0.00    -0.684 OA 
ATOM     34  OXT GLU A   1     -10.309  19.629  65.494  1.00  0.00    -0.423 OA 
BRANCH  31  35
ATOM     35  CB  GLU A   1      -7.878  18.378  66.891  1.00  0.00    -0.248 C  
BRANCH  35  36
ATOM     36  CG  GLU A   1      -7.511  19.724  67.528  1.00  0.00    -0.306 C  
ATOM     37  CD  GLU A   1      -6.281  19.642  68.396  1.00  0.00    -0.239 C  
ATOM     38  OE2 GLU A   1      -5.638  18.629  68.615  1.00  0.00    -0.189 OA 
ATOM     39  OE1 GLU A   1      -5.948  20.851  68.916  1.00  0.00    -0.351 OA 
ENDBRANCH  35  36
ENDBRANCH  31  35
ENDBRANCH  29  31
ENDBRANCH  23  27
ENDBRANCH  19  21
ENDBRANCH  18  19
ENDBRANCH   3  18
TORSDOF 7
ENDMDL
MODEL      191
REMARK 921   NORMALIZED FREE ENERGY PREDICTED BY IDOCK:   -4.71 KCAL/MOL
REMARK 922        TOTAL FREE ENERGY PREDICTED BY IDOCK:   -7.87 KCAL/MOL
REMARK 923 INTER-LIGAND FREE ENERGY PREDICTED BY IDOCK:   -6.82 KCAL/MOL
REMARK 924 INTRA-LIGAND FREE ENERGY PREDICTED BY IDOCK:   -1.05 KCAL/MOL
REMARK 927      BINDING AFFINITY PREDICTED BY RF-SCORE:    0.00 PKD
ROOT
HETATM    1  C   UNK A   0     -11.229  16.284  69.158  1.00  0.00    -0.309 C  
HETATM    2  N   UNK A   0     -10.714  16.518  67.817  1.00  0.00    -0.337 NA 
HETATM    3  C   UNK A   0      -9.599  17.495  67.654  1.00  0.00    -0.266 C  
HETATM    4  O   UNK A   0     -12.456  14.154  67.819  1.00  0.00    -0.130 OA 
HETATM    5  C   UNK A   0      -9.846  18.304  66.356  1.00  0.00    -0.357 C  
HETATM    6  C   UNK A   0     -11.689  14.226  64.490  1.00  0.00    -0.418 C  
HETATM    7  N   UNK A   0     -10.122  17.418  65.212  1.00  0.00    -0.257 NA 
HETATM    8  H   UNK A   0      -9.811  17.679  64.276  1.00  0.00     0.000 HD 
HETATM    9  H2  UNK A   0     -12.188  12.586  63.355  1.00  0.00     0.000 HD 
HETATM   10  C   UNK A   0     -10.808  16.223  65.413  1.00  0.00    -0.273 C  
HETATM   11  H   UNK A   0     -12.511  12.804  65.655  1.00  0.00     0.000 HD 
HETATM   12  C   UNK A   0     -11.147  15.811  66.662  1.00  0.00    -0.099 C  
HETATM   13  H1  UNK A   0     -11.460  13.910  62.451  1.00  0.00     0.000 HD 
HETATM   14  C   UNK A   0     -11.965  14.510  66.750  1.00  0.00    -0.342 C  
HETATM   15  N   UNK A   0     -11.118  15.440  64.342  1.00  0.00    -0.700 NA 
HETATM   16  N   UNK A   0     -11.784  13.523  63.337  1.00  0.00    -0.681 NA 
HETATM   17  N   UNK A   0     -12.099  13.737  65.610  1.00  0.00    -0.391 N  
ENDROOT
BRANCH   3  18
HETATM   18  C   UNK A   0      -8.234  16.756  67.614  1.00  0.00    -0.181 C  
BRANCH  18  19
HETATM   19  N   UNK A   0      -7.905  16.151  68.920  1.00  0.00    -0.201 NA 
HETATM   20  H   UNK A   0      -7.868  16.711  69.772  1.00  0.00     0.000 HD 
BRANCH  19  21
HETATM   21  C   UNK A   0      -7.644  14.773  68.934  1.00  0.00    -0.144 A  
HETATM   22  C   UNK A   0      -8.265  12.559  68.127  1.00  0.00    -0.170 A  
HETATM   23  C   UNK A   0      -7.194  12.001  68.826  1.00  0.00    -0.108 A  
HETATM   24  C   UNK A   0      -6.660  14.183  69.732  1.00  0.00    -0.104 A  
HETATM   25  C   UNK A   0      -8.491  13.938  68.195  1.00  0.00    -0.171 A  
HETATM   26  C   UNK A   0      -6.423  12.807  69.670  1.00  0.00    -0.046 A  
BRANCH  23  27
HETATM   27  C   UNK A   0      -6.897  10.554  68.678  1.00  0.00    -0.054 C  
ATOM     28  H   GLU A   1      -7.808  10.545  66.802  1.00  0.00     0.000 HD 
ATOM     29  N   GLU A   1      -7.357   9.966  67.510  1.00  0.00    -0.090 N  
HETATM   30  O   UNK A   0      -6.269   9.946  69.529  1.00  0.00    -0.043 OA 
BRANCH  29  31
ATOM     31  CA  GLU A   1      -7.204   8.514  67.268  1.00  0.00    -0.084 C  
ATOM     32  C   GLU A   1      -5.898   8.244  66.486  1.00  0.00    -0.044 C  
ATOM     33  O   GLU A   1      -5.237   9.364  66.114  1.00  0.00    -0.035 OA 
ATOM     34  OXT GLU A   1      -5.499   7.130  66.174  1.00  0.00    -0.022 OA 
BRANCH  31  35
ATOM     35  CB  GLU A   1      -8.431   7.980  66.507  1.00  0.00    -0.137 C  
BRANCH  35  36
ATOM     36  CG  GLU A   1      -9.210   6.904  67.274  1.00  0.00    -0.137 C  
ATOM     37  CD  GLU A   1      -9.286   5.595  66.529  1.00  0.00    -0.144 C  
ATOM     38  OE2 GLU A   1      -8.816   5.385  65.423  1.00  0.00    -0.153 OA 
ATOM     39  OE1 GLU A   1      -9.942   4.644  67.242  1.00  0.00    -0.188 OA 
ENDBRANCH  35  36
ENDBRANCH  31  35
ENDBRANCH  29  31
ENDBRANCH  23  27
ENDBRANCH  19  21
ENDBRANCH  18  19
ENDBRANCH   3  18
TORSDOF 7
ENDMDL
MODEL      192
REMARK 921   NORMALIZED FREE ENERGY PREDICTED BY IDOCK:   -4.62 KCAL/MOL
REMARK 922        TOTAL FREE ENERGY PREDICTED BY IDOCK:   -7.74 KCAL/MOL
REMARK 923 INTER-LIGAND FREE ENERGY PREDICTED BY IDOCK:   -7.20 KCAL/MOL
REMARK 924 INTRA-LIGAND FREE ENERGY PREDICTED BY IDOCK:   -0.54 KCAL/MOL
REMARK 927      BINDING AFFINITY PREDICTED BY RF-SCORE:    0.00 PKD
ROOT
HETATM    1  C   UNK A   0      -7.215  18.118  69.681  1.00  0.00     0.305 C  
HETATM    2  N   UNK A   0      -7.183  18.294  68.236  1.00  0.00    -0.250 NA 
HETATM    3  C   UNK A   0      -6.054  17.680  67.480  1.00  0.00    -0.153 C  
HETATM    4  O   UNK A   0      -9.801  19.117  69.282  1.00  0.00    -0.343 OA 
HETATM    5  C   UNK A   0      -5.625  18.662  66.361  1.00  0.00    -0.151 C  
HETATM    6  C   UNK A   0     -10.312  19.848  65.984  1.00  0.00    -0.486 C  
HETATM    7  N   UNK A   0      -6.781  19.117  65.570  1.00  0.00    -0.317 NA 
HETATM    8  H   UNK A   0      -6.676  19.310  64.574  1.00  0.00     0.000 HD 
HETATM    9  H2  UNK A   0     -12.231  20.274  65.382  1.00  0.00     0.000 HD 
HETATM   10  C   UNK A   0      -8.019  19.282  66.187  1.00  0.00    -0.294 C  
HETATM   11  H   UNK A   0     -11.579  19.668  67.538  1.00  0.00     0.000 HD 
HETATM   12  C   UNK A   0      -8.205  18.941  67.488  1.00  0.00    -0.268 C  
HETATM   13  H1  UNK A   0     -11.018  20.400  64.111  1.00  0.00     0.000 HD 
HETATM   14  C   UNK A   0      -9.596  19.236  68.077  1.00  0.00    -0.340 C  
HETATM   15  N   UNK A   0      -9.069  19.766  65.465  1.00  0.00    -0.237 NA 
HETATM   16  N   UNK A   0     -11.258  20.203  65.083  1.00  0.00     0.051 NA 
HETATM   17  N   UNK A   0     -10.614  19.599  67.212  1.00  0.00    -0.471 N  
ENDROOT
BRANCH   3  18
HETATM   18  C   UNK A   0      -6.477  16.304  66.898  1.00  0.00    -0.040 C  
BRANCH  18  19
HETATM   19  N   UNK A   0      -7.914  16.275  66.562  1.00  0.00    -0.288 NA 
HETATM   20  H   UNK A   0      -8.363  17.051  66.075  1.00  0.00     0.000 HD 
BRANCH  19  21
HETATM   21  C   UNK A   0      -8.634  15.134  66.943  1.00  0.00    -0.257 A  
HETATM   22  C   UNK A   0     -10.815  14.084  67.227  1.00  0.00    -0.288 A  
HETATM   23  C   UNK A   0     -10.195  12.897  67.620  1.00  0.00    -0.220 A  
HETATM   24  C   UNK A   0      -8.036  13.983  67.465  1.00  0.00    -0.199 A  
HETATM   25  C   UNK A   0     -10.033  15.196  66.903  1.00  0.00    -0.243 A  
HETATM   26  C   UNK A   0      -8.807  12.864  67.789  1.00  0.00    -0.188 A  
BRANCH  23  27
HETATM   27  C   UNK A   0     -11.020  11.688  67.872  1.00  0.00    -0.225 C  
ATOM     28  H   GLU A   1      -9.307  10.607  68.368  1.00  0.00     0.000 HD 
ATOM     29  N   GLU A   1     -10.317  10.550  68.235  1.00  0.00    -0.160 N  
HETATM   30  O   UNK A   0     -12.237  11.721  67.782  1.00  0.00    -0.536 OA 
BRANCH  29  31
ATOM     31  CA  GLU A   1     -11.002   9.254  68.435  1.00  0.00     0.013 C  
ATOM     32  C   GLU A   1     -10.654   8.683  69.830  1.00  0.00    -0.224 C  
ATOM     33  O   GLU A   1      -9.748   9.418  70.515  1.00  0.00    -0.236 OA 
ATOM     34  OXT GLU A   1     -11.104   7.637  70.279  1.00  0.00    -0.260 OA 
BRANCH  31  35
ATOM     35  CB  GLU A   1     -10.604   8.274  67.317  1.00  0.00    -0.335 C  
BRANCH  35  36
ATOM     36  CG  GLU A   1      -9.104   7.957  67.282  1.00  0.00    -0.152 C  
ATOM     37  CD  GLU A   1      -8.423   8.488  66.045  1.00  0.00    -0.140 C  
ATOM     38  OE2 GLU A   1      -8.978   9.084  65.137  1.00  0.00    -0.200 OA 
ATOM     39  OE1 GLU A   1      -7.090   8.235  66.053  1.00  0.00    -0.067 OA 
ENDBRANCH  35  36
ENDBRANCH  31  35
ENDBRANCH  29  31
ENDBRANCH  23  27
ENDBRANCH  19  21
ENDBRANCH  18  19
ENDBRANCH   3  18
TORSDOF 7
ENDMDL
MODEL      193
REMARK 921   NORMALIZED FREE ENERGY PREDICTED BY IDOCK:   -4.60 KCAL/MOL
REMARK 922        TOTAL FREE ENERGY PREDICTED BY IDOCK:   -7.71 KCAL/MOL
REMARK 923 INTER-LIGAND FREE ENERGY PREDICTED BY IDOCK:   -6.57 KCAL/MOL
REMARK 924 INTRA-LIGAND FREE ENERGY PREDICTED BY IDOCK:   -1.14 KCAL/MOL
REMARK 927      BINDING AFFINITY PREDICTED BY RF-SCORE:    0.00 PKD
ROOT
HETATM    1  C   UNK A   0      -7.056  11.461  67.974  1.00  0.00    -0.074 C  
HETATM    2  N   UNK A   0      -7.806  10.227  68.156  1.00  0.00    -0.102 NA 
HETATM    3  C   UNK A   0      -9.078  10.289  68.932  1.00  0.00    -0.168 C  
HETATM    4  O   UNK A   0      -5.721   9.835  66.126  1.00  0.00    -0.054 OA 
HETATM    5  C   UNK A   0      -9.175   9.015  69.811  1.00  0.00    -0.167 C  
HETATM    6  C   UNK A   0      -7.003   6.669  66.165  1.00  0.00    -0.062 C  
HETATM    7  N   UNK A   0      -8.941   7.795  69.020  1.00  0.00    -0.145 NA 
HETATM    8  H   UNK A   0      -9.433   6.932  69.252  1.00  0.00     0.000 HD 
HETATM    9  H2  UNK A   0      -6.427   5.381  64.669  1.00  0.00     0.000 HD 
HETATM   10  C   UNK A   0      -8.044   7.824  67.954  1.00  0.00    -0.126 C  
HETATM   11  H   UNK A   0      -5.786   7.616  64.870  1.00  0.00     0.000 HD 
HETATM   12  C   UNK A   0      -7.450   8.983  67.568  1.00  0.00    -0.081 C  
HETATM   13  H1  UNK A   0      -7.496   4.672  65.875  1.00  0.00     0.000 HD 
HETATM   14  C   UNK A   0      -6.426   8.874  66.425  1.00  0.00    -0.066 C  
HETATM   15  N   UNK A   0      -7.782   6.676  67.267  1.00  0.00    -0.103 NA 
HETATM   16  N   UNK A   0      -6.977   5.477  65.523  1.00  0.00    -0.063 NA 
HETATM   17  N   UNK A   0      -6.348   7.685  65.720  1.00  0.00    -0.042 N  
ENDROOT
BRANCH   3  18
HETATM   18  C   UNK A   0     -10.293  10.412  67.973  1.00  0.00    -0.179 C  
BRANCH  18  19
HETATM   19  N   UNK A   0     -11.132  11.579  68.308  1.00  0.00    -0.220 NA 
HETATM   20  H   UNK A   0     -11.916  11.503  68.957  1.00  0.00     0.000 HD 
BRANCH  19  21
HETATM   21  C   UNK A   0     -10.804  12.796  67.694  1.00  0.00    -0.228 A  
HETATM   22  C   UNK A   0      -9.869  15.033  67.943  1.00  0.00    -0.217 A  
HETATM   23  C   UNK A   0     -10.041  15.260  66.577  1.00  0.00    -0.280 A  
HETATM   24  C   UNK A   0     -11.091  13.088  66.357  1.00  0.00    -0.313 A  
HETATM   25  C   UNK A   0     -10.262  13.810  68.495  1.00  0.00    -0.235 A  
HETATM   26  C   UNK A   0     -10.700  14.306  65.795  1.00  0.00    -0.308 A  
BRANCH  23  27
HETATM   27  C   UNK A   0      -9.537  16.520  65.975  1.00  0.00    -0.290 C  
ATOM     28  H   GLU A   1      -7.684  16.231  66.886  1.00  0.00     0.000 HD 
ATOM     29  N   GLU A   1      -8.238  16.865  66.310  1.00  0.00    -0.306 N  
HETATM   30  O   UNK A   0     -10.230  17.181  65.218  1.00  0.00    -0.591 OA 
BRANCH  29  31
ATOM     31  CA  GLU A   1      -7.636  18.136  65.848  1.00  0.00    -0.131 C  
ATOM     32  C   GLU A   1      -6.095  18.055  65.944  1.00  0.00    -0.237 C  
ATOM     33  O   GLU A   1      -5.637  16.911  66.504  1.00  0.00    -0.314 OA 
ATOM     34  OXT GLU A   1      -5.335  18.951  65.600  1.00  0.00    -0.142 OA 
BRANCH  31  35
ATOM     35  CB  GLU A   1      -8.186  19.308  66.682  1.00  0.00    -0.305 C  
BRANCH  35  36
ATOM     36  CG  GLU A   1      -8.571  18.917  68.114  1.00  0.00    -0.349 C  
ATOM     37  CD  GLU A   1     -10.025  19.174  68.419  1.00  0.00    -0.418 C  
ATOM     38  OE2 GLU A   1     -10.832  19.665  67.646  1.00  0.00    -0.429 OA 
ATOM     39  OE1 GLU A   1     -10.356  18.783  69.676  1.00  0.00     0.170 OA 
ENDBRANCH  35  36
ENDBRANCH  31  35
ENDBRANCH  29  31
ENDBRANCH  23  27
ENDBRANCH  19  21
ENDBRANCH  18  19
ENDBRANCH   3  18
TORSDOF 7
ENDMDL
MODEL      194
REMARK 921   NORMALIZED FREE ENERGY PREDICTED BY IDOCK:   -4.60 KCAL/MOL
REMARK 922        TOTAL FREE ENERGY PREDICTED BY IDOCK:   -7.71 KCAL/MOL
REMARK 923 INTER-LIGAND FREE ENERGY PREDICTED BY IDOCK:   -6.88 KCAL/MOL
REMARK 924 INTRA-LIGAND FREE ENERGY PREDICTED BY IDOCK:   -0.82 KCAL/MOL
REMARK 927      BINDING AFFINITY PREDICTED BY RF-SCORE:    0.00 PKD
ROOT
HETATM    1  C   UNK A   0     -12.042   7.265  71.056  1.00  0.00    -0.324 C  
HETATM    2  N   UNK A   0     -11.108   6.447  70.298  1.00  0.00    -0.322 NA 
HETATM    3  C   UNK A   0     -10.599   6.982  69.002  1.00  0.00    -0.217 C  
HETATM    4  O   UNK A   0     -11.418   5.353  73.005  1.00  0.00    -0.308 OA 
HETATM    5  C   UNK A   0     -10.516   5.811  67.990  1.00  0.00    -0.225 C  
HETATM    6  C   UNK A   0      -9.269   3.014  71.749  1.00  0.00    -0.113 C  
HETATM    7  N   UNK A   0      -9.795   4.658  68.557  1.00  0.00    -0.140 NA 
HETATM    8  H   UNK A   0      -9.223   4.066  67.956  1.00  0.00     0.000 HD 
HETATM    9  H2  UNK A   0      -8.397   1.703  73.072  1.00  0.00     0.000 HD 
HETATM   10  C   UNK A   0      -9.901   4.380  69.918  1.00  0.00    -0.220 C  
HETATM   11  H   UNK A   0      -9.841   3.449  73.630  1.00  0.00     0.000 HD 
HETATM   12  C   UNK A   0     -10.579   5.208  70.753  1.00  0.00    -0.135 C  
HETATM   13  H1  UNK A   0      -7.979   1.427  71.384  1.00  0.00     0.000 HD 
HETATM   14  C   UNK A   0     -10.685   4.756  72.221  1.00  0.00    -0.115 C  
HETATM   15  N   UNK A   0      -9.285   3.274  70.425  1.00  0.00    -0.133 NA 
HETATM   16  N   UNK A   0      -8.484   1.964  72.089  1.00  0.00    -0.053 NA 
HETATM   17  N   UNK A   0      -9.907   3.691  72.641  1.00  0.00    -0.144 N  
ENDROOT
BRANCH   3  18
HETATM   18  C   UNK A   0      -9.218   7.662  69.201  1.00  0.00    -0.141 C  
BRANCH  18  19
HETATM   19  N   UNK A   0      -9.321   8.863  70.054  1.00  0.00    -0.166 NA 
HETATM   20  H   UNK A   0      -9.488   8.791  71.057  1.00  0.00     0.000 HD 
BRANCH  19  21
HETATM   21  C   UNK A   0      -9.182  10.107  69.420  1.00  0.00    -0.214 A  
HETATM   22  C   UNK A   0     -10.252  11.898  68.161  1.00  0.00    -0.203 A  
HETATM   23  C   UNK A   0      -9.057  12.619  68.167  1.00  0.00    -0.204 A  
HETATM   24  C   UNK A   0      -7.963  10.780  69.300  1.00  0.00    -0.110 A  
HETATM   25  C   UNK A   0     -10.304  10.644  68.776  1.00  0.00    -0.210 A  
HETATM   26  C   UNK A   0      -7.899  12.036  68.692  1.00  0.00    -0.091 A  
BRANCH  23  27
HETATM   27  C   UNK A   0      -9.026  13.991  67.599  1.00  0.00    -0.194 C  
ATOM     28  H   GLU A   1      -9.122  14.802  69.518  1.00  0.00     0.000 HD 
ATOM     29  N   GLU A   1      -9.107  15.022  68.522  1.00  0.00    -0.181 N  
HETATM   30  O   UNK A   0      -8.912  14.177  66.398  1.00  0.00    -0.174 OA 
BRANCH  29  31
ATOM     31  CA  GLU A   1      -9.170  16.436  68.092  1.00  0.00    -0.201 C  
ATOM     32  C   GLU A   1      -7.879  17.175  68.515  1.00  0.00    -0.257 C  
ATOM     33  O   GLU A   1      -7.031  16.422  69.253  1.00  0.00    -0.208 OA 
ATOM     34  OXT GLU A   1      -7.643  18.349  68.264  1.00  0.00    -0.267 OA 
BRANCH  31  35
ATOM     35  CB  GLU A   1     -10.419  17.109  68.689  1.00  0.00    -0.366 C  
BRANCH  35  36
ATOM     36  CG  GLU A   1     -11.609  16.156  68.860  1.00  0.00    -0.298 C  
ATOM     37  CD  GLU A   1     -11.980  15.939  70.306  1.00  0.00    -0.305 C  
ATOM     38  OE2 GLU A   1     -11.403  16.428  71.263  1.00  0.00    -0.347 OA 
ATOM     39  OE1 GLU A   1     -13.061  15.128  70.435  1.00  0.00    -0.297 OA 
ENDBRANCH  35  36
ENDBRANCH  31  35
ENDBRANCH  29  31
ENDBRANCH  23  27
ENDBRANCH  19  21
ENDBRANCH  18  19
ENDBRANCH   3  18
TORSDOF 7
ENDMDL
MODEL      195
REMARK 921   NORMALIZED FREE ENERGY PREDICTED BY IDOCK:   -4.57 KCAL/MOL
REMARK 922        TOTAL FREE ENERGY PREDICTED BY IDOCK:   -7.68 KCAL/MOL
REMARK 923 INTER-LIGAND FREE ENERGY PREDICTED BY IDOCK:   -6.67 KCAL/MOL
REMARK 924 INTRA-LIGAND FREE ENERGY PREDICTED BY IDOCK:   -1.01 KCAL/MOL
REMARK 927      BINDING AFFINITY PREDICTED BY RF-SCORE:    0.00 PKD
ROOT
HETATM    1  C   UNK A   0     -11.314   6.503  68.088  1.00  0.00     0.002 C  
HETATM    2  N   UNK A   0     -10.560   5.764  69.091  1.00  0.00    -0.279 NA 
HETATM    3  C   UNK A   0      -9.499   4.828  68.621  1.00  0.00    -0.150 C  
HETATM    4  O   UNK A   0     -12.114   7.896  70.382  1.00  0.00     0.014 OA 
HETATM    5  C   UNK A   0      -9.535   3.562  69.516  1.00  0.00    -0.165 C  
HETATM    6  C   UNK A   0     -10.709   6.519  73.175  1.00  0.00    -0.269 C  
HETATM    7  N   UNK A   0      -9.522   3.913  70.947  1.00  0.00    -0.153 NA 
HETATM    8  H   UNK A   0      -9.050   3.307  71.618  1.00  0.00     0.000 HD 
HETATM    9  H2  UNK A   0     -10.868   7.560  74.942  1.00  0.00     0.000 HD 
HETATM   10  C   UNK A   0     -10.158   5.074  71.379  1.00  0.00    -0.199 C  
HETATM   11  H   UNK A   0     -11.654   8.270  72.863  1.00  0.00     0.000 HD 
HETATM   12  C   UNK A   0     -10.710   5.943  70.494  1.00  0.00    -0.294 C  
HETATM   13  H1  UNK A   0     -10.061   6.001  75.079  1.00  0.00     0.000 HD 
HETATM   14  C   UNK A   0     -11.445   7.154  71.097  1.00  0.00    -0.290 C  
HETATM   15  N   UNK A   0     -10.199   5.359  72.712  1.00  0.00    -0.180 NA 
HETATM   16  N   UNK A   0     -10.529   6.702  74.505  1.00  0.00    -0.423 NA 
HETATM   17  N   UNK A   0     -11.301   7.405  72.450  1.00  0.00    -0.281 N  
ENDROOT
BRANCH   3  18
HETATM   18  C   UNK A   0      -8.108   5.517  68.666  1.00  0.00    -0.102 C  
BRANCH  18  19
HETATM   19  N   UNK A   0      -7.620   5.843  67.311  1.00  0.00    -0.095 NA 
HETATM   20  H   UNK A   0      -6.979   5.225  66.813  1.00  0.00     0.000 HD 
BRANCH  19  21
HETATM   21  C   UNK A   0      -8.077   7.040  66.742  1.00  0.00    -0.109 A  
HETATM   22  C   UNK A   0      -8.828   9.330  67.107  1.00  0.00    -0.137 A  
HETATM   23  C   UNK A   0      -8.943   9.514  65.729  1.00  0.00    -0.219 A  
HETATM   24  C   UNK A   0      -8.326   7.199  65.375  1.00  0.00    -0.122 A  
HETATM   25  C   UNK A   0      -8.408   8.093  67.605  1.00  0.00    -0.127 A  
HETATM   26  C   UNK A   0      -8.743   8.432  64.866  1.00  0.00    -0.053 A  
BRANCH  23  27
HETATM   27  C   UNK A   0      -9.297  10.855  65.196  1.00  0.00    -0.218 C  
ATOM     28  H   GLU A   1      -9.336  11.628  67.132  1.00  0.00     0.000 HD 
ATOM     29  N   GLU A   1      -9.495  11.843  66.147  1.00  0.00    -0.230 N  
HETATM   30  O   UNK A   0      -9.379  11.058  63.995  1.00  0.00    -0.215 OA 
BRANCH  29  31
ATOM     31  CA  GLU A   1      -9.932  13.203  65.764  1.00  0.00    -0.252 C  
ATOM     32  C   GLU A   1      -9.073  14.260  66.497  1.00  0.00    -0.185 C  
ATOM     33  O   GLU A   1      -8.193  13.737  67.381  1.00  0.00    -0.171 OA 
ATOM     34  OXT GLU A   1      -9.192  15.469  66.347  1.00  0.00    -0.254 OA 
BRANCH  31  35
ATOM     35  CB  GLU A   1     -11.428  13.381  66.083  1.00  0.00    -0.354 C  
BRANCH  35  36
ATOM     36  CG  GLU A   1     -12.023  12.230  66.904  1.00  0.00    -0.214 C  
ATOM     37  CD  GLU A   1     -11.758  12.370  68.383  1.00  0.00    -0.336 C  
ATOM     38  OE2 GLU A   1     -11.120  13.271  68.903  1.00  0.00    -0.250 OA 
ATOM     39  OE1 GLU A   1     -12.328  11.366  69.096  1.00  0.00    -0.356 OA 
ENDBRANCH  35  36
ENDBRANCH  31  35
ENDBRANCH  29  31
ENDBRANCH  23  27
ENDBRANCH  19  21
ENDBRANCH  18  19
ENDBRANCH   3  18
TORSDOF 7
ENDMDL
MODEL      196
REMARK 921   NORMALIZED FREE ENERGY PREDICTED BY IDOCK:   -4.56 KCAL/MOL
REMARK 922        TOTAL FREE ENERGY PREDICTED BY IDOCK:   -7.66 KCAL/MOL
REMARK 923 INTER-LIGAND FREE ENERGY PREDICTED BY IDOCK:   -6.90 KCAL/MOL
REMARK 924 INTRA-LIGAND FREE ENERGY PREDICTED BY IDOCK:   -0.76 KCAL/MOL
REMARK 927      BINDING AFFINITY PREDICTED BY RF-SCORE:    0.00 PKD
ROOT
HETATM    1  C   UNK A   0     -12.520  14.634  70.022  1.00  0.00    -0.284 C  
HETATM    2  N   UNK A   0     -12.219  13.290  69.553  1.00  0.00    -0.233 NA 
HETATM    3  C   UNK A   0     -11.412  13.147  68.307  1.00  0.00    -0.314 C  
HETATM    4  O   UNK A   0     -13.291  13.174  72.284  1.00  0.00    -0.507 OA 
HETATM    5  C   UNK A   0     -11.985  11.962  67.488  1.00  0.00    -0.031 C  
HETATM    6  C   UNK A   0     -12.903   9.823  71.742  1.00  0.00    -0.434 C  
HETATM    7  N   UNK A   0     -12.138  10.755  68.319  1.00  0.00    -0.807 NA 
HETATM    8  H   UNK A   0     -12.000   9.831  67.910  1.00  0.00     0.000 HD 
HETATM    9  H2  UNK A   0     -13.077   8.563  73.357  1.00  0.00     0.000 HD 
HETATM   10  C   UNK A   0     -12.474  10.882  69.665  1.00  0.00    -0.129 C  
HETATM   11  H   UNK A   0     -13.215  10.891  73.420  1.00  0.00     0.000 HD 
HETATM   12  C   UNK A   0     -12.570  12.102  70.253  1.00  0.00     0.034 C  
HETATM   13  H1  UNK A   0     -12.805   7.750  71.819  1.00  0.00     0.000 HD 
HETATM   14  C   UNK A   0     -13.016  12.115  71.725  1.00  0.00    -0.332 C  
HETATM   15  N   UNK A   0     -12.678   9.760  70.413  1.00  0.00    -0.520 NA 
HETATM   16  N   UNK A   0     -12.929   8.613  72.349  1.00  0.00    -0.520 NA 
HETATM   17  N   UNK A   0     -13.061  10.914  72.411  1.00  0.00    -0.362 N  
ENDROOT
BRANCH   3  18
HETATM   18  C   UNK A   0      -9.914  12.927  68.653  1.00  0.00    -0.092 C  
BRANCH  18  19
HETATM   19  N   UNK A   0      -9.062  13.001  67.450  1.00  0.00    -0.192 NA 
HETATM   20  H   UNK A   0      -8.908  13.882  66.960  1.00  0.00     0.000 HD 
BRANCH  19  21
HETATM   21  C   UNK A   0      -8.475  11.805  67.012  1.00  0.00    -0.175 A  
HETATM   22  C   UNK A   0      -8.737   9.729  65.762  1.00  0.00    -0.160 A  
HETATM   23  C   UNK A   0      -7.404   9.404  66.018  1.00  0.00    -0.092 A  
HETATM   24  C   UNK A   0      -7.185  11.402  67.370  1.00  0.00    -0.115 A  
HETATM   25  C   UNK A   0      -9.267  10.919  66.270  1.00  0.00    -0.197 A  
HETATM   26  C   UNK A   0      -6.644  10.216  66.866  1.00  0.00    -0.075 A  
BRANCH  23  27
HETATM   27  C   UNK A   0      -6.815   8.189  65.400  1.00  0.00    -0.062 C  
ATOM     28  H   GLU A   1      -8.690   7.277  65.374  1.00  0.00     0.000 HD 
ATOM     29  N   GLU A   1      -7.699   7.146  65.172  1.00  0.00    -0.108 N  
HETATM   30  O   UNK A   0      -5.633   8.141  65.100  1.00  0.00    -0.042 OA 
BRANCH  29  31
ATOM     31  CA  GLU A   1      -7.233   5.847  64.639  1.00  0.00    -0.063 C  
ATOM     32  C   GLU A   1      -7.403   5.816  63.101  1.00  0.00    -0.060 C  
ATOM     33  O   GLU A   1      -8.011   6.912  62.593  1.00  0.00    -0.112 OA 
ATOM     34  OXT GLU A   1      -7.072   4.877  62.390  1.00  0.00    -0.030 OA 
BRANCH  31  35
ATOM     35  CB  GLU A   1      -8.010   4.699  65.308  1.00  0.00    -0.095 C  
BRANCH  35  36
ATOM     36  CG  GLU A   1      -8.587   5.065  66.681  1.00  0.00    -0.109 C  
ATOM     37  CD  GLU A   1     -10.095   5.089  66.694  1.00  0.00    -0.245 C  
ATOM     38  OE2 GLU A   1     -10.811   4.875  65.730  1.00  0.00    -0.262 OA 
ATOM     39  OE1 GLU A   1     -10.587   5.373  67.926  1.00  0.00    -0.176 OA 
ENDBRANCH  35  36
ENDBRANCH  31  35
ENDBRANCH  29  31
ENDBRANCH  23  27
ENDBRANCH  19  21
ENDBRANCH  18  19
ENDBRANCH   3  18
TORSDOF 7
ENDMDL
MODEL      197
REMARK 921   NORMALIZED FREE ENERGY PREDICTED BY IDOCK:   -4.53 KCAL/MOL
REMARK 922        TOTAL FREE ENERGY PREDICTED BY IDOCK:   -7.62 KCAL/MOL
REMARK 923 INTER-LIGAND FREE ENERGY PREDICTED BY IDOCK:   -6.62 KCAL/MOL
REMARK 924 INTRA-LIGAND FREE ENERGY PREDICTED BY IDOCK:   -1.01 KCAL/MOL
REMARK 927      BINDING AFFINITY PREDICTED BY RF-SCORE:    0.00 PKD
ROOT
HETATM    1  C   UNK A   0      -5.703   6.369  67.932  1.00  0.00    -0.012 C  
HETATM    2  N   UNK A   0      -7.048   6.584  67.420  1.00  0.00    -0.078 NA 
HETATM    3  C   UNK A   0      -8.179   5.899  68.110  1.00  0.00    -0.109 C  
HETATM    4  O   UNK A   0      -5.198   8.515  66.206  1.00  0.00    -0.030 OA 
HETATM    5  C   UNK A   0      -9.187   5.418  67.035  1.00  0.00    -0.113 C  
HETATM    6  C   UNK A   0      -8.053   9.439  64.572  1.00  0.00    -0.136 C  
HETATM    7  N   UNK A   0      -9.540   6.504  66.103  1.00  0.00    -0.376 NA 
HETATM    8  H   UNK A   0     -10.478   6.552  65.706  1.00  0.00     0.000 HD 
HETATM    9  H2  UNK A   0      -8.023  11.199  63.508  1.00  0.00     0.000 HD 
HETATM   10  C   UNK A   0      -8.588   7.463  65.768  1.00  0.00    -0.136 C  
HETATM   11  H   UNK A   0      -6.266  10.342  64.782  1.00  0.00     0.000 HD 
HETATM   12  C   UNK A   0      -7.364   7.474  66.357  1.00  0.00    -0.083 C  
HETATM   13  H1  UNK A   0      -9.537  10.304  63.404  1.00  0.00     0.000 HD 
HETATM   14  C   UNK A   0      -6.375   8.539  65.852  1.00  0.00    -0.053 C  
HETATM   15  N   UNK A   0      -8.900   8.427  64.855  1.00  0.00    -0.411 NA 
HETATM   16  N   UNK A   0      -8.585  10.386  63.763  1.00  0.00    -0.175 NA 
HETATM   17  N   UNK A   0      -6.851   9.542  65.025  1.00  0.00    -0.093 N  
ENDROOT
BRANCH   3  18
HETATM   18  C   UNK A   0      -8.850   6.856  69.132  1.00  0.00    -0.134 C  
BRANCH  18  19
HETATM   19  N   UNK A   0     -10.193   7.273  68.683  1.00  0.00    -0.177 NA 
HETATM   20  H   UNK A   0     -10.859   6.603  68.301  1.00  0.00     0.000 HD 
BRANCH  19  21
HETATM   21  C   UNK A   0     -10.509   8.634  68.806  1.00  0.00    -0.185 A  
HETATM   22  C   UNK A   0     -11.132  10.470  70.283  1.00  0.00    -0.359 A  
HETATM   23  C   UNK A   0     -11.101  11.353  69.203  1.00  0.00    -0.317 A  
HETATM   24  C   UNK A   0     -10.614   9.504  67.716  1.00  0.00    -0.318 A  
HETATM   25  C   UNK A   0     -10.848   9.117  70.077  1.00  0.00    -0.256 A  
HETATM   26  C   UNK A   0     -10.893  10.859  67.910  1.00  0.00    -0.295 A  
BRANCH  23  27
HETATM   27  C   UNK A   0     -11.308  12.805  69.436  1.00  0.00    -0.202 C  
ATOM     28  H   GLU A   1      -9.610  13.242  68.308  1.00  0.00     0.000 HD 
ATOM     29  N   GLU A   1     -10.353  13.642  68.882  1.00  0.00    -0.170 N  
HETATM   30  O   UNK A   0     -12.276  13.215  70.058  1.00  0.00    -0.306 OA 
BRANCH  29  31
ATOM     31  CA  GLU A   1     -10.388  15.103  69.106  1.00  0.00    -0.249 C  
ATOM     32  C   GLU A   1     -10.937  15.816  67.848  1.00  0.00    -0.324 C  
ATOM     33  O   GLU A   1     -11.172  14.988  66.804  1.00  0.00    -0.339 OA 
ATOM     34  OXT GLU A   1     -11.107  17.025  67.759  1.00  0.00    -0.263 OA 
BRANCH  31  35
ATOM     35  CB  GLU A   1      -8.980  15.612  69.465  1.00  0.00    -0.231 C  
BRANCH  35  36
ATOM     36  CG  GLU A   1      -8.257  16.296  68.298  1.00  0.00    -0.173 C  
ATOM     37  CD  GLU A   1      -7.228  15.407  67.647  1.00  0.00    -0.182 C  
ATOM     38  OE2 GLU A   1      -6.951  14.272  68.000  1.00  0.00    -0.111 OA 
ATOM     39  OE1 GLU A   1      -6.630  16.013  66.591  1.00  0.00    -0.224 OA 
ENDBRANCH  35  36
ENDBRANCH  31  35
ENDBRANCH  29  31
ENDBRANCH  23  27
ENDBRANCH  19  21
ENDBRANCH  18  19
ENDBRANCH   3  18
TORSDOF 7
ENDMDL
MODEL      198
REMARK 921   NORMALIZED FREE ENERGY PREDICTED BY IDOCK:   -4.53 KCAL/MOL
REMARK 922        TOTAL FREE ENERGY PREDICTED BY IDOCK:   -7.62 KCAL/MOL
REMARK 923 INTER-LIGAND FREE ENERGY PREDICTED BY IDOCK:   -7.38 KCAL/MOL
REMARK 924 INTRA-LIGAND FREE ENERGY PREDICTED BY IDOCK:   -0.24 KCAL/MOL
REMARK 927      BINDING AFFINITY PREDICTED BY RF-SCORE:    0.00 PKD
ROOT
HETATM    1  C   UNK A   0     -10.013   5.811  73.086  1.00  0.00    -0.176 C  
HETATM    2  N   UNK A   0     -10.162   6.304  71.725  1.00  0.00    -0.194 NA 
HETATM    3  C   UNK A   0     -11.539   6.597  71.232  1.00  0.00    -0.323 C  
HETATM    4  O   UNK A   0      -7.336   6.402  72.517  1.00  0.00    -0.085 OA 
HETATM    5  C   UNK A   0     -11.634   6.144  69.753  1.00  0.00    -0.131 C  
HETATM    6  C   UNK A   0      -7.012   7.543  69.312  1.00  0.00    -0.068 C  
HETATM    7  N   UNK A   0     -10.518   6.676  68.952  1.00  0.00    -0.196 NA 
HETATM    8  H   UNK A   0     -10.662   6.922  67.973  1.00  0.00     0.000 HD 
HETATM    9  H2  UNK A   0      -5.208   8.362  68.763  1.00  0.00     0.000 HD 
HETATM   10  C   UNK A   0      -9.265   6.839  69.538  1.00  0.00    -0.147 C  
HETATM   11  H   UNK A   0      -5.758   7.570  70.887  1.00  0.00     0.000 HD 
HETATM   12  C   UNK A   0      -9.073   6.607  70.862  1.00  0.00    -0.154 C  
HETATM   13  H1  UNK A   0      -6.399   8.277  67.469  1.00  0.00     0.000 HD 
HETATM   14  C   UNK A   0      -7.630   6.754  71.377  1.00  0.00    -0.092 C  
HETATM   15  N   UNK A   0      -8.220   7.270  68.775  1.00  0.00    -0.127 NA 
HETATM   16  N   UNK A   0      -6.142   8.105  68.441  1.00  0.00    -0.044 NA 
HETATM   17  N   UNK A   0      -6.686   7.326  70.541  1.00  0.00    -0.047 N  
ENDROOT
BRANCH   3  18
HETATM   18  C   UNK A   0     -11.858   8.109  71.386  1.00  0.00    -0.295 C  
BRANCH  18  19
HETATM   19  N   UNK A   0     -10.649   8.940  71.217  1.00  0.00    -0.255 NA 
HETATM   20  H   UNK A   0      -9.798   8.755  71.748  1.00  0.00     0.000 HD 
BRANCH  19  21
HETATM   21  C   UNK A   0     -10.726   9.994  70.295  1.00  0.00    -0.309 A  
HETATM   22  C   UNK A   0     -12.108  11.702  69.243  1.00  0.00    -0.323 A  
HETATM   23  C   UNK A   0     -11.002  12.161  68.527  1.00  0.00    -0.276 A  
HETATM   24  C   UNK A   0      -9.662  10.379  69.474  1.00  0.00    -0.196 A  
HETATM   25  C   UNK A   0     -11.967  10.616  70.112  1.00  0.00    -0.417 A  
HETATM   26  C   UNK A   0      -9.791  11.465  68.604  1.00  0.00    -0.199 A  
BRANCH  23  27
HETATM   27  C   UNK A   0     -11.129  13.372  67.678  1.00  0.00    -0.265 C  
ATOM     28  H   GLU A   1      -9.416  14.180  68.550  1.00  0.00     0.000 HD 
ATOM     29  N   GLU A   1     -10.173  14.353  67.888  1.00  0.00    -0.230 N  
HETATM   30  O   UNK A   0     -12.011  13.468  66.839  1.00  0.00    -0.385 OA 
BRANCH  29  31
ATOM     31  CA  GLU A   1     -10.227  15.645  67.171  1.00  0.00    -0.270 C  
ATOM     32  C   GLU A   1      -8.867  15.929  66.491  1.00  0.00    -0.305 C  
ATOM     33  O   GLU A   1      -7.912  15.010  66.766  1.00  0.00    -0.150 OA 
ATOM     34  OXT GLU A   1      -8.632  16.913  65.803  1.00  0.00    -0.505 OA 
BRANCH  31  35
ATOM     35  CB  GLU A   1     -10.605  16.771  68.151  1.00  0.00    -0.350 C  
BRANCH  35  36
ATOM     36  CG  GLU A   1     -11.904  16.504  68.922  1.00  0.00     0.227 C  
ATOM     37  CD  GLU A   1     -11.662  15.885  70.276  1.00  0.00    -0.340 C  
ATOM     38  OE2 GLU A   1     -10.569  15.586  70.730  1.00  0.00    -0.281 OA 
ATOM     39  OE1 GLU A   1     -12.818  15.695  70.960  1.00  0.00    -0.467 OA 
ENDBRANCH  35  36
ENDBRANCH  31  35
ENDBRANCH  29  31
ENDBRANCH  23  27
ENDBRANCH  19  21
ENDBRANCH  18  19
ENDBRANCH   3  18
TORSDOF 7
ENDMDL
MODEL      199
REMARK 921   NORMALIZED FREE ENERGY PREDICTED BY IDOCK:   -4.52 KCAL/MOL
REMARK 922        TOTAL FREE ENERGY PREDICTED BY IDOCK:   -7.59 KCAL/MOL
REMARK 923 INTER-LIGAND FREE ENERGY PREDICTED BY IDOCK:   -7.37 KCAL/MOL
REMARK 924 INTRA-LIGAND FREE ENERGY PREDICTED BY IDOCK:   -0.22 KCAL/MOL
REMARK 927      BINDING AFFINITY PREDICTED BY RF-SCORE:    0.00 PKD
ROOT
HETATM    1  C   UNK A   0     -11.837  11.737  70.323  1.00  0.00    -0.295 C  
HETATM    2  N   UNK A   0     -11.749  13.188  70.241  1.00  0.00    -0.541 NA 
HETATM    3  C   UNK A   0     -11.177  13.785  69.000  1.00  0.00    -0.272 C  
HETATM    4  O   UNK A   0     -13.430  12.420  72.523  1.00  0.00    -0.412 OA 
HETATM    5  C   UNK A   0     -10.300  14.999  69.403  1.00  0.00    -0.235 C  
HETATM    6  C   UNK A   0     -13.528  15.811  72.929  1.00  0.00    -0.580 C  
HETATM    7  N   UNK A   0     -11.023  15.912  70.305  1.00  0.00    -0.342 NA 
HETATM    8  H   UNK A   0     -10.853  16.916  70.260  1.00  0.00     0.000 HD 
HETATM    9  H2  UNK A   0     -14.896  16.579  74.258  1.00  0.00     0.000 HD 
HETATM   10  C   UNK A   0     -11.940  15.397  71.218  1.00  0.00    -0.374 C  
HETATM   11  H   UNK A   0     -14.640  14.326  73.711  1.00  0.00     0.000 HD 
HETATM   12  C   UNK A   0     -12.253  14.076  71.231  1.00  0.00    -0.310 C  
HETATM   13  H1  UNK A   0     -13.853  17.780  73.503  1.00  0.00     0.000 HD 
HETATM   14  C   UNK A   0     -13.225  13.616  72.332  1.00  0.00    -0.484 C  
HETATM   15  N   UNK A   0     -12.558  16.240  72.094  1.00  0.00    -0.500 NA 
HETATM   16  N   UNK A   0     -14.137  16.807  73.615  1.00  0.00     0.230 NA 
HETATM   17  N   UNK A   0     -13.887  14.581  73.071  1.00  0.00    -0.103 N  
ENDROOT
BRANCH   3  18
HETATM   18  C   UNK A   0     -12.312  14.202  68.026  1.00  0.00     0.019 C  
BRANCH  18  19
HETATM   19  N   UNK A   0     -11.829  14.284  66.633  1.00  0.00    -0.408 NA 
HETATM   20  H   UNK A   0     -12.065  15.074  66.033  1.00  0.00     0.000 HD 
BRANCH  19  21
HETATM   21  C   UNK A   0     -11.032  13.225  66.174  1.00  0.00    -0.279 A  
HETATM   22  C   UNK A   0      -9.447  12.425  64.505  1.00  0.00     0.289 A  
HETATM   23  C   UNK A   0      -9.347  11.208  65.180  1.00  0.00    -0.237 A  
HETATM   24  C   UNK A   0     -11.022  11.956  66.760  1.00  0.00    -0.337 A  
HETATM   25  C   UNK A   0     -10.296  13.420  64.998  1.00  0.00    -0.361 A  
HETATM   26  C   UNK A   0     -10.175  10.955  66.278  1.00  0.00    -0.300 A  
BRANCH  23  27
HETATM   27  C   UNK A   0      -8.374  10.188  64.711  1.00  0.00    -0.165 C  
ATOM     28  H   GLU A   1      -9.680   8.664  65.276  1.00  0.00     0.000 HD 
ATOM     29  N   GLU A   1      -8.756   8.869  64.896  1.00  0.00    -0.176 N  
HETATM   30  O   UNK A   0      -7.324  10.511  64.179  1.00  0.00    -0.037 OA 
BRANCH  29  31
ATOM     31  CA  GLU A   1      -7.851   7.751  64.552  1.00  0.00    -0.138 C  
ATOM     32  C   GLU A   1      -7.958   7.430  63.042  1.00  0.00    -0.105 C  
ATOM     33  O   GLU A   1      -8.899   8.152  62.392  1.00  0.00    -0.018 OA 
ATOM     34  OXT GLU A   1      -7.300   6.570  62.472  1.00  0.00    -0.053 OA 
BRANCH  31  35
ATOM     35  CB  GLU A   1      -8.192   6.518  65.409  1.00  0.00    -0.135 C  
BRANCH  35  36
ATOM     36  CG  GLU A   1      -9.361   6.746  66.375  1.00  0.00    -0.175 C  
ATOM     37  CD  GLU A   1      -9.956   5.458  66.886  1.00  0.00    -0.184 C  
ATOM     38  OE2 GLU A   1      -9.594   4.338  66.565  1.00  0.00    -0.171 OA 
ATOM     39  OE1 GLU A   1     -10.960   5.680  67.771  1.00  0.00    -0.181 OA 
ENDBRANCH  35  36
ENDBRANCH  31  35
ENDBRANCH  29  31
ENDBRANCH  23  27
ENDBRANCH  19  21
ENDBRANCH  18  19
ENDBRANCH   3  18
TORSDOF 7
ENDMDL
MODEL      200
REMARK 921   NORMALIZED FREE ENERGY PREDICTED BY IDOCK:   -4.51 KCAL/MOL
REMARK 922        TOTAL FREE ENERGY PREDICTED BY IDOCK:   -7.59 KCAL/MOL
REMARK 923 INTER-LIGAND FREE ENERGY PREDICTED BY IDOCK:   -7.10 KCAL/MOL
REMARK 924 INTRA-LIGAND FREE ENERGY PREDICTED BY IDOCK:   -0.49 KCAL/MOL
REMARK 927      BINDING AFFINITY PREDICTED BY RF-SCORE:    0.00 PKD
ROOT
HETATM    1  C   UNK A   0      -7.399  19.756  69.822  1.00  0.00     0.074 C  
HETATM    2  N   UNK A   0      -7.202  18.733  68.805  1.00  0.00    -0.300 NA 
HETATM    3  C   UNK A   0      -6.003  17.854  68.920  1.00  0.00    -0.202 C  
HETATM    4  O   UNK A   0      -9.909  19.848  68.584  1.00  0.00    -0.379 OA 
HETATM    5  C   UNK A   0      -5.436  17.613  67.498  1.00  0.00    -0.133 C  
HETATM    6  C   UNK A   0     -10.034  17.667  65.957  1.00  0.00    -0.209 C  
HETATM    7  N   UNK A   0      -6.490  17.177  66.564  1.00  0.00    -0.225 NA 
HETATM    8  H   UNK A   0      -6.270  16.523  65.814  1.00  0.00     0.000 HD 
HETATM    9  H2  UNK A   0     -11.867  17.300  65.100  1.00  0.00     0.000 HD 
HETATM   10  C   UNK A   0      -7.787  17.664  66.711  1.00  0.00    -0.234 C  
HETATM   11  H   UNK A   0     -11.472  18.673  66.945  1.00  0.00     0.000 HD 
HETATM   12  C   UNK A   0      -8.124  18.460  67.758  1.00  0.00    -0.254 C  
HETATM   13  H1  UNK A   0     -10.517  16.478  64.324  1.00  0.00     0.000 HD 
HETATM   14  C   UNK A   0      -9.568  18.991  67.772  1.00  0.00    -0.311 C  
HETATM   15  N   UNK A   0      -8.742  17.309  65.805  1.00  0.00    -0.500 NA 
HETATM   16  N   UNK A   0     -10.868  17.100  65.053  1.00  0.00    -0.665 NA 
HETATM   17  N   UNK A   0     -10.477  18.453  66.877  1.00  0.00    -0.392 N  
ENDROOT
BRANCH   3  18
HETATM   18  C   UNK A   0      -6.376  16.517  69.618  1.00  0.00    -0.216 C  
BRANCH  18  19
HETATM   19  N   UNK A   0      -5.592  15.388  69.081  1.00  0.00    -0.098 NA 
HETATM   20  H   UNK A   0      -4.587  15.463  68.924  1.00  0.00     0.000 HD 
BRANCH  19  21
HETATM   21  C   UNK A   0      -6.292  14.206  68.796  1.00  0.00    -0.088 A  
HETATM   22  C   UNK A   0      -6.624  11.845  69.301  1.00  0.00    -0.110 A  
HETATM   23  C   UNK A   0      -7.659  11.789  68.368  1.00  0.00    -0.123 A  
HETATM   24  C   UNK A   0      -7.239  14.098  67.773  1.00  0.00    -0.187 A  
HETATM   25  C   UNK A   0      -5.940  13.048  69.501  1.00  0.00    -0.110 A  
HETATM   26  C   UNK A   0      -7.931  12.902  67.566  1.00  0.00    -0.178 A  
BRANCH  23  27
HETATM   27  C   UNK A   0      -8.448  10.539  68.224  1.00  0.00    -0.123 C  
ATOM     28  H   GLU A   1      -8.569  10.360  70.298  1.00  0.00     0.000 HD 
ATOM     29  N   GLU A   1      -8.804   9.916  69.410  1.00  0.00    -0.173 N  
HETATM   30  O   UNK A   0      -8.772  10.117  67.125  1.00  0.00    -0.129 OA 
BRANCH  29  31
ATOM     31  CA  GLU A   1      -9.519   8.621  69.414  1.00  0.00    -0.161 C  
ATOM     32  C   GLU A   1      -9.971   8.273  70.852  1.00  0.00    -0.190 C  
ATOM     33  O   GLU A   1      -9.548   9.152  71.790  1.00  0.00    -0.283 OA 
ATOM     34  OXT GLU A   1     -10.612   7.274  71.150  1.00  0.00    -0.221 OA 
BRANCH  31  35
ATOM     35  CB  GLU A   1      -8.611   7.521  68.834  1.00  0.00    -0.129 C  
BRANCH  35  36
ATOM     36  CG  GLU A   1      -9.381   6.306  68.302  1.00  0.00    -0.112 C  
ATOM     37  CD  GLU A   1     -10.517   6.690  67.387  1.00  0.00    -0.260 C  
ATOM     38  OE2 GLU A   1     -10.837   7.831  67.101  1.00  0.00    -0.313 OA 
ATOM     39  OE1 GLU A   1     -11.158   5.601  66.893  1.00  0.00    -0.169 OA 
ENDBRANCH  35  36
ENDBRANCH  31  35
ENDBRANCH  29  31
ENDBRANCH  23  27
ENDBRANCH  19  21
ENDBRANCH  18  19
ENDBRANCH   3  18
TORSDOF 7
ENDMDL
MODEL      201
REMARK 921   NORMALIZED FREE ENERGY PREDICTED BY IDOCK:   -4.49 KCAL/MOL
REMARK 922        TOTAL FREE ENERGY PREDICTED BY IDOCK:   -7.56 KCAL/MOL
REMARK 923 INTER-LIGAND FREE ENERGY PREDICTED BY IDOCK:   -6.55 KCAL/MOL
REMARK 924 INTRA-LIGAND FREE ENERGY PREDICTED BY IDOCK:   -1.01 KCAL/MOL
REMARK 927      BINDING AFFINITY PREDICTED BY RF-SCORE:    0.00 PKD
ROOT
HETATM    1  C   UNK A   0     -10.781  16.639  65.349  1.00  0.00    -0.215 C  
HETATM    2  N   UNK A   0     -10.461  15.783  66.483  1.00  0.00    -0.299 NA 
HETATM    3  C   UNK A   0     -11.423  14.700  66.837  1.00  0.00    -0.363 C  
HETATM    4  O   UNK A   0      -8.108  17.376  65.741  1.00  0.00    -0.543 OA 
HETATM    5  C   UNK A   0     -11.505  14.608  68.382  1.00  0.00    -0.311 C  
HETATM    6  C   UNK A   0      -6.786  15.725  68.424  1.00  0.00    -0.116 C  
HETATM    7  N   UNK A   0     -10.165  14.527  68.990  1.00  0.00    -0.299 NA 
HETATM    8  H   UNK A   0     -10.020  13.980  69.838  1.00  0.00     0.000 HD 
HETATM    9  H2  UNK A   0      -4.753  15.835  68.713  1.00  0.00     0.000 HD 
HETATM   10  C   UNK A   0      -9.098  15.201  68.400  1.00  0.00    -0.185 C  
HETATM   11  H   UNK A   0      -5.935  16.787  66.940  1.00  0.00     0.000 HD 
HETATM   12  C   UNK A   0      -9.247  15.857  67.220  1.00  0.00    -0.206 C  
HETATM   13  H1  UNK A   0      -5.622  14.932  69.950  1.00  0.00     0.000 HD 
HETATM   14  C   UNK A   0      -8.015  16.622  66.707  1.00  0.00    -0.249 C  
HETATM   15  N   UNK A   0      -7.875  15.177  69.003  1.00  0.00    -0.166 NA 
HETATM   16  N   UNK A   0      -5.632  15.474  69.086  1.00  0.00    -0.103 NA 
HETATM   17  N   UNK A   0      -6.799  16.411  67.332  1.00  0.00    -0.152 N  
ENDROOT
BRANCH   3  18
HETATM   18  C   UNK A   0     -10.977  13.352  66.209  1.00  0.00    -0.288 C  
BRANCH  18  19
HETATM   19  N   UNK A   0     -11.827  12.234  66.665  1.00  0.00    -0.594 NA 
HETATM   20  H   UNK A   0     -12.833  12.226  66.496  1.00  0.00     0.000 HD 
BRANCH  19  21
HETATM   21  C   UNK A   0     -11.187  11.185  67.341  1.00  0.00    -0.294 A  
HETATM   22  C   UNK A   0     -10.593  10.185  69.483  1.00  0.00    -0.269 A  
HETATM   23  C   UNK A   0      -9.997   9.112  68.819  1.00  0.00    -0.188 A  
HETATM   24  C   UNK A   0     -10.471  10.173  66.694  1.00  0.00    -0.254 A  
HETATM   25  C   UNK A   0     -11.173  11.219  68.741  1.00  0.00    -0.311 A  
HETATM   26  C   UNK A   0      -9.891   9.133  67.425  1.00  0.00    -0.237 A  
BRANCH  23  27
HETATM   27  C   UNK A   0      -9.466   7.969  69.605  1.00  0.00    -0.163 C  
ATOM     28  H   GLU A   1      -7.561   8.303  68.826  1.00  0.00     0.000 HD 
ATOM     29  N   GLU A   1      -8.120   7.693  69.423  1.00  0.00    -0.125 N  
HETATM   30  O   UNK A   0     -10.179   7.342  70.372  1.00  0.00    -0.192 OA 
BRANCH  29  31
ATOM     31  CA  GLU A   1      -7.478   6.532  70.078  1.00  0.00    -0.094 C  
ATOM     32  C   GLU A   1      -6.009   6.869  70.426  1.00  0.00    -0.024 C  
ATOM     33  O   GLU A   1      -5.603   8.082  69.986  1.00  0.00    -0.023 OA 
ATOM     34  OXT GLU A   1      -5.245   6.106  71.002  1.00  0.00    -0.016 OA 
BRANCH  31  35
ATOM     35  CB  GLU A   1      -7.565   5.300  69.159  1.00  0.00    -0.074 C  
BRANCH  35  36
ATOM     36  CG  GLU A   1      -8.395   4.152  69.747  1.00  0.00    -0.079 C  
ATOM     37  CD  GLU A   1      -7.544   3.014  70.251  1.00  0.00    -0.043 C  
ATOM     38  OE2 GLU A   1      -6.327   2.963  70.189  1.00  0.00    -0.027 OA 
ATOM     39  OE1 GLU A   1      -8.294   2.028  70.806  1.00  0.00    -0.048 OA 
ENDBRANCH  35  36
ENDBRANCH  31  35
ENDBRANCH  29  31
ENDBRANCH  23  27
ENDBRANCH  19  21
ENDBRANCH  18  19
ENDBRANCH   3  18
TORSDOF 7
ENDMDL
MODEL      202
REMARK 921   NORMALIZED FREE ENERGY PREDICTED BY IDOCK:   -4.44 KCAL/MOL
REMARK 922        TOTAL FREE ENERGY PREDICTED BY IDOCK:   -7.48 KCAL/MOL
REMARK 923 INTER-LIGAND FREE ENERGY PREDICTED BY IDOCK:   -6.13 KCAL/MOL
REMARK 924 INTRA-LIGAND FREE ENERGY PREDICTED BY IDOCK:   -1.36 KCAL/MOL
REMARK 927      BINDING AFFINITY PREDICTED BY RF-SCORE:    0.00 PKD
ROOT
HETATM    1  C   UNK A   0      -7.942  19.358  68.495  1.00  0.00    -0.360 C  
HETATM    2  N   UNK A   0      -7.930  18.077  67.804  1.00  0.00    -0.232 NA 
HETATM    3  C   UNK A   0      -7.021  17.012  68.316  1.00  0.00    -0.180 C  
HETATM    4  O   UNK A   0     -10.218  19.679  66.896  1.00  0.00    -0.378 OA 
HETATM    5  C   UNK A   0      -6.413  16.264  67.102  1.00  0.00    -0.179 C  
HETATM    6  C   UNK A   0     -10.677  16.946  64.897  1.00  0.00     0.063 C  
HETATM    7  N   UNK A   0      -7.455  15.842  66.151  1.00  0.00     0.114 NA 
HETATM    8  H   UNK A   0      -7.349  14.973  65.628  1.00  0.00     0.000 HD 
HETATM    9  H2  UNK A   0     -12.458  16.789  63.881  1.00  0.00     0.000 HD 
HETATM   10  C   UNK A   0      -8.586  16.635  65.970  1.00  0.00    -0.194 C  
HETATM   11  H   UNK A   0     -11.881  18.489  65.371  1.00  0.00     0.000 HD 
HETATM   12  C   UNK A   0      -8.794  17.745  66.724  1.00  0.00    -0.260 C  
HETATM   13  H1  UNK A   0     -11.308  15.497  63.550  1.00  0.00     0.000 HD 
HETATM   14  C   UNK A   0     -10.043  18.576  66.382  1.00  0.00    -0.405 C  
HETATM   15  N   UNK A   0      -9.516  16.273  65.041  1.00  0.00     0.363 NA 
HETATM   16  N   UNK A   0     -11.546  16.359  64.040  1.00  0.00    -1.542 NA 
HETATM   17  N   UNK A   0     -10.978  18.036  65.516  1.00  0.00     0.037 N  
ENDROOT
BRANCH   3  18
HETATM   18  C   UNK A   0      -7.793  16.044  69.252  1.00  0.00    -0.222 C  
BRANCH  18  19
HETATM   19  N   UNK A   0      -7.171  14.705  69.282  1.00  0.00    -0.151 NA 
HETATM   20  H   UNK A   0      -6.229  14.563  69.647  1.00  0.00     0.000 HD 
BRANCH  19  21
HETATM   21  C   UNK A   0      -7.933  13.639  68.783  1.00  0.00    -0.022 A  
HETATM   22  C   UNK A   0      -7.945  11.400  67.821  1.00  0.00    -0.119 A  
HETATM   23  C   UNK A   0      -9.341  11.407  67.816  1.00  0.00    -0.162 A  
HETATM   24  C   UNK A   0      -9.324  13.682  68.647  1.00  0.00    -0.057 A  
HETATM   25  C   UNK A   0      -7.251  12.518  68.293  1.00  0.00    -0.111 A  
HETATM   26  C   UNK A   0     -10.029  12.569  68.180  1.00  0.00    -0.224 A  
BRANCH  23  27
HETATM   27  C   UNK A   0     -10.078  10.185  67.405  1.00  0.00    -0.205 C  
ATOM     28  H   GLU A   1      -8.483   8.997  68.031  1.00  0.00     0.000 HD 
ATOM     29  N   GLU A   1      -9.401   8.990  67.585  1.00  0.00    -0.135 N  
HETATM   30  O   UNK A   0     -11.214  10.249  66.964  1.00  0.00    -0.171 OA 
BRANCH  29  31
ATOM     31  CA  GLU A   1      -9.982   7.703  67.143  1.00  0.00    -0.229 C  
ATOM     32  C   GLU A   1     -10.343   6.837  68.373  1.00  0.00    -0.191 C  
ATOM     33  O   GLU A   1      -9.975   7.381  69.556  1.00  0.00    -0.173 OA 
ATOM     34  OXT GLU A   1     -10.869   5.734  68.309  1.00  0.00    -0.241 OA 
BRANCH  31  35
ATOM     35  CB  GLU A   1      -8.991   6.972  66.219  1.00  0.00    -0.175 C  
BRANCH  35  36
ATOM     36  CG  GLU A   1      -7.580   7.571  66.233  1.00  0.00    -0.088 C  
ATOM     37  CD  GLU A   1      -7.396   8.657  65.203  1.00  0.00    -0.088 C  
ATOM     38  OE2 GLU A   1      -8.246   9.026  64.409  1.00  0.00    -0.147 OA 
ATOM     39  OE1 GLU A   1      -6.156   9.204  65.260  1.00  0.00    -0.061 OA 
ENDBRANCH  35  36
ENDBRANCH  31  35
ENDBRANCH  29  31
ENDBRANCH  23  27
ENDBRANCH  19  21
ENDBRANCH  18  19
ENDBRANCH   3  18
TORSDOF 7
ENDMDL
MODEL      203
REMARK 921   NORMALIZED FREE ENERGY PREDICTED BY IDOCK:   -4.40 KCAL/MOL
REMARK 922        TOTAL FREE ENERGY PREDICTED BY IDOCK:   -7.44 KCAL/MOL
REMARK 923 INTER-LIGAND FREE ENERGY PREDICTED BY IDOCK:   -6.66 KCAL/MOL
REMARK 924 INTRA-LIGAND FREE ENERGY PREDICTED BY IDOCK:   -0.77 KCAL/MOL
REMARK 927      BINDING AFFINITY PREDICTED BY RF-SCORE:    0.00 PKD
ROOT
HETATM    1  C   UNK A   0     -10.772  17.126  65.069  1.00  0.00     0.105 C  
HETATM    2  N   UNK A   0     -10.366  16.066  65.980  1.00  0.00    -0.334 NA 
HETATM    3  C   UNK A   0     -11.182  14.818  66.011  1.00  0.00    -0.341 C  
HETATM    4  O   UNK A   0      -8.232  18.072  65.773  1.00  0.00    -0.519 OA 
HETATM    5  C   UNK A   0     -11.287  14.340  67.482  1.00  0.00    -0.326 C  
HETATM    6  C   UNK A   0      -6.764  15.993  68.052  1.00  0.00    -0.127 C  
HETATM    7  N   UNK A   0      -9.964  14.281  68.126  1.00  0.00    -0.224 NA 
HETATM    8  H   UNK A   0      -9.766  13.566  68.826  1.00  0.00     0.000 HD 
HETATM    9  H2  UNK A   0      -4.772  16.281  68.471  1.00  0.00     0.000 HD 
HETATM   10  C   UNK A   0      -8.983  15.207  67.776  1.00  0.00    -0.178 C  
HETATM   11  H   UNK A   0      -6.029  17.483  66.915  1.00  0.00     0.000 HD 
HETATM   12  C   UNK A   0      -9.191  16.107  66.781  1.00  0.00    -0.231 C  
HETATM   13  H1  UNK A   0      -5.540  15.002  69.406  1.00  0.00     0.000 HD 
HETATM   14  C   UNK A   0      -8.062  17.123  66.534  1.00  0.00    -0.283 C  
HETATM   15  N   UNK A   0      -7.783  15.188  68.422  1.00  0.00    -0.114 NA 
HETATM   16  N   UNK A   0      -5.602  15.734  68.698  1.00  0.00    -0.100 NA 
HETATM   17  N   UNK A   0      -6.843  16.917  67.158  1.00  0.00    -0.166 N  
ENDROOT
BRANCH   3  18
HETATM   18  C   UNK A   0     -10.545  13.731  65.104  1.00  0.00    -0.374 C  
BRANCH  18  19
HETATM   19  N   UNK A   0     -11.415  12.544  64.986  1.00  0.00    -0.315 NA 
HETATM   20  H   UNK A   0     -12.291  12.576  64.465  1.00  0.00     0.000 HD 
BRANCH  19  21
HETATM   21  C   UNK A   0     -10.983  11.372  65.624  1.00  0.00    -0.190 A  
HETATM   22  C   UNK A   0     -11.029   9.994  67.633  1.00  0.00    -0.297 A  
HETATM   23  C   UNK A   0     -10.240   9.035  66.996  1.00  0.00    -0.336 A  
HETATM   24  C   UNK A   0     -10.086  10.467  65.049  1.00  0.00    -0.379 A  
HETATM   25  C   UNK A   0     -11.385  11.160  66.949  1.00  0.00    -0.168 A  
HETATM   26  C   UNK A   0      -9.725   9.297  65.722  1.00  0.00    -0.339 A  
BRANCH  23  27
HETATM   27  C   UNK A   0      -9.941   7.755  67.687  1.00  0.00    -0.178 C  
ATOM     28  H   GLU A   1      -7.937   8.303  67.864  1.00  0.00     0.000 HD 
ATOM     29  N   GLU A   1      -8.615   7.560  68.037  1.00  0.00    -0.123 N  
HETATM   30  O   UNK A   0     -10.824   6.952  67.943  1.00  0.00    -0.231 OA 
BRANCH  29  31
ATOM     31  CA  GLU A   1      -8.160   6.296  68.656  1.00  0.00    -0.109 C  
ATOM     32  C   GLU A   1      -7.370   6.596  69.951  1.00  0.00    -0.086 C  
ATOM     33  O   GLU A   1      -7.182   7.915  70.188  1.00  0.00    -0.056 OA 
ATOM     34  OXT GLU A   1      -6.901   5.739  70.687  1.00  0.00    -0.050 OA 
BRANCH  31  35
ATOM     35  CB  GLU A   1      -7.305   5.500  67.653  1.00  0.00    -0.076 C  
BRANCH  35  36
ATOM     36  CG  GLU A   1      -7.882   5.481  66.232  1.00  0.00    -0.100 C  
ATOM     37  CD  GLU A   1      -8.820   4.323  65.998  1.00  0.00    -0.119 C  
ATOM     38  OE2 GLU A   1      -9.091   3.459  66.816  1.00  0.00    -0.144 OA 
ATOM     39  OE1 GLU A   1      -9.353   4.347  64.750  1.00  0.00    -0.156 OA 
ENDBRANCH  35  36
ENDBRANCH  31  35
ENDBRANCH  29  31
ENDBRANCH  23  27
ENDBRANCH  19  21
ENDBRANCH  18  19
ENDBRANCH   3  18
TORSDOF 7
ENDMDL
MODEL      204
REMARK 921   NORMALIZED FREE ENERGY PREDICTED BY IDOCK:   -4.38 KCAL/MOL
REMARK 922        TOTAL FREE ENERGY PREDICTED BY IDOCK:   -7.41 KCAL/MOL
REMARK 923 INTER-LIGAND FREE ENERGY PREDICTED BY IDOCK:   -5.87 KCAL/MOL
REMARK 924 INTRA-LIGAND FREE ENERGY PREDICTED BY IDOCK:   -1.54 KCAL/MOL
REMARK 927      BINDING AFFINITY PREDICTED BY RF-SCORE:    0.00 PKD
ROOT
HETATM    1  C   UNK A   0     -12.390  13.729  64.541  1.00  0.00    -0.358 C  
HETATM    2  N   UNK A   0     -11.393  13.260  65.492  1.00  0.00    -0.291 NA 
HETATM    3  C   UNK A   0     -11.613  13.547  66.938  1.00  0.00    -0.363 C  
HETATM    4  O   UNK A   0     -10.929  12.024  62.869  1.00  0.00    -0.118 OA 
HETATM    5  C   UNK A   0     -10.247  13.903  67.579  1.00  0.00    -0.245 C  
HETATM    6  C   UNK A   0      -8.294  10.652  64.557  1.00  0.00    -0.043 C  
HETATM    7  N   UNK A   0      -9.220  12.899  67.253  1.00  0.00    -0.200 NA 
HETATM    8  H   UNK A   0      -8.491  12.675  67.929  1.00  0.00     0.000 HD 
HETATM    9  H2  UNK A   0      -7.272   9.113  63.655  1.00  0.00     0.000 HD 
HETATM   10  C   UNK A   0      -9.250  12.257  66.017  1.00  0.00    -0.085 C  
HETATM   11  H   UNK A   0      -9.150  10.197  62.792  1.00  0.00     0.000 HD 
HETATM   12  C   UNK A   0     -10.264  12.470  65.139  1.00  0.00    -0.279 C  
HETATM   13  H1  UNK A   0      -6.620   9.612  65.212  1.00  0.00     0.000 HD 
HETATM   14  C   UNK A   0     -10.148  11.758  63.780  1.00  0.00    -0.391 C  
HETATM   15  N   UNK A   0      -8.259  11.377  65.695  1.00  0.00    -0.364 NA 
HETATM   16  N   UNK A   0      -7.315   9.720  64.473  1.00  0.00    -0.129 NA 
HETATM   17  N   UNK A   0      -9.173  10.788  63.624  1.00  0.00    -0.229 N  
ENDROOT
BRANCH   3  18
HETATM   18  C   UNK A   0     -12.269  12.326  67.639  1.00  0.00     0.320 C  
BRANCH  18  19
HETATM   19  N   UNK A   0     -11.894  12.253  69.065  1.00  0.00    -0.315 NA 
HETATM   20  H   UNK A   0     -11.913  13.079  69.664  1.00  0.00     0.000 HD 
BRANCH  19  21
HETATM   21  C   UNK A   0     -11.510  10.998  69.558  1.00  0.00    -0.299 A  
HETATM   22  C   UNK A   0      -9.833   9.230  69.585  1.00  0.00    -0.196 A  
HETATM   23  C   UNK A   0     -10.593   8.520  70.515  1.00  0.00    -0.238 A  
HETATM   24  C   UNK A   0     -12.319  10.213  70.386  1.00  0.00    -0.268 A  
HETATM   25  C   UNK A   0     -10.301  10.456  69.104  1.00  0.00    -0.241 A  
HETATM   26  C   UNK A   0     -11.861   8.987  70.875  1.00  0.00    -0.302 A  
BRANCH  23  27
HETATM   27  C   UNK A   0     -10.052   7.265  71.097  1.00  0.00    -0.186 C  
ATOM     28  H   GLU A   1      -8.298   7.493  69.993  1.00  0.00     0.000 HD 
ATOM     29  N   GLU A   1      -8.800   6.885  70.640  1.00  0.00    -0.150 N  
HETATM   30  O   UNK A   0     -10.675   6.638  71.939  1.00  0.00    -0.217 OA 
BRANCH  29  31
ATOM     31  CA  GLU A   1      -8.177   5.615  71.072  1.00  0.00    -0.121 C  
ATOM     32  C   GLU A   1      -6.641   5.777  71.141  1.00  0.00    -0.045 C  
ATOM     33  O   GLU A   1      -6.195   6.980  70.713  1.00  0.00    -0.035 OA 
ATOM     34  OXT GLU A   1      -5.870   4.897  71.499  1.00  0.00    -0.012 OA 
BRANCH  31  35
ATOM     35  CB  GLU A   1      -8.575   4.482  70.108  1.00  0.00    -0.104 C  
BRANCH  35  36
ATOM     36  CG  GLU A   1      -8.325   4.815  68.632  1.00  0.00    -0.083 C  
ATOM     37  CD  GLU A   1      -9.587   5.192  67.896  1.00  0.00    -0.135 C  
ATOM     38  OE2 GLU A   1     -10.706   5.212  68.381  1.00  0.00    -0.018 OA 
ATOM     39  OE1 GLU A   1      -9.339   5.524  66.604  1.00  0.00    -0.132 OA 
ENDBRANCH  35  36
ENDBRANCH  31  35
ENDBRANCH  29  31
ENDBRANCH  23  27
ENDBRANCH  19  21
ENDBRANCH  18  19
ENDBRANCH   3  18
TORSDOF 7
ENDMDL
MODEL      205
REMARK 921   NORMALIZED FREE ENERGY PREDICTED BY IDOCK:   -4.36 KCAL/MOL
REMARK 922        TOTAL FREE ENERGY PREDICTED BY IDOCK:   -7.38 KCAL/MOL
REMARK 923 INTER-LIGAND FREE ENERGY PREDICTED BY IDOCK:   -6.05 KCAL/MOL
REMARK 924 INTRA-LIGAND FREE ENERGY PREDICTED BY IDOCK:   -1.33 KCAL/MOL
REMARK 927      BINDING AFFINITY PREDICTED BY RF-SCORE:    0.00 PKD
ROOT
HETATM    1  C   UNK A   0     -10.237  18.310  69.390  1.00  0.00     0.171 C  
HETATM    2  N   UNK A   0     -10.080  17.698  68.079  1.00  0.00    -0.324 NA 
HETATM    3  C   UNK A   0      -9.052  18.264  67.160  1.00  0.00    -0.264 C  
HETATM    4  O   UNK A   0     -11.743  15.983  69.788  1.00  0.00    -0.319 OA 
HETATM    5  C   UNK A   0      -9.626  18.253  65.720  1.00  0.00     0.311 C  
HETATM    6  C   UNK A   0     -11.843  14.114  66.929  1.00  0.00    -0.431 C  
HETATM    7  N   UNK A   0     -10.174  16.932  65.367  1.00  0.00    -0.623 NA 
HETATM    8  H   UNK A   0     -10.112  16.592  64.407  1.00  0.00     0.000 HD 
HETATM    9  H2  UNK A   0     -12.596  12.205  67.057  1.00  0.00     0.000 HD 
HETATM   10  C   UNK A   0     -10.776  16.149  66.349  1.00  0.00    -0.211 C  
HETATM   11  H   UNK A   0     -12.331  13.690  68.837  1.00  0.00     0.000 HD 
HETATM   12  C   UNK A   0     -10.784  16.539  67.650  1.00  0.00    -0.311 C  
HETATM   13  H1  UNK A   0     -12.133  12.703  65.433  1.00  0.00     0.000 HD 
HETATM   14  C   UNK A   0     -11.541  15.625  68.630  1.00  0.00    -0.382 C  
HETATM   15  N   UNK A   0     -11.339  14.957  66.004  1.00  0.00    -0.333 NA 
HETATM   16  N   UNK A   0     -12.219  12.914  66.427  1.00  0.00    -0.482 NA 
HETATM   17  N   UNK A   0     -11.952  14.379  68.186  1.00  0.00    -0.505 N  
ENDROOT
BRANCH   3  18
HETATM   18  C   UNK A   0      -7.734  17.447  67.253  1.00  0.00    -0.200 C  
BRANCH  18  19
HETATM   19  N   UNK A   0      -7.642  16.709  68.528  1.00  0.00    -0.200 NA 
HETATM   20  H   UNK A   0      -7.824  17.164  69.422  1.00  0.00     0.000 HD 
BRANCH  19  21
HETATM   21  C   UNK A   0      -7.291  15.353  68.453  1.00  0.00    -0.114 A  
HETATM   22  C   UNK A   0      -7.831  13.139  67.589  1.00  0.00    -0.169 A  
HETATM   23  C   UNK A   0      -6.671  12.626  68.170  1.00  0.00    -0.082 A  
HETATM   24  C   UNK A   0      -6.206  14.797  69.138  1.00  0.00    -0.105 A  
HETATM   25  C   UNK A   0      -8.140  14.493  67.743  1.00  0.00    -0.166 A  
HETATM   26  C   UNK A   0      -5.886  13.445  68.989  1.00  0.00    -0.079 A  
BRANCH  23  27
HETATM   27  C   UNK A   0      -6.294  11.211  67.927  1.00  0.00    -0.054 C  
ATOM     28  H   GLU A   1      -7.908  10.990  66.627  1.00  0.00     0.000 HD 
ATOM     29  N   GLU A   1      -7.132  10.506  67.078  1.00  0.00    -0.090 N  
HETATM   30  O   UNK A   0      -5.294  10.726  68.433  1.00  0.00    -0.041 OA 
BRANCH  29  31
ATOM     31  CA  GLU A   1      -6.923   9.066  66.813  1.00  0.00    -0.081 C  
ATOM     32  C   GLU A   1      -6.350   8.869  65.390  1.00  0.00    -0.063 C  
ATOM     33  O   GLU A   1      -6.252  10.012  64.673  1.00  0.00    -0.108 OA 
ATOM     34  OXT GLU A   1      -6.050   7.783  64.911  1.00  0.00    -0.041 OA 
BRANCH  31  35
ATOM     35  CB  GLU A   1      -8.250   8.304  66.989  1.00  0.00    -0.104 C  
BRANCH  35  36
ATOM     36  CG  GLU A   1      -9.257   9.024  67.894  1.00  0.00    -0.151 C  
ATOM     37  CD  GLU A   1     -10.443   9.563  67.134  1.00  0.00    -0.253 C  
ATOM     38  OE2 GLU A   1     -10.604   9.480  65.927  1.00  0.00     0.007 OA 
ATOM     39  OE1 GLU A   1     -11.343  10.159  67.956  1.00  0.00    -0.250 OA 
ENDBRANCH  35  36
ENDBRANCH  31  35
ENDBRANCH  29  31
ENDBRANCH  23  27
ENDBRANCH  19  21
ENDBRANCH  18  19
ENDBRANCH   3  18
TORSDOF 7
ENDMDL
MODEL      206
REMARK 921   NORMALIZED FREE ENERGY PREDICTED BY IDOCK:   -4.32 KCAL/MOL
REMARK 922        TOTAL FREE ENERGY PREDICTED BY IDOCK:   -7.32 KCAL/MOL
REMARK 923 INTER-LIGAND FREE ENERGY PREDICTED BY IDOCK:   -6.32 KCAL/MOL
REMARK 924 INTRA-LIGAND FREE ENERGY PREDICTED BY IDOCK:   -1.00 KCAL/MOL
REMARK 927      BINDING AFFINITY PREDICTED BY RF-SCORE:    0.00 PKD
ROOT
HETATM    1  C   UNK A   0      -6.671  17.517  65.714  1.00  0.00    -0.038 C  
HETATM    2  N   UNK A   0      -8.035  17.377  66.202  1.00  0.00    -0.465 NA 
HETATM    3  C   UNK A   0      -8.802  16.163  65.799  1.00  0.00     0.034 C  
HETATM    4  O   UNK A   0      -6.677  19.542  67.648  1.00  0.00    -0.215 OA 
HETATM    5  C   UNK A   0     -10.268  16.583  65.520  1.00  0.00    -0.234 C  
HETATM    6  C   UNK A   0      -9.749  19.785  69.124  1.00  0.00    -0.244 C  
HETATM    7  N   UNK A   0     -10.822  17.378  66.629  1.00  0.00    -0.057 NA 
HETATM    8  H   UNK A   0     -11.811  17.303  66.868  1.00  0.00     0.000 HD 
HETATM    9  H2  UNK A   0      -9.917  20.959  70.804  1.00  0.00     0.000 HD 
HETATM   10  C   UNK A   0      -9.991  18.234  67.348  1.00  0.00    -0.334 C  
HETATM   11  H   UNK A   0      -7.949  20.538  69.623  1.00  0.00     0.000 HD 
HETATM   12  C   UNK A   0      -8.655  18.280  67.109  1.00  0.00    -0.248 C  
HETATM   13  H1  UNK A   0     -11.428  20.240  70.258  1.00  0.00     0.000 HD 
HETATM   14  C   UNK A   0      -7.854  19.315  67.918  1.00  0.00    -0.289 C  
HETATM   15  N   UNK A   0     -10.523  19.016  68.330  1.00  0.00    -0.385 NA 
HETATM   16  N   UNK A   0     -10.423  20.372  70.141  1.00  0.00    -0.461 NA 
HETATM   17  N   UNK A   0      -8.479  19.952  68.977  1.00  0.00    -0.049 N  
ENDROOT
BRANCH   3  18
HETATM   18  C   UNK A   0      -8.722  15.079  66.909  1.00  0.00    -0.256 C  
BRANCH  18  19
HETATM   19  N   UNK A   0      -9.298  13.797  66.457  1.00  0.00    -0.380 NA 
HETATM   20  H   UNK A   0      -9.675  13.685  65.516  1.00  0.00     0.000 HD 
BRANCH  19  21
HETATM   21  C   UNK A   0      -9.302  12.742  67.380  1.00  0.00    -0.193 A  
HETATM   22  C   UNK A   0     -10.625  11.196  68.722  1.00  0.00    -0.233 A  
HETATM   23  C   UNK A   0      -9.455  10.590  69.182  1.00  0.00    -0.205 A  
HETATM   24  C   UNK A   0      -8.142  12.212  67.952  1.00  0.00    -0.153 A  
HETATM   25  C   UNK A   0     -10.541  12.273  67.835  1.00  0.00    -0.232 A  
HETATM   26  C   UNK A   0      -8.212  11.133  68.837  1.00  0.00    -0.104 A  
BRANCH  23  27
HETATM   27  C   UNK A   0      -9.544   9.386  70.047  1.00  0.00    -0.226 C  
ATOM     28  H   GLU A   1      -7.987   8.492  68.986  1.00  0.00     0.000 HD 
ATOM     29  N   GLU A   1      -8.669   8.358  69.733  1.00  0.00    -0.132 N  
HETATM   30  O   UNK A   0     -10.326   9.336  70.983  1.00  0.00    -0.269 OA 
BRANCH  29  31
ATOM     31  CA  GLU A   1      -8.705   7.070  70.458  1.00  0.00    -0.153 C  
ATOM     32  C   GLU A   1      -7.272   6.509  70.609  1.00  0.00    -0.074 C  
ATOM     33  O   GLU A   1      -6.324   7.243  69.981  1.00  0.00    -0.027 OA 
ATOM     34  OXT GLU A   1      -6.996   5.470  71.195  1.00  0.00    -0.060 OA 
BRANCH  31  35
ATOM     35  CB  GLU A   1      -9.617   6.076  69.715  1.00  0.00    -0.180 C  
BRANCH  35  36
ATOM     36  CG  GLU A   1      -9.712   6.338  68.207  1.00  0.00    -0.122 C  
ATOM     37  CD  GLU A   1      -8.766   5.479  67.405  1.00  0.00    -0.107 C  
ATOM     38  OE2 GLU A   1      -7.977   4.674  67.872  1.00  0.00    -0.088 OA 
ATOM     39  OE1 GLU A   1      -8.894   5.694  66.071  1.00  0.00    -0.138 OA 
ENDBRANCH  35  36
ENDBRANCH  31  35
ENDBRANCH  29  31
ENDBRANCH  23  27
ENDBRANCH  19  21
ENDBRANCH  18  19
ENDBRANCH   3  18
TORSDOF 7
ENDMDL
MODEL      207
REMARK 921   NORMALIZED FREE ENERGY PREDICTED BY IDOCK:   -4.31 KCAL/MOL
REMARK 922        TOTAL FREE ENERGY PREDICTED BY IDOCK:   -7.30 KCAL/MOL
REMARK 923 INTER-LIGAND FREE ENERGY PREDICTED BY IDOCK:   -6.17 KCAL/MOL
REMARK 924 INTRA-LIGAND FREE ENERGY PREDICTED BY IDOCK:   -1.13 KCAL/MOL
REMARK 927      BINDING AFFINITY PREDICTED BY RF-SCORE:    0.00 PKD
ROOT
HETATM    1  C   UNK A   0      -7.108  16.884  69.056  1.00  0.00    -0.232 C  
HETATM    2  N   UNK A   0      -8.433  17.189  68.539  1.00  0.00    -0.255 NA 
HETATM    3  C   UNK A   0      -8.529  17.972  67.273  1.00  0.00    -0.234 C  
HETATM    4  O   UNK A   0      -8.633  15.178  70.669  1.00  0.00     0.984 OA 
HETATM    5  C   UNK A   0      -9.711  18.966  67.402  1.00  0.00    -0.312 C  
HETATM    6  C   UNK A   0     -11.961  15.525  69.976  1.00  0.00    -0.364 C  
HETATM    7  N   UNK A   0     -10.939  18.288  67.855  1.00  0.00    -0.192 NA 
HETATM    8  H   UNK A   0     -11.850  18.605  67.525  1.00  0.00     0.000 HD 
HETATM    9  H2  UNK A   0     -13.258  14.147  70.780  1.00  0.00     0.000 HD 
HETATM   10  C   UNK A   0     -10.849  17.213  68.737  1.00  0.00    -0.211 C  
HETATM   11  H   UNK A   0     -10.936  14.133  71.009  1.00  0.00     0.000 HD 
HETATM   12  C   UNK A   0      -9.644  16.714  69.115  1.00  0.00    -0.208 C  
HETATM   13  H1  UNK A   0     -14.031  15.428  69.850  1.00  0.00     0.000 HD 
HETATM   14  C   UNK A   0      -9.673  15.573  70.147  1.00  0.00     0.115 C  
HETATM   15  N   UNK A   0     -11.991  16.632  69.203  1.00  0.00     0.039 NA 
HETATM   16  N   UNK A   0     -13.183  14.996  70.218  1.00  0.00    -0.638 NA 
HETATM   17  N   UNK A   0     -10.889  14.980  70.440  1.00  0.00    -0.472 N  
ENDROOT
BRANCH   3  18
HETATM   18  C   UNK A   0      -8.715  17.021  66.060  1.00  0.00    -0.132 C  
BRANCH  18  19
HETATM   19  N   UNK A   0      -7.931  15.780  66.218  1.00  0.00    -0.221 NA 
HETATM   20  H   UNK A   0      -6.934  15.749  66.007  1.00  0.00     0.000 HD 
BRANCH  19  21
HETATM   21  C   UNK A   0      -8.621  14.645  66.671  1.00  0.00    -0.094 A  
HETATM   22  C   UNK A   0     -10.730  13.429  66.764  1.00  0.00    -0.277 A  
HETATM   23  C   UNK A   0     -10.106  12.395  67.462  1.00  0.00    -0.205 A  
HETATM   24  C   UNK A   0      -8.044  13.665  67.484  1.00  0.00    -0.190 A  
HETATM   25  C   UNK A   0      -9.988  14.551  66.384  1.00  0.00    -0.304 A  
HETATM   26  C   UNK A   0      -8.775  12.538  67.868  1.00  0.00    -0.180 A  
BRANCH  23  27
HETATM   27  C   UNK A   0     -10.869  11.162  67.783  1.00  0.00    -0.239 C  
ATOM     28  H   GLU A   1      -9.090  10.143  68.161  1.00  0.00     0.000 HD 
ATOM     29  N   GLU A   1     -10.104  10.052  68.103  1.00  0.00    -0.153 N  
HETATM   30  O   UNK A   0     -12.090  11.155  67.783  1.00  0.00    -0.606 OA 
BRANCH  29  31
ATOM     31  CA  GLU A   1     -10.729   8.737  68.363  1.00  0.00    -0.062 C  
ATOM     32  C   GLU A   1     -10.488   8.319  69.833  1.00  0.00    -0.223 C  
ATOM     33  O   GLU A   1      -9.699   9.172  70.525  1.00  0.00    -0.199 OA 
ATOM     34  OXT GLU A   1     -10.918   7.290  70.337  1.00  0.00    -0.241 OA 
BRANCH  31  35
ATOM     35  CB  GLU A   1     -10.166   7.688  67.386  1.00  0.00    -0.320 C  
BRANCH  35  36
ATOM     36  CG  GLU A   1      -8.990   8.199  66.546  1.00  0.00    -0.191 C  
ATOM     37  CD  GLU A   1      -8.413   7.138  65.642  1.00  0.00    -0.134 C  
ATOM     38  OE2 GLU A   1      -8.795   5.981  65.580  1.00  0.00    -0.156 OA 
ATOM     39  OE1 GLU A   1      -7.402   7.621  64.877  1.00  0.00    -0.067 OA 
ENDBRANCH  35  36
ENDBRANCH  31  35
ENDBRANCH  29  31
ENDBRANCH  23  27
ENDBRANCH  19  21
ENDBRANCH  18  19
ENDBRANCH   3  18
TORSDOF 7
ENDMDL
MODEL      208
REMARK 921   NORMALIZED FREE ENERGY PREDICTED BY IDOCK:   -4.27 KCAL/MOL
REMARK 922        TOTAL FREE ENERGY PREDICTED BY IDOCK:   -7.25 KCAL/MOL
REMARK 923 INTER-LIGAND FREE ENERGY PREDICTED BY IDOCK:   -5.81 KCAL/MOL
REMARK 924 INTRA-LIGAND FREE ENERGY PREDICTED BY IDOCK:   -1.45 KCAL/MOL
REMARK 927      BINDING AFFINITY PREDICTED BY RF-SCORE:    0.00 PKD
ROOT
HETATM    1  C   UNK A   0     -10.961  15.953  67.570  1.00  0.00    -0.280 C  
HETATM    2  N   UNK A   0     -11.193  14.568  67.189  1.00  0.00    -0.321 NA 
HETATM    3  C   UNK A   0     -10.769  14.135  65.827  1.00  0.00    -0.299 C  
HETATM    4  O   UNK A   0     -11.606  14.890  70.079  1.00  0.00    -0.259 OA 
HETATM    5  C   UNK A   0     -11.841  13.166  65.267  1.00  0.00    -0.365 C  
HETATM    6  C   UNK A   0     -12.380  11.573  69.815  1.00  0.00    -0.155 C  
HETATM    7  N   UNK A   0     -12.160  12.099  66.231  1.00  0.00    -0.589 NA 
HETATM    8  H   UNK A   0     -12.402  11.165  65.899  1.00  0.00     0.000 HD 
HETATM    9  H2  UNK A   0     -12.557  10.487  71.552  1.00  0.00     0.000 HD 
HETATM   10  C   UNK A   0     -12.130  12.370  67.597  1.00  0.00    -0.006 C  
HETATM   11  H   UNK A   0     -11.969  12.740  71.403  1.00  0.00     0.000 HD 
HETATM   12  C   UNK A   0     -11.719  13.577  68.064  1.00  0.00    -0.359 C  
HETATM   13  H1  UNK A   0     -12.896   9.579  70.083  1.00  0.00     0.000 HD 
HETATM   14  C   UNK A   0     -11.797  13.780  69.587  1.00  0.00    -0.333 C  
HETATM   15  N   UNK A   0     -12.490  11.397  68.481  1.00  0.00    -0.285 NA 
HETATM   16  N   UNK A   0     -12.633  10.454  70.535  1.00  0.00    -0.431 NA 
HETATM   17  N   UNK A   0     -12.046  12.679  70.387  1.00  0.00    -0.469 N  
ENDROOT
BRANCH   3  18
HETATM   18  C   UNK A   0      -9.369  13.464  65.882  1.00  0.00     0.079 C  
BRANCH  18  19
HETATM   19  N   UNK A   0      -9.214  12.444  64.826  1.00  0.00    -0.129 NA 
HETATM   20  H   UNK A   0      -9.452  12.643  63.854  1.00  0.00     0.000 HD 
BRANCH  19  21
HETATM   21  C   UNK A   0      -8.726  11.190  65.220  1.00  0.00    -0.026 A  
HETATM   22  C   UNK A   0      -8.388   9.598  67.034  1.00  0.00    -0.117 A  
HETATM   23  C   UNK A   0      -7.845   8.682  66.132  1.00  0.00    -0.098 A  
HETATM   24  C   UNK A   0      -8.059  10.316  64.357  1.00  0.00    -0.149 A  
HETATM   25  C   UNK A   0      -8.814  10.848  66.576  1.00  0.00    -0.169 A  
HETATM   26  C   UNK A   0      -7.632   9.062  64.803  1.00  0.00    -0.105 A  
BRANCH  23  27
HETATM   27  C   UNK A   0      -7.481   7.321  66.600  1.00  0.00    -0.088 C  
ATOM     28  H   GLU A   1      -7.440   6.640  64.630  1.00  0.00     0.000 HD 
ATOM     29  N   GLU A   1      -7.347   6.363  65.607  1.00  0.00    -0.077 N  
HETATM   30  O   UNK A   0      -7.294   7.086  67.784  1.00  0.00    -0.091 OA 
BRANCH  29  31
ATOM     31  CA  GLU A   1      -7.069   4.948  65.936  1.00  0.00    -0.068 C  
ATOM     32  C   GLU A   1      -5.915   4.418  65.053  1.00  0.00    -0.022 C  
ATOM     33  O   GLU A   1      -5.479   5.302  64.127  1.00  0.00    -0.012 OA 
ATOM     34  OXT GLU A   1      -5.452   3.287  65.129  1.00  0.00    -0.009 OA 
BRANCH  31  35
ATOM     35  CB  GLU A   1      -8.345   4.108  65.749  1.00  0.00    -0.109 C  
BRANCH  35  36
ATOM     36  CG  GLU A   1      -8.793   3.986  64.288  1.00  0.00    -0.130 C  
ATOM     37  CD  GLU A   1      -9.326   2.616  63.952  1.00  0.00    -0.113 C  
ATOM     38  OE2 GLU A   1      -9.382   1.673  64.724  1.00  0.00    -0.132 OA 
ATOM     39  OE1 GLU A   1      -9.756   2.541  62.667  1.00  0.00    -0.089 OA 
ENDBRANCH  35  36
ENDBRANCH  31  35
ENDBRANCH  29  31
ENDBRANCH  23  27
ENDBRANCH  19  21
ENDBRANCH  18  19
ENDBRANCH   3  18
TORSDOF 7
ENDMDL
MODEL      209
REMARK 921   NORMALIZED FREE ENERGY PREDICTED BY IDOCK:   -4.26 KCAL/MOL
REMARK 922        TOTAL FREE ENERGY PREDICTED BY IDOCK:   -7.24 KCAL/MOL
REMARK 923 INTER-LIGAND FREE ENERGY PREDICTED BY IDOCK:   -7.60 KCAL/MOL
REMARK 924 INTRA-LIGAND FREE ENERGY PREDICTED BY IDOCK:    0.36 KCAL/MOL
REMARK 927      BINDING AFFINITY PREDICTED BY RF-SCORE:    0.00 PKD
ROOT
HETATM    1  C   UNK A   0      -9.114  16.101  65.910  1.00  0.00    -0.233 C  
HETATM    2  N   UNK A   0      -9.296  17.088  66.964  1.00  0.00    -0.235 NA 
HETATM    3  C   UNK A   0     -10.677  17.322  67.474  1.00  0.00    -0.278 C  
HETATM    4  O   UNK A   0      -6.439  16.488  66.641  1.00  0.00    -0.258 OA 
HETATM    5  C   UNK A   0     -10.850  18.841  67.734  1.00  0.00    -0.269 C  
HETATM    6  C   UNK A   0      -6.195  18.857  69.091  1.00  0.00    -0.263 C  
HETATM    7  N   UNK A   0      -9.745  19.378  68.546  1.00  0.00    -0.395 NA 
HETATM    8  H   UNK A   0      -9.917  20.134  69.209  1.00  0.00     0.000 HD 
HETATM    9  H2  UNK A   0      -4.381  19.078  70.035  1.00  0.00     0.000 HD 
HETATM   10  C   UNK A   0      -8.464  18.849  68.405  1.00  0.00    -0.350 C  
HETATM   11  H   UNK A   0      -4.879  17.506  68.384  1.00  0.00     0.000 HD 
HETATM   12  C   UNK A   0      -8.230  17.781  67.601  1.00  0.00    -0.230 C  
HETATM   13  H1  UNK A   0      -5.625  20.208  70.562  1.00  0.00     0.000 HD 
HETATM   14  C   UNK A   0      -6.763  17.333  67.473  1.00  0.00    -0.148 C  
HETATM   15  N   UNK A   0      -7.432  19.394  69.112  1.00  0.00    -0.345 NA 
HETATM   16  N   UNK A   0      -5.336  19.431  69.967  1.00  0.00    -0.203 NA 
HETATM   17  N   UNK A   0      -5.830  17.875  68.340  1.00  0.00    -0.170 N  
ENDROOT
BRANCH   3  18
HETATM   18  C   UNK A   0     -10.928  16.492  68.762  1.00  0.00    -0.330 C  
BRANCH  18  19
HETATM   19  N   UNK A   0     -11.857  15.372  68.514  1.00  0.00    -0.506 NA 
HETATM   20  H   UNK A   0     -12.837  15.534  68.282  1.00  0.00     0.000 HD 
BRANCH  19  21
HETATM   21  C   UNK A   0     -11.331  14.076  68.613  1.00  0.00    -0.276 A  
HETATM   22  C   UNK A   0      -9.629  12.491  67.882  1.00  0.00    -0.206 A  
HETATM   23  C   UNK A   0     -10.140  11.535  68.761  1.00  0.00    -0.191 A  
HETATM   24  C   UNK A   0     -11.909  13.065  69.387  1.00  0.00    -0.380 A  
HETATM   25  C   UNK A   0     -10.234  13.749  67.805  1.00  0.00    -0.241 A  
HETATM   26  C   UNK A   0     -11.312  11.805  69.474  1.00  0.00    -0.317 A  
BRANCH  23  27
HETATM   27  C   UNK A   0      -9.441  10.233  68.913  1.00  0.00    -0.188 C  
ATOM     28  H   GLU A   1     -10.180  10.049  70.854  1.00  0.00     0.000 HD 
ATOM     29  N   GLU A   1      -9.578   9.622  70.149  1.00  0.00    -0.243 N  
HETATM   30  O   UNK A   0      -8.813   9.739  67.990  1.00  0.00    -0.119 OA 
BRANCH  29  31
ATOM     31  CA  GLU A   1      -8.869   8.364  70.468  1.00  0.00    -0.148 C  
ATOM     32  C   GLU A   1      -7.472   8.678  71.052  1.00  0.00    -0.090 C  
ATOM     33  O   GLU A   1      -7.162   9.995  71.059  1.00  0.00    -0.300 OA 
ATOM     34  OXT GLU A   1      -6.677   7.829  71.434  1.00  0.00    -0.044 OA 
BRANCH  31  35
ATOM     35  CB  GLU A   1      -8.761   7.490  69.205  1.00  0.00    -0.136 C  
BRANCH  35  36
ATOM     36  CG  GLU A   1      -8.787   5.984  69.495  1.00  0.00    -0.125 C  
ATOM     37  CD  GLU A   1      -9.347   5.179  68.349  1.00  0.00    -0.122 C  
ATOM     38  OE2 GLU A   1      -9.771   5.641  67.303  1.00  0.00    -0.123 OA 
ATOM     39  OE1 GLU A   1      -9.321   3.847  68.607  1.00  0.00    -0.144 OA 
ENDBRANCH  35  36
ENDBRANCH  31  35
ENDBRANCH  29  31
ENDBRANCH  23  27
ENDBRANCH  19  21
ENDBRANCH  18  19
ENDBRANCH   3  18
TORSDOF 7
ENDMDL
MODEL      210
REMARK 921   NORMALIZED FREE ENERGY PREDICTED BY IDOCK:   -4.26 KCAL/MOL
REMARK 922        TOTAL FREE ENERGY PREDICTED BY IDOCK:   -7.23 KCAL/MOL
REMARK 923 INTER-LIGAND FREE ENERGY PREDICTED BY IDOCK:   -5.75 KCAL/MOL
REMARK 924 INTRA-LIGAND FREE ENERGY PREDICTED BY IDOCK:   -1.49 KCAL/MOL
REMARK 927      BINDING AFFINITY PREDICTED BY RF-SCORE:    0.00 PKD
ROOT
HETATM    1  C   UNK A   0      -8.693   4.154  69.353  1.00  0.00    -0.084 C  
HETATM    2  N   UNK A   0      -8.321   5.507  69.740  1.00  0.00    -0.104 NA 
HETATM    3  C   UNK A   0      -7.057   6.072  69.185  1.00  0.00    -0.070 C  
HETATM    4  O   UNK A   0     -11.097   4.970  70.534  1.00  0.00     0.187 OA 
HETATM    5  C   UNK A   0      -6.362   6.896  70.299  1.00  0.00    -0.039 C  
HETATM    6  C   UNK A   0     -10.811   8.142  71.771  1.00  0.00    -0.256 C  
HETATM    7  N   UNK A   0      -7.294   7.849  70.926  1.00  0.00    -0.056 NA 
HETATM    8  H   UNK A   0      -6.956   8.752  71.258  1.00  0.00     0.000 HD 
HETATM    9  H2  UNK A   0     -12.530   9.093  72.381  1.00  0.00     0.000 HD 
HETATM   10  C   UNK A   0      -8.639   7.512  71.062  1.00  0.00    -0.132 C  
HETATM   11  H   UNK A   0     -12.410   6.966  71.429  1.00  0.00     0.000 HD 
HETATM   12  C   UNK A   0      -9.129   6.358  70.542  1.00  0.00    -0.155 C  
HETATM   13  H1  UNK A   0     -11.052  10.017  72.630  1.00  0.00     0.000 HD 
HETATM   14  C   UNK A   0     -10.614   6.063  70.820  1.00  0.00    -0.255 C  
HETATM   15  N   UNK A   0      -9.483   8.371  71.702  1.00  0.00    -0.191 NA 
HETATM   16  N   UNK A   0     -11.515   9.169  72.304  1.00  0.00    -0.183 NA 
HETATM   17  N   UNK A   0     -11.397   7.070  71.359  1.00  0.00    -0.255 N  
ENDROOT
BRANCH   3  18
HETATM   18  C   UNK A   0      -7.355   6.942  67.935  1.00  0.00    -0.097 C  
BRANCH  18  19
HETATM   19  N   UNK A   0      -6.746   8.282  68.048  1.00  0.00    -0.064 NA 
HETATM   20  H   UNK A   0      -5.787   8.405  68.375  1.00  0.00     0.000 HD 
BRANCH  19  21
HETATM   21  C   UNK A   0      -7.545   9.377  67.687  1.00  0.00    -0.088 A  
HETATM   22  C   UNK A   0      -8.180  10.970  65.956  1.00  0.00    -0.129 A  
HETATM   23  C   UNK A   0      -9.128  11.528  66.815  1.00  0.00    -0.184 A  
HETATM   24  C   UNK A   0      -8.402  10.032  68.576  1.00  0.00    -0.113 A  
HETATM   25  C   UNK A   0      -7.388   9.908  66.401  1.00  0.00    -0.101 A  
HETATM   26  C   UNK A   0      -9.202  11.093  68.142  1.00  0.00    -0.166 A  
BRANCH  23  27
HETATM   27  C   UNK A   0     -10.035  12.591  66.313  1.00  0.00    -0.252 C  
ATOM     28  H   GLU A   1      -9.567  13.785  67.957  1.00  0.00     0.000 HD 
ATOM     29  N   GLU A   1     -10.142  13.715  67.117  1.00  0.00    -0.242 N  
HETATM   30  O   UNK A   0     -10.620  12.475  65.248  1.00  0.00    -0.276 OA 
BRANCH  29  31
ATOM     31  CA  GLU A   1     -11.072  14.815  66.782  1.00  0.00    -0.338 C  
ATOM     32  C   GLU A   1     -10.288  16.140  66.629  1.00  0.00    -0.296 C  
ATOM     33  O   GLU A   1      -8.971  16.037  66.920  1.00  0.00    -0.200 OA 
ATOM     34  OXT GLU A   1     -10.797  17.210  66.324  1.00  0.00    -0.134 OA 
BRANCH  31  35
ATOM     35  CB  GLU A   1     -12.157  14.932  67.868  1.00  0.00    -0.089 C  
BRANCH  35  36
ATOM     36  CG  GLU A   1     -11.904  14.039  69.089  1.00  0.00    -0.391 C  
ATOM     37  CD  GLU A   1     -12.577  14.553  70.337  1.00  0.00    -0.346 C  
ATOM     38  OE2 GLU A   1     -13.233  15.578  70.413  1.00  0.00    -0.315 OA 
ATOM     39  OE1 GLU A   1     -12.377  13.728  71.396  1.00  0.00    -0.333 OA 
ENDBRANCH  35  36
ENDBRANCH  31  35
ENDBRANCH  29  31
ENDBRANCH  23  27
ENDBRANCH  19  21
ENDBRANCH  18  19
ENDBRANCH   3  18
TORSDOF 7
ENDMDL
MODEL      211
REMARK 921   NORMALIZED FREE ENERGY PREDICTED BY IDOCK:   -4.19 KCAL/MOL
REMARK 922        TOTAL FREE ENERGY PREDICTED BY IDOCK:   -7.14 KCAL/MOL
REMARK 923 INTER-LIGAND FREE ENERGY PREDICTED BY IDOCK:   -6.34 KCAL/MOL
REMARK 924 INTRA-LIGAND FREE ENERGY PREDICTED BY IDOCK:   -0.80 KCAL/MOL
REMARK 927      BINDING AFFINITY PREDICTED BY RF-SCORE:    0.00 PKD
ROOT
HETATM    1  C   UNK A   0     -10.088   9.481  69.858  1.00  0.00    -0.232 C  
HETATM    2  N   UNK A   0     -10.536  10.832  69.558  1.00  0.00    -0.354 NA 
HETATM    3  C   UNK A   0     -10.113  11.439  68.263  1.00  0.00    -0.196 C  
HETATM    4  O   UNK A   0     -12.020   9.780  71.863  1.00  0.00    -0.365 OA 
HETATM    5  C   UNK A   0      -9.790  12.935  68.508  1.00  0.00    -0.144 C  
HETATM    6  C   UNK A   0     -13.405  12.901  71.740  1.00  0.00    -0.359 C  
HETATM    7  N   UNK A   0     -10.881  13.612  69.231  1.00  0.00    -0.422 NA 
HETATM    8  H   UNK A   0     -11.092  14.591  69.039  1.00  0.00     0.000 HD 
HETATM    9  H2  UNK A   0     -15.078  13.255  72.883  1.00  0.00     0.000 HD 
HETATM   10  C   UNK A   0     -11.624  12.908  70.176  1.00  0.00    -0.054 C  
HETATM   11  H   UNK A   0     -13.955  11.217  72.698  1.00  0.00     0.000 HD 
HETATM   12  C   UNK A   0     -11.424  11.580  70.379  1.00  0.00     0.028 C  
HETATM   13  H1  UNK A   0     -14.488  14.655  71.993  1.00  0.00     0.000 HD 
HETATM   14  C   UNK A   0     -12.255  10.930  71.499  1.00  0.00    -0.150 C  
HETATM   15  N   UNK A   0     -12.589  13.556  70.888  1.00  0.00    -0.352 NA 
HETATM   16  N   UNK A   0     -14.401  13.670  72.242  1.00  0.00    -0.595 NA 
HETATM   17  N   UNK A   0     -13.294  11.656  72.056  1.00  0.00    -0.500 N  
ENDROOT
BRANCH   3  18
HETATM   18  C   UNK A   0     -11.225  11.266  67.193  1.00  0.00    -0.275 C  
BRANCH  18  19
HETATM   19  N   UNK A   0     -10.707  10.617  65.973  1.00  0.00    -0.118 NA 
HETATM   20  H   UNK A   0     -10.778  11.065  65.059  1.00  0.00     0.000 HD 
BRANCH  19  21
HETATM   21  C   UNK A   0     -10.113   9.355  66.126  1.00  0.00    -0.254 A  
HETATM   22  C   UNK A   0      -8.199   7.919  65.665  1.00  0.00    -0.137 A  
HETATM   23  C   UNK A   0      -8.785   6.895  66.410  1.00  0.00    -0.147 A  
HETATM   24  C   UNK A   0     -10.744   8.277  66.754  1.00  0.00    -0.072 A  
HETATM   25  C   UNK A   0      -8.871   9.136  65.518  1.00  0.00    -0.229 A  
HETATM   26  C   UNK A   0     -10.082   7.057  66.910  1.00  0.00    -0.296 A  
BRANCH  23  27
HETATM   27  C   UNK A   0      -8.032   5.637  66.646  1.00  0.00    -0.101 C  
ATOM     28  H   GLU A   1      -8.796   5.528  68.583  1.00  0.00     0.000 HD 
ATOM     29  N   GLU A   1      -8.163   5.091  67.913  1.00  0.00    -0.097 N  
HETATM   30  O   UNK A   0      -7.366   5.122  65.762  1.00  0.00    -0.074 OA 
BRANCH  29  31
ATOM     31  CA  GLU A   1      -7.404   3.886  68.313  1.00  0.00    -0.059 C  
ATOM     32  C   GLU A   1      -8.093   2.618  67.756  1.00  0.00    -0.067 C  
ATOM     33  O   GLU A   1      -9.263   2.862  67.121  1.00  0.00    -0.170 OA 
ATOM     34  OXT GLU A   1      -7.669   1.481  67.905  1.00  0.00    -0.056 OA 
BRANCH  31  35
ATOM     35  CB  GLU A   1      -7.286   3.828  69.847  1.00  0.00    -0.042 C  
BRANCH  35  36
ATOM     36  CG  GLU A   1      -8.615   4.066  70.576  1.00  0.00    -0.106 C  
ATOM     37  CD  GLU A   1      -8.435   4.746  71.910  1.00  0.00    -0.119 C  
ATOM     38  OE2 GLU A   1      -7.364   5.060  72.403  1.00  0.00    -0.086 OA 
ATOM     39  OE1 GLU A   1      -9.623   4.987  72.520  1.00  0.00    -0.144 OA 
ENDBRANCH  35  36
ENDBRANCH  31  35
ENDBRANCH  29  31
ENDBRANCH  23  27
ENDBRANCH  19  21
ENDBRANCH  18  19
ENDBRANCH   3  18
TORSDOF 7
ENDMDL
MODEL      212
REMARK 921   NORMALIZED FREE ENERGY PREDICTED BY IDOCK:   -4.17 KCAL/MOL
REMARK 922        TOTAL FREE ENERGY PREDICTED BY IDOCK:   -7.10 KCAL/MOL
REMARK 923 INTER-LIGAND FREE ENERGY PREDICTED BY IDOCK:   -5.88 KCAL/MOL
REMARK 924 INTRA-LIGAND FREE ENERGY PREDICTED BY IDOCK:   -1.22 KCAL/MOL
REMARK 927      BINDING AFFINITY PREDICTED BY RF-SCORE:    0.00 PKD
ROOT
HETATM    1  C   UNK A   0     -12.245  15.370  68.172  1.00  0.00     0.304 C  
HETATM    2  N   UNK A   0     -11.146  15.272  67.223  1.00  0.00    -0.332 NA 
HETATM    3  C   UNK A   0      -9.872  15.975  67.550  1.00  0.00    -0.235 C  
HETATM    4  O   UNK A   0     -13.230  13.320  66.540  1.00  0.00     0.494 OA 
HETATM    5  C   UNK A   0      -9.304  16.587  66.244  1.00  0.00    -0.302 C  
HETATM    6  C   UNK A   0     -11.067  12.682  63.974  1.00  0.00    -0.405 C  
HETATM    7  N   UNK A   0      -9.250  15.590  65.160  1.00  0.00     0.027 NA 
HETATM    8  H   UNK A   0      -8.500  15.626  64.469  1.00  0.00     0.000 HD 
HETATM    9  H2  UNK A   0     -11.395  11.000  62.837  1.00  0.00     0.000 HD 
HETATM   10  C   UNK A   0     -10.227  14.600  65.084  1.00  0.00    -0.382 C  
HETATM   11  H   UNK A   0     -12.646  11.660  64.693  1.00  0.00     0.000 HD 
HETATM   12  C   UNK A   0     -11.178  14.476  66.045  1.00  0.00    -0.337 C  
HETATM   13  H1  UNK A   0     -10.037  11.988  62.309  1.00  0.00     0.000 HD 
HETATM   14  C   UNK A   0     -12.243  13.390  65.812  1.00  0.00    -0.458 C  
HETATM   15  N   UNK A   0     -10.209  13.721  64.042  1.00  0.00    -0.568 NA 
HETATM   16  N   UNK A   0     -10.808  11.825  62.957  1.00  0.00    -0.675 NA 
HETATM   17  N   UNK A   0     -12.041  12.476  64.793  1.00  0.00    -0.417 N  
ENDROOT
BRANCH   3  18
HETATM   18  C   UNK A   0      -8.863  14.994  68.204  1.00  0.00    -0.167 C  
BRANCH  18  19
HETATM   19  N   UNK A   0      -7.825  14.564  67.247  1.00  0.00    -0.263 NA 
HETATM   20  H   UNK A   0      -7.316  15.238  66.674  1.00  0.00     0.000 HD 
BRANCH  19  21
HETATM   21  C   UNK A   0      -7.570  13.188  67.160  1.00  0.00     0.006 A  
HETATM   22  C   UNK A   0      -8.491  10.939  66.970  1.00  0.00    -0.134 A  
HETATM   23  C   UNK A   0      -7.200  10.412  66.919  1.00  0.00    -0.099 A  
HETATM   24  C   UNK A   0      -6.289  12.633  67.242  1.00  0.00    -0.099 A  
HETATM   25  C   UNK A   0      -8.668  12.320  67.102  1.00  0.00    -0.193 A  
HETATM   26  C   UNK A   0      -6.100  11.255  67.108  1.00  0.00    -0.091 A  
BRANCH  23  27
HETATM   27  C   UNK A   0      -7.011   8.958  66.683  1.00  0.00    -0.080 C  
ATOM     28  H   GLU A   1      -8.994   8.788  66.062  1.00  0.00     0.000 HD 
ATOM     29  N   GLU A   1      -8.135   8.272  66.251  1.00  0.00    -0.106 N  
HETATM   30  O   UNK A   0      -5.924   8.427  66.843  1.00  0.00    -0.050 OA 
BRANCH  29  31
ATOM     31  CA  GLU A   1      -8.112   6.806  66.056  1.00  0.00    -0.119 C  
ATOM     32  C   GLU A   1      -7.895   6.475  64.561  1.00  0.00    -0.112 C  
ATOM     33  O   GLU A   1      -7.867   7.562  63.755  1.00  0.00    -0.121 OA 
ATOM     34  OXT GLU A   1      -7.803   5.340  64.112  1.00  0.00    -0.087 OA 
BRANCH  31  35
ATOM     35  CB  GLU A   1      -9.423   6.189  66.578  1.00  0.00    -0.178 C  
BRANCH  35  36
ATOM     36  CG  GLU A   1     -10.417   7.224  67.118  1.00  0.00    -0.394 C  
ATOM     37  CD  GLU A   1     -10.218   7.516  68.584  1.00  0.00    -0.197 C  
ATOM     38  OE2 GLU A   1      -9.387   6.986  69.302  1.00  0.00    -0.146 OA 
ATOM     39  OE1 GLU A   1     -11.079   8.465  69.033  1.00  0.00     0.039 OA 
ENDBRANCH  35  36
ENDBRANCH  31  35
ENDBRANCH  29  31
ENDBRANCH  23  27
ENDBRANCH  19  21
ENDBRANCH  18  19
ENDBRANCH   3  18
TORSDOF 7
ENDMDL
MODEL      213
REMARK 921   NORMALIZED FREE ENERGY PREDICTED BY IDOCK:   -4.15 KCAL/MOL
REMARK 922        TOTAL FREE ENERGY PREDICTED BY IDOCK:   -7.08 KCAL/MOL
REMARK 923 INTER-LIGAND FREE ENERGY PREDICTED BY IDOCK:   -6.28 KCAL/MOL
REMARK 924 INTRA-LIGAND FREE ENERGY PREDICTED BY IDOCK:   -0.80 KCAL/MOL
REMARK 927      BINDING AFFINITY PREDICTED BY RF-SCORE:    0.00 PKD
ROOT
HETATM    1  C   UNK A   0      -7.087  16.564  66.096  1.00  0.00     0.407 C  
HETATM    2  N   UNK A   0      -8.505  16.814  66.308  1.00  0.00    -0.343 NA 
HETATM    3  C   UNK A   0      -9.477  15.787  65.832  1.00  0.00    -0.342 C  
HETATM    4  O   UNK A   0      -6.912  18.725  67.867  1.00  0.00    -0.217 OA 
HETATM    5  C   UNK A   0     -10.708  16.519  65.240  1.00  0.00    -0.254 C  
HETATM    6  C   UNK A   0     -10.028  19.867  68.681  1.00  0.00    -0.384 C  
HETATM    7  N   UNK A   0     -11.226  17.540  66.167  1.00  0.00     0.558 NA 
HETATM    8  H   UNK A   0     -12.226  17.734  66.207  1.00  0.00     0.000 HD 
HETATM    9  H2  UNK A   0     -10.182  21.222  70.220  1.00  0.00     0.000 HD 
HETATM   10  C   UNK A   0     -10.343  18.240  66.986  1.00  0.00    -0.389 C  
HETATM   11  H   UNK A   0      -8.214  20.208  69.485  1.00  0.00     0.000 HD 
HETATM   12  C   UNK A   0      -9.021  17.933  67.017  1.00  0.00    -0.250 C  
HETATM   13  H1  UNK A   0     -11.706  20.838  69.426  1.00  0.00     0.000 HD 
HETATM   14  C   UNK A   0      -8.137  18.823  67.908  1.00  0.00    -0.261 C  
HETATM   15  N   UNK A   0     -10.820  19.230  67.794  1.00  0.00    -0.382 NA 
HETATM   16  N   UNK A   0     -10.697  20.708  69.505  1.00  0.00    -0.105 NA 
HETATM   17  N   UNK A   0      -8.753  19.703  68.781  1.00  0.00    -0.296 N  
ENDROOT
BRANCH   3  18
HETATM   18  C   UNK A   0      -9.881  14.843  66.997  1.00  0.00    -0.237 C  
BRANCH  18  19
HETATM   19  N   UNK A   0     -10.201  13.486  66.509  1.00  0.00    -0.277 NA 
HETATM   20  H   UNK A   0     -10.566  13.330  65.570  1.00  0.00     0.000 HD 
BRANCH  19  21
HETATM   21  C   UNK A   0      -9.979  12.423  67.398  1.00  0.00    -0.202 A  
HETATM   22  C   UNK A   0     -10.667  11.275  69.434  1.00  0.00    -0.188 A  
HETATM   23  C   UNK A   0      -9.685  10.307  69.222  1.00  0.00    -0.240 A  
HETATM   24  C   UNK A   0      -8.918  11.522  67.273  1.00  0.00    -0.162 A  
HETATM   25  C   UNK A   0     -10.800  12.332  68.529  1.00  0.00    -0.267 A  
HETATM   26  C   UNK A   0      -8.776  10.460  68.170  1.00  0.00    -0.125 A  
BRANCH  23  27
HETATM   27  C   UNK A   0      -9.605   9.134  70.130  1.00  0.00    -0.206 C  
ATOM     28  H   GLU A   1      -8.916   7.949  68.558  1.00  0.00     0.000 HD 
ATOM     29  N   GLU A   1      -9.194   7.949  69.540  1.00  0.00    -0.153 N  
HETATM   30  O   UNK A   0      -9.865   9.233  71.318  1.00  0.00    -0.289 OA 
BRANCH  29  31
ATOM     31  CA  GLU A   1      -9.148   6.684  70.305  1.00  0.00    -0.156 C  
ATOM     32  C   GLU A   1      -8.146   5.706  69.650  1.00  0.00    -0.102 C  
ATOM     33  O   GLU A   1      -7.608   6.161  68.494  1.00  0.00    -0.089 OA 
ATOM     34  OXT GLU A   1      -7.881   4.594  70.087  1.00  0.00    -0.059 OA 
BRANCH  31  35
ATOM     35  CB  GLU A   1     -10.557   6.069  70.383  1.00  0.00    -0.332 C  
BRANCH  35  36
ATOM     36  CG  GLU A   1     -11.107   5.969  71.811  1.00  0.00    -0.332 C  
ATOM     37  CD  GLU A   1     -10.771   4.658  72.476  1.00  0.00    -0.149 C  
ATOM     38  OE2 GLU A   1     -10.156   3.741  71.956  1.00  0.00    -0.176 OA 
ATOM     39  OE1 GLU A   1     -11.228   4.606  73.753  1.00  0.00    -0.287 OA 
ENDBRANCH  35  36
ENDBRANCH  31  35
ENDBRANCH  29  31
ENDBRANCH  23  27
ENDBRANCH  19  21
ENDBRANCH  18  19
ENDBRANCH   3  18
TORSDOF 7
ENDMDL
MODEL      214
REMARK 921   NORMALIZED FREE ENERGY PREDICTED BY IDOCK:   -4.13 KCAL/MOL
REMARK 922        TOTAL FREE ENERGY PREDICTED BY IDOCK:   -7.06 KCAL/MOL
REMARK 923 INTER-LIGAND FREE ENERGY PREDICTED BY IDOCK:   -6.60 KCAL/MOL
REMARK 924 INTRA-LIGAND FREE ENERGY PREDICTED BY IDOCK:   -0.45 KCAL/MOL
REMARK 927      BINDING AFFINITY PREDICTED BY RF-SCORE:    0.00 PKD
ROOT
HETATM    1  C   UNK A   0      -9.050   3.867  71.470  1.00  0.00    -0.113 C  
HETATM    2  N   UNK A   0      -9.638   5.011  70.790  1.00  0.00    -0.168 NA 
HETATM    3  C   UNK A   0      -9.638   6.324  71.497  1.00  0.00    -0.155 C  
HETATM    4  O   UNK A   0      -9.295   2.793  68.896  1.00  0.00    -0.153 OA 
HETATM    5  C   UNK A   0     -10.984   7.036  71.205  1.00  0.00    -0.243 C  
HETATM    6  C   UNK A   0     -10.760   5.048  66.788  1.00  0.00    -0.044 C  
HETATM    7  N   UNK A   0     -11.278   7.062  69.762  1.00  0.00    -0.433 NA 
HETATM    8  H   UNK A   0     -11.774   7.855  69.355  1.00  0.00     0.000 HD 
HETATM    9  H2  UNK A   0     -10.744   4.630  64.774  1.00  0.00     0.000 HD 
HETATM   10  C   UNK A   0     -10.877   5.999  68.956  1.00  0.00    -0.342 C  
HETATM   11  H   UNK A   0      -9.765   3.331  66.447  1.00  0.00     0.000 HD 
HETATM   12  C   UNK A   0     -10.135   4.979  69.457  1.00  0.00    -0.231 C  
HETATM   13  H1  UNK A   0     -11.591   6.112  65.210  1.00  0.00     0.000 HD 
HETATM   14  C   UNK A   0      -9.814   3.829  68.486  1.00  0.00     0.103 C  
HETATM   15  N   UNK A   0     -11.210   5.999  67.634  1.00  0.00    -0.390 NA 
HETATM   16  N   UNK A   0     -11.059   5.287  65.489  1.00  0.00    -0.544 NA 
HETATM   17  N   UNK A   0     -10.088   4.006  67.141  1.00  0.00    -0.204 N  
ENDROOT
BRANCH   3  18
HETATM   18  C   UNK A   0      -8.429   7.185  71.042  1.00  0.00    -0.129 C  
BRANCH  18  19
HETATM   19  N   UNK A   0      -8.592   8.600  71.431  1.00  0.00    -0.177 NA 
HETATM   20  H   UNK A   0      -8.652   8.879  72.411  1.00  0.00     0.000 HD 
BRANCH  19  21
HETATM   21  C   UNK A   0      -8.663   9.541  70.394  1.00  0.00    -0.223 A  
HETATM   22  C   UNK A   0      -7.453  10.923  68.792  1.00  0.00    -0.112 A  
HETATM   23  C   UNK A   0      -8.663  11.379  68.268  1.00  0.00    -0.160 A  
HETATM   24  C   UNK A   0      -9.860  10.109  69.947  1.00  0.00    -0.223 A  
HETATM   25  C   UNK A   0      -7.460  10.017  69.857  1.00  0.00    -0.171 A  
HETATM   26  C   UNK A   0      -9.866  11.012  68.881  1.00  0.00    -0.189 A  
BRANCH  23  27
HETATM   27  C   UNK A   0      -8.658  12.266  67.077  1.00  0.00    -0.191 C  
ATOM     28  H   GLU A   1      -8.908  13.935  68.301  1.00  0.00     0.000 HD 
ATOM     29  N   GLU A   1      -8.841  13.615  67.335  1.00  0.00    -0.209 N  
HETATM   30  O   UNK A   0      -8.478  11.818  65.955  1.00  0.00    -0.041 OA 
BRANCH  29  31
ATOM     31  CA  GLU A   1      -8.940  14.601  66.237  1.00  0.00    -0.077 C  
ATOM     32  C   GLU A   1      -8.303  15.942  66.672  1.00  0.00    -0.293 C  
ATOM     33  O   GLU A   1      -7.888  15.961  67.960  1.00  0.00    -0.132 OA 
ATOM     34  OXT GLU A   1      -8.215  16.929  65.954  1.00  0.00    -0.478 OA 
BRANCH  31  35
ATOM     35  CB  GLU A   1     -10.414  14.789  65.834  1.00  0.00    -0.324 C  
BRANCH  35  36
ATOM     36  CG  GLU A   1     -11.329  13.652  66.304  1.00  0.00    -0.325 C  
ATOM     37  CD  GLU A   1     -11.864  13.870  67.697  1.00  0.00    -0.386 C  
ATOM     38  OE2 GLU A   1     -11.597  14.821  68.414  1.00  0.00    -0.296 OA 
ATOM     39  OE1 GLU A   1     -12.705  12.876  68.078  1.00  0.00     0.449 OA 
ENDBRANCH  35  36
ENDBRANCH  31  35
ENDBRANCH  29  31
ENDBRANCH  23  27
ENDBRANCH  19  21
ENDBRANCH  18  19
ENDBRANCH   3  18
TORSDOF 7
ENDMDL
MODEL      215
REMARK 921   NORMALIZED FREE ENERGY PREDICTED BY IDOCK:   -4.12 KCAL/MOL
REMARK 922        TOTAL FREE ENERGY PREDICTED BY IDOCK:   -7.03 KCAL/MOL
REMARK 923 INTER-LIGAND FREE ENERGY PREDICTED BY IDOCK:   -5.97 KCAL/MOL
REMARK 924 INTRA-LIGAND FREE ENERGY PREDICTED BY IDOCK:   -1.06 KCAL/MOL
REMARK 927      BINDING AFFINITY PREDICTED BY RF-SCORE:    0.00 PKD
ROOT
HETATM    1  C   UNK A   0     -10.046   9.385  69.792  1.00  0.00    -0.211 C  
HETATM    2  N   UNK A   0     -10.526  10.741  69.573  1.00  0.00    -0.354 NA 
HETATM    3  C   UNK A   0     -10.143  11.425  68.304  1.00  0.00    -0.196 C  
HETATM    4  O   UNK A   0     -11.940   9.538  71.848  1.00  0.00    -0.370 OA 
HETATM    5  C   UNK A   0      -9.845  12.912  68.622  1.00  0.00    -0.067 C  
HETATM    6  C   UNK A   0     -13.390  12.631  71.918  1.00  0.00    -0.387 C  
HETATM    7  N   UNK A   0     -10.934  13.526  69.401  1.00  0.00    -0.437 NA 
HETATM    8  H   UNK A   0     -11.169  14.509  69.265  1.00  0.00     0.000 HD 
HETATM    9  H2  UNK A   0     -15.046  12.888  73.111  1.00  0.00     0.000 HD 
HETATM   10  C   UNK A   0     -11.642  12.758  70.322  1.00  0.00     0.035 C  
HETATM   11  H   UNK A   0     -13.886  10.888  72.796  1.00  0.00     0.000 HD 
HETATM   12  C   UNK A   0     -11.412  11.426  70.450  1.00  0.00    -0.041 C  
HETATM   13  H1  UNK A   0     -14.503  14.345  72.285  1.00  0.00     0.000 HD 
HETATM   14  C   UNK A   0     -12.206  10.700  71.550  1.00  0.00    -0.244 C  
HETATM   15  N   UNK A   0     -12.606  13.347  71.086  1.00  0.00    -0.367 NA 
HETATM   16  N   UNK A   0     -14.391  13.351  72.480  1.00  0.00    -0.631 NA 
HETATM   17  N   UNK A   0     -13.248  11.374  72.165  1.00  0.00    -0.556 N  
ENDROOT
BRANCH   3  18
HETATM   18  C   UNK A   0     -11.273  11.284  67.249  1.00  0.00    -0.296 C  
BRANCH  18  19
HETATM   19  N   UNK A   0     -10.735  11.284  65.874  1.00  0.00    -0.256 NA 
HETATM   20  H   UNK A   0     -10.951  12.034  65.217  1.00  0.00     0.000 HD 
BRANCH  19  21
HETATM   21  C   UNK A   0      -9.915  10.205  65.512  1.00  0.00    -0.293 A  
HETATM   22  C   UNK A   0      -8.059   9.407  64.149  1.00  0.00    -0.145 A  
HETATM   23  C   UNK A   0      -8.163   8.148  64.741  1.00  0.00    -0.137 A  
HETATM   24  C   UNK A   0     -10.091   8.906  65.996  1.00  0.00    -0.098 A  
HETATM   25  C   UNK A   0      -8.941  10.423  64.528  1.00  0.00    -0.241 A  
HETATM   26  C   UNK A   0      -9.213   7.883  65.627  1.00  0.00     0.047 A  
BRANCH  23  27
HETATM   27  C   UNK A   0      -7.167   7.097  64.409  1.00  0.00    -0.067 C  
ATOM     28  H   GLU A   1      -8.614   5.621  64.680  1.00  0.00     0.000 HD 
ATOM     29  N   GLU A   1      -7.630   5.793  64.474  1.00  0.00    -0.078 N  
HETATM   30  O   UNK A   0      -6.027   7.386  64.080  1.00  0.00    -0.043 OA 
BRANCH  29  31
ATOM     31  CA  GLU A   1      -6.726   4.644  64.249  1.00  0.00    -0.044 C  
ATOM     32  C   GLU A   1      -7.434   3.577  63.380  1.00  0.00    -0.058 C  
ATOM     33  O   GLU A   1      -8.725   3.866  63.097  1.00  0.00    -0.094 OA 
ATOM     34  OXT GLU A   1      -6.913   2.534  63.010  1.00  0.00    -0.030 OA 
BRANCH  31  35
ATOM     35  CB  GLU A   1      -6.281   4.056  65.600  1.00  0.00    -0.031 C  
BRANCH  35  36
ATOM     36  CG  GLU A   1      -7.283   4.299  66.736  1.00  0.00    -0.072 C  
ATOM     37  CD  GLU A   1      -7.701   3.025  67.428  1.00  0.00    -0.073 C  
ATOM     38  OE2 GLU A   1      -7.328   1.904  67.126  1.00  0.00    -0.057 OA 
ATOM     39  OE1 GLU A   1      -8.554   3.264  68.456  1.00  0.00    -0.080 OA 
ENDBRANCH  35  36
ENDBRANCH  31  35
ENDBRANCH  29  31
ENDBRANCH  23  27
ENDBRANCH  19  21
ENDBRANCH  18  19
ENDBRANCH   3  18
TORSDOF 7
ENDMDL
MODEL      216
REMARK 921   NORMALIZED FREE ENERGY PREDICTED BY IDOCK:   -4.11 KCAL/MOL
REMARK 922        TOTAL FREE ENERGY PREDICTED BY IDOCK:   -7.02 KCAL/MOL
REMARK 923 INTER-LIGAND FREE ENERGY PREDICTED BY IDOCK:   -7.25 KCAL/MOL
REMARK 924 INTRA-LIGAND FREE ENERGY PREDICTED BY IDOCK:    0.23 KCAL/MOL
REMARK 927      BINDING AFFINITY PREDICTED BY RF-SCORE:    0.00 PKD
ROOT
HETATM    1  C   UNK A   0      -8.097   8.499  71.946  1.00  0.00    -0.130 C  
HETATM    2  N   UNK A   0      -9.363   7.816  71.724  1.00  0.00    -0.137 NA 
HETATM    3  C   UNK A   0     -10.245   8.313  70.629  1.00  0.00    -0.193 C  
HETATM    4  O   UNK A   0      -7.676   6.226  73.525  1.00  0.00    -0.095 OA 
HETATM    5  C   UNK A   0     -11.715   8.239  71.115  1.00  0.00    -0.280 C  
HETATM    6  C   UNK A   0     -10.435   4.212  73.493  1.00  0.00    -0.184 C  
HETATM    7  N   UNK A   0     -12.033   6.912  71.670  1.00  0.00    -0.320 NA 
HETATM    8  H   UNK A   0     -12.969   6.522  71.558  1.00  0.00     0.000 HD 
HETATM    9  H2  UNK A   0     -10.258   2.327  74.296  1.00  0.00     0.000 HD 
HETATM   10  C   UNK A   0     -11.051   6.193  72.348  1.00  0.00    -0.275 C  
HETATM   11  H   UNK A   0      -8.543   3.898  74.105  1.00  0.00     0.000 HD 
HETATM   12  C   UNK A   0      -9.775   6.651  72.426  1.00  0.00    -0.154 C  
HETATM   13  H1  UNK A   0     -11.873   2.731  73.724  1.00  0.00     0.000 HD 
HETATM   14  C   UNK A   0      -8.799   5.803  73.262  1.00  0.00    -0.124 C  
HETATM   15  N   UNK A   0     -11.370   4.995  72.916  1.00  0.00    -0.275 NA 
HETATM   16  N   UNK A   0     -10.898   2.995  73.865  1.00  0.00    -0.198 NA 
HETATM   17  N   UNK A   0      -9.203   4.545  73.672  1.00  0.00    -0.111 N  
ENDROOT
BRANCH   3  18
HETATM   18  C   UNK A   0     -10.030   7.478  69.338  1.00  0.00    -0.178 C  
BRANCH  18  19
HETATM   19  N   UNK A   0      -9.663   8.334  68.192  1.00  0.00    -0.154 NA 
HETATM   20  H   UNK A   0      -9.215   7.949  67.361  1.00  0.00     0.000 HD 
BRANCH  19  21
HETATM   21  C   UNK A   0      -9.959   9.701  68.300  1.00  0.00    -0.155 A  
HETATM   22  C   UNK A   0     -11.661  11.443  68.230  1.00  0.00    -0.359 A  
HETATM   23  C   UNK A   0     -10.698  12.401  68.550  1.00  0.00    -0.262 A  
HETATM   24  C   UNK A   0      -8.987  10.688  68.487  1.00  0.00    -0.156 A  
HETATM   25  C   UNK A   0     -11.285  10.104  68.096  1.00  0.00    -0.245 A  
HETATM   26  C   UNK A   0      -9.352  12.030  68.627  1.00  0.00    -0.056 A  
BRANCH  23  27
HETATM   27  C   UNK A   0     -11.113  13.807  68.787  1.00  0.00    -0.266 C  
ATOM     28  H   GLU A   1      -9.269  14.216  69.669  1.00  0.00     0.000 HD 
ATOM     29  N   GLU A   1     -10.185  14.602  69.442  1.00  0.00    -0.143 N  
HETATM   30  O   UNK A   0     -12.194  14.222  68.401  1.00  0.00    -0.299 OA 
BRANCH  29  31
ATOM     31  CA  GLU A   1     -10.497  15.998  69.816  1.00  0.00    -0.300 C  
ATOM     32  C   GLU A   1     -11.390  16.019  71.080  1.00  0.00    -0.379 C  
ATOM     33  O   GLU A   1     -11.766  14.792  71.508  1.00  0.00    -0.341 OA 
ATOM     34  OXT GLU A   1     -11.777  17.039  71.633  1.00  0.00     0.219 OA 
BRANCH  31  35
ATOM     35  CB  GLU A   1     -11.182  16.715  68.638  1.00  0.00    -0.235 C  
BRANCH  35  36
ATOM     36  CG  GLU A   1     -10.249  17.654  67.864  1.00  0.00    -0.357 C  
ATOM     37  CD  GLU A   1      -9.945  17.159  66.472  1.00  0.00    -0.302 C  
ATOM     38  OE2 GLU A   1     -10.354  16.115  65.991  1.00  0.00    -0.324 OA 
ATOM     39  OE1 GLU A   1      -9.154  18.023  65.789  1.00  0.00    -0.482 OA 
ENDBRANCH  35  36
ENDBRANCH  31  35
ENDBRANCH  29  31
ENDBRANCH  23  27
ENDBRANCH  19  21
ENDBRANCH  18  19
ENDBRANCH   3  18
TORSDOF 7
ENDMDL
MODEL      217
REMARK 921   NORMALIZED FREE ENERGY PREDICTED BY IDOCK:   -4.10 KCAL/MOL
REMARK 922        TOTAL FREE ENERGY PREDICTED BY IDOCK:   -7.01 KCAL/MOL
REMARK 923 INTER-LIGAND FREE ENERGY PREDICTED BY IDOCK:   -6.94 KCAL/MOL
REMARK 924 INTRA-LIGAND FREE ENERGY PREDICTED BY IDOCK:   -0.07 KCAL/MOL
REMARK 927      BINDING AFFINITY PREDICTED BY RF-SCORE:    0.00 PKD
ROOT
HETATM    1  C   UNK A   0      -7.272   3.670  68.550  1.00  0.00    -0.051 C  
HETATM    2  N   UNK A   0      -8.183   4.761  68.237  1.00  0.00    -0.088 NA 
HETATM    3  C   UNK A   0      -9.052   5.285  69.329  1.00  0.00    -0.108 C  
HETATM    4  O   UNK A   0      -6.261   4.406  66.045  1.00  0.00    -0.030 OA 
HETATM    5  C   UNK A   0     -10.447   5.602  68.733  1.00  0.00    -0.219 C  
HETATM    6  C   UNK A   0      -8.113   6.943  64.699  1.00  0.00    -0.082 C  
HETATM    7  N   UNK A   0     -10.339   6.430  67.519  1.00  0.00    -0.168 NA 
HETATM    8  H   UNK A   0     -11.059   7.121  67.305  1.00  0.00     0.000 HD 
HETATM    9  H2  UNK A   0      -7.376   7.887  63.028  1.00  0.00     0.000 HD 
HETATM   10  C   UNK A   0      -9.252   6.265  66.665  1.00  0.00    -0.146 C  
HETATM   11  H   UNK A   0      -6.313   6.180  64.213  1.00  0.00     0.000 HD 
HETATM   12  C   UNK A   0      -8.236   5.420  66.977  1.00  0.00    -0.104 C  
HETATM   13  H1  UNK A   0      -8.953   8.461  63.559  1.00  0.00     0.000 HD 
HETATM   14  C   UNK A   0      -7.126   5.270  65.922  1.00  0.00    -0.068 C  
HETATM   15  N   UNK A   0      -9.191   6.987  65.510  1.00  0.00    -0.357 NA 
HETATM   16  N   UNK A   0      -8.156   7.836  63.683  1.00  0.00    -0.305 NA 
HETATM   17  N   UNK A   0      -7.105   6.154  64.856  1.00  0.00    -0.058 N  
ENDROOT
BRANCH   3  18
HETATM   18  C   UNK A   0      -8.411   6.542  69.977  1.00  0.00    -0.135 C  
BRANCH  18  19
HETATM   19  N   UNK A   0      -9.432   7.424  70.576  1.00  0.00    -0.162 NA 
HETATM   20  H   UNK A   0     -10.014   7.114  71.355  1.00  0.00     0.000 HD 
BRANCH  19  21
HETATM   21  C   UNK A   0      -9.566   8.707  70.026  1.00  0.00    -0.170 A  
HETATM   22  C   UNK A   0     -11.022  10.615  69.602  1.00  0.00    -0.331 A  
HETATM   23  C   UNK A   0      -9.956  11.302  69.020  1.00  0.00    -0.124 A  
HETATM   24  C   UNK A   0      -8.547   9.355  69.322  1.00  0.00    -0.143 A  
HETATM   25  C   UNK A   0     -10.824   9.320  70.090  1.00  0.00    -0.275 A  
HETATM   26  C   UNK A   0      -8.732  10.651  68.833  1.00  0.00    -0.163 A  
BRANCH  23  27
HETATM   27  C   UNK A   0     -10.140  12.711  68.588  1.00  0.00    -0.122 C  
ATOM     28  H   GLU A   1      -8.181  12.762  67.875  1.00  0.00     0.000 HD 
ATOM     29  N   GLU A   1      -9.028  13.312  68.021  1.00  0.00    -0.185 N  
HETATM   30  O   UNK A   0     -11.215  13.276  68.711  1.00  0.00    -0.248 OA 
BRANCH  29  31
ATOM     31  CA  GLU A   1      -9.043  14.736  67.621  1.00  0.00    -0.185 C  
ATOM     32  C   GLU A   1      -8.283  15.586  68.667  1.00  0.00    -0.162 C  
ATOM     33  O   GLU A   1      -7.859  14.884  69.743  1.00  0.00    -0.126 OA 
ATOM     34  OXT GLU A   1      -8.110  16.794  68.579  1.00  0.00    -0.218 OA 
BRANCH  31  35
ATOM     35  CB  GLU A   1     -10.497  15.219  67.462  1.00  0.00    -0.265 C  
BRANCH  35  36
ATOM     36  CG  GLU A   1     -10.665  16.330  66.418  1.00  0.00    -0.182 C  
ATOM     37  CD  GLU A   1     -11.024  15.799  65.053  1.00  0.00    -0.417 C  
ATOM     38  OE2 GLU A   1     -11.147  14.619  64.765  1.00  0.00    -0.383 OA 
ATOM     39  OE1 GLU A   1     -11.211  16.798  64.154  1.00  0.00    -1.155 OA 
ENDBRANCH  35  36
ENDBRANCH  31  35
ENDBRANCH  29  31
ENDBRANCH  23  27
ENDBRANCH  19  21
ENDBRANCH  18  19
ENDBRANCH   3  18
TORSDOF 7
ENDMDL
MODEL      218
REMARK 921   NORMALIZED FREE ENERGY PREDICTED BY IDOCK:   -4.10 KCAL/MOL
REMARK 922        TOTAL FREE ENERGY PREDICTED BY IDOCK:   -7.01 KCAL/MOL
REMARK 923 INTER-LIGAND FREE ENERGY PREDICTED BY IDOCK:   -5.90 KCAL/MOL
REMARK 924 INTRA-LIGAND FREE ENERGY PREDICTED BY IDOCK:   -1.11 KCAL/MOL
REMARK 927      BINDING AFFINITY PREDICTED BY RF-SCORE:    0.00 PKD
ROOT
HETATM    1  C   UNK A   0     -10.191  18.174  69.638  1.00  0.00     0.457 C  
HETATM    2  N   UNK A   0     -10.029  17.655  68.288  1.00  0.00    -0.319 NA 
HETATM    3  C   UNK A   0      -8.937  18.221  67.445  1.00  0.00    -0.257 C  
HETATM    4  O   UNK A   0     -11.850  15.926  69.810  1.00  0.00    -0.336 OA 
HETATM    5  C   UNK A   0      -9.463  18.357  65.993  1.00  0.00    -0.024 C  
HETATM    6  C   UNK A   0     -11.970  14.288  66.813  1.00  0.00    -0.436 C  
HETATM    7  N   UNK A   0     -10.079  17.104  65.523  1.00  0.00    -0.587 NA 
HETATM    8  H   UNK A   0     -10.007  16.835  64.542  1.00  0.00     0.000 HD 
HETATM    9  H2  UNK A   0     -12.844  12.427  66.771  1.00  0.00     0.000 HD 
HETATM   10  C   UNK A   0     -10.761  16.290  66.424  1.00  0.00    -0.182 C  
HETATM   11  H   UNK A   0     -12.546  13.753  68.667  1.00  0.00     0.000 HD 
HETATM   12  C   UNK A   0     -10.788  16.579  67.750  1.00  0.00    -0.304 C  
HETATM   13  H1  UNK A   0     -12.297  13.017  65.204  1.00  0.00     0.000 HD 
HETATM   14  C   UNK A   0     -11.632  15.644  68.634  1.00  0.00    -0.382 C  
HETATM   15  N   UNK A   0     -11.385  15.165  65.971  1.00  0.00    -0.278 NA 
HETATM   16  N   UNK A   0     -12.403  13.156  66.209  1.00  0.00    -0.415 NA 
HETATM   17  N   UNK A   0     -12.104  14.464  68.083  1.00  0.00    -0.567 N  
ENDROOT
BRANCH   3  18
HETATM   18  C   UNK A   0      -7.676  17.318  67.511  1.00  0.00    -0.176 C  
BRANCH  18  19
HETATM   19  N   UNK A   0      -7.411  16.856  68.888  1.00  0.00    -0.234 NA 
HETATM   20  H   UNK A   0      -7.353  17.511  69.668  1.00  0.00     0.000 HD 
BRANCH  19  21
HETATM   21  C   UNK A   0      -7.242  15.476  69.075  1.00  0.00    -0.156 A  
HETATM   22  C   UNK A   0      -8.077  13.230  68.636  1.00  0.00    -0.028 A  
HETATM   23  C   UNK A   0      -6.988  12.689  69.319  1.00  0.00     0.040 A  
HETATM   24  C   UNK A   0      -6.232  14.923  69.868  1.00  0.00    -0.149 A  
HETATM   25  C   UNK A   0      -8.204  14.618  68.528  1.00  0.00    -0.152 A  
HETATM   26  C   UNK A   0      -6.094  13.537  69.981  1.00  0.00    -0.129 A  
BRANCH  23  27
HETATM   27  C   UNK A   0      -6.802  11.216  69.353  1.00  0.00    -0.125 C  
ATOM     28  H   GLU A   1      -8.380  10.973  68.012  1.00  0.00     0.000 HD 
ATOM     29  N   GLU A   1      -7.697  10.483  68.589  1.00  0.00    -0.099 N  
HETATM   30  O   UNK A   0      -5.900  10.705  69.997  1.00  0.00    -0.056 OA 
BRANCH  29  31
ATOM     31  CA  GLU A   1      -7.681   9.004  68.594  1.00  0.00    -0.096 C  
ATOM     32  C   GLU A   1      -8.191   8.466  67.236  1.00  0.00    -0.112 C  
ATOM     33  O   GLU A   1      -8.622   9.429  66.390  1.00  0.00    -0.130 OA 
ATOM     34  OXT GLU A   1      -8.256   7.279  66.945  1.00  0.00    -0.114 OA 
BRANCH  31  35
ATOM     35  CB  GLU A   1      -8.536   8.475  69.759  1.00  0.00    -0.131 C  
BRANCH  35  36
ATOM     36  CG  GLU A   1      -7.741   7.661  70.786  1.00  0.00    -0.085 C  
ATOM     37  CD  GLU A   1      -8.061   6.187  70.738  1.00  0.00    -0.124 C  
ATOM     38  OE2 GLU A   1      -8.879   5.668  69.997  1.00  0.00    -0.126 OA 
ATOM     39  OE1 GLU A   1      -7.317   5.478  71.624  1.00  0.00    -0.085 OA 
ENDBRANCH  35  36
ENDBRANCH  31  35
ENDBRANCH  29  31
ENDBRANCH  23  27
ENDBRANCH  19  21
ENDBRANCH  18  19
ENDBRANCH   3  18
TORSDOF 7
ENDMDL
MODEL      219
REMARK 921   NORMALIZED FREE ENERGY PREDICTED BY IDOCK:   -4.07 KCAL/MOL
REMARK 922        TOTAL FREE ENERGY PREDICTED BY IDOCK:   -6.97 KCAL/MOL
REMARK 923 INTER-LIGAND FREE ENERGY PREDICTED BY IDOCK:   -6.20 KCAL/MOL
REMARK 924 INTRA-LIGAND FREE ENERGY PREDICTED BY IDOCK:   -0.77 KCAL/MOL
REMARK 927      BINDING AFFINITY PREDICTED BY RF-SCORE:    0.00 PKD
ROOT
HETATM    1  C   UNK A   0     -11.379  13.691  69.650  1.00  0.00    -0.161 C  
HETATM    2  N   UNK A   0     -10.335  14.003  68.685  1.00  0.00    -0.239 NA 
HETATM    3  C   UNK A   0      -9.474  12.886  68.198  1.00  0.00    -0.218 C  
HETATM    4  O   UNK A   0     -12.158  16.289  68.953  1.00  0.00    -0.130 OA 
HETATM    5  C   UNK A   0      -8.021  13.410  68.071  1.00  0.00    -0.148 C  
HETATM    6  C   UNK A   0      -9.959  17.644  66.717  1.00  0.00    -0.320 C  
HETATM    7  N   UNK A   0      -7.967  14.669  67.307  1.00  0.00    -0.210 NA 
HETATM    8  H   UNK A   0      -7.163  14.873  66.713  1.00  0.00     0.000 HD 
HETATM    9  H2  UNK A   0     -10.489  19.405  65.796  1.00  0.00     0.000 HD 
HETATM   10  C   UNK A   0      -9.016  15.580  67.401  1.00  0.00    -0.192 C  
HETATM   11  H   UNK A   0     -11.803  18.203  67.305  1.00  0.00     0.000 HD 
HETATM   12  C   UNK A   0     -10.137  15.288  68.110  1.00  0.00    -0.229 C  
HETATM   13  H1  UNK A   0      -8.889  18.807  65.369  1.00  0.00     0.000 HD 
HETATM   14  C   UNK A   0     -11.195  16.402  68.198  1.00  0.00    -0.273 C  
HETATM   15  N   UNK A   0      -8.930  16.772  66.744  1.00  0.00    -0.226 NA 
HETATM   16  N   UNK A   0      -9.757  18.700  65.894  1.00  0.00    -0.479 NA 
HETATM   17  N   UNK A   0     -11.056  17.510  67.381  1.00  0.00    -0.039 N  
ENDROOT
BRANCH   3  18
HETATM   18  C   UNK A   0     -10.005  12.345  66.843  1.00  0.00    -0.215 C  
BRANCH  18  19
HETATM   19  N   UNK A   0      -9.215  11.189  66.373  1.00  0.00    -0.178 NA 
HETATM   20  H   UNK A   0      -8.714  11.212  65.485  1.00  0.00     0.000 HD 
BRANCH  19  21
HETATM   21  C   UNK A   0      -9.186  10.059  67.204  1.00  0.00    -0.141 A  
HETATM   22  C   UNK A   0      -8.077   8.881  69.026  1.00  0.00    -0.115 A  
HETATM   23  C   UNK A   0      -9.047   7.880  68.972  1.00  0.00    -0.144 A  
HETATM   24  C   UNK A   0     -10.069   8.984  67.074  1.00  0.00    -0.318 A  
HETATM   25  C   UNK A   0      -8.145   9.957  68.136  1.00  0.00    -0.104 A  
HETATM   26  C   UNK A   0     -10.013   7.905  67.960  1.00  0.00    -0.213 A  
BRANCH  23  27
HETATM   27  C   UNK A   0      -9.029   6.788  69.978  1.00  0.00    -0.141 C  
ATOM     28  H   GLU A   1     -10.120   7.973  71.302  1.00  0.00     0.000 HD 
ATOM     29  N   GLU A   1      -9.646   7.077  71.185  1.00  0.00    -0.166 N  
HETATM   30  O   UNK A   0      -8.521   5.706  69.730  1.00  0.00    -0.105 OA 
BRANCH  29  31
ATOM     31  CA  GLU A   1      -9.632   6.113  72.307  1.00  0.00    -0.152 C  
ATOM     32  C   GLU A   1     -11.080   5.736  72.697  1.00  0.00    -0.280 C  
ATOM     33  O   GLU A   1     -12.029   6.419  72.017  1.00  0.00    -0.329 OA 
ATOM     34  OXT GLU A   1     -11.371   4.933  73.574  1.00  0.00    -0.329 OA 
BRANCH  31  35
ATOM     35  CB  GLU A   1      -8.870   6.713  73.502  1.00  0.00    -0.140 C  
BRANCH  35  36
ATOM     36  CG  GLU A   1      -7.396   6.295  73.565  1.00  0.00    -0.087 C  
ATOM     37  CD  GLU A   1      -6.475   7.304  72.925  1.00  0.00    -0.060 C  
ATOM     38  OE2 GLU A   1      -6.830   8.336  72.380  1.00  0.00    -0.080 OA 
ATOM     39  OE1 GLU A   1      -5.173   6.937  73.027  1.00  0.00    -0.036 OA 
ENDBRANCH  35  36
ENDBRANCH  31  35
ENDBRANCH  29  31
ENDBRANCH  23  27
ENDBRANCH  19  21
ENDBRANCH  18  19
ENDBRANCH   3  18
TORSDOF 7
ENDMDL
MODEL      220
REMARK 921   NORMALIZED FREE ENERGY PREDICTED BY IDOCK:   -4.04 KCAL/MOL
REMARK 922        TOTAL FREE ENERGY PREDICTED BY IDOCK:   -6.92 KCAL/MOL
REMARK 923 INTER-LIGAND FREE ENERGY PREDICTED BY IDOCK:   -5.74 KCAL/MOL
REMARK 924 INTRA-LIGAND FREE ENERGY PREDICTED BY IDOCK:   -1.18 KCAL/MOL
REMARK 927      BINDING AFFINITY PREDICTED BY RF-SCORE:    0.00 PKD
ROOT
HETATM    1  C   UNK A   0      -9.916  16.437  68.992  1.00  0.00    -0.267 C  
HETATM    2  N   UNK A   0      -8.736  15.865  68.361  1.00  0.00    -0.177 NA 
HETATM    3  C   UNK A   0      -8.517  14.395  68.487  1.00  0.00    -0.170 C  
HETATM    4  O   UNK A   0      -9.134  18.617  67.418  1.00  0.00    -0.276 OA 
HETATM    5  C   UNK A   0      -7.001  14.143  68.690  1.00  0.00    -0.107 C  
HETATM    6  C   UNK A   0      -6.260  17.900  65.715  1.00  0.00    -0.217 C  
HETATM    7  N   UNK A   0      -6.197  14.847  67.676  1.00  0.00    -0.282 NA 
HETATM    8  H   UNK A   0      -5.329  14.434  67.334  1.00  0.00     0.000 HD 
HETATM    9  H2  UNK A   0      -5.669  19.204  64.239  1.00  0.00     0.000 HD 
HETATM   10  C   UNK A   0      -6.627  16.079  67.187  1.00  0.00    -0.142 C  
HETATM   11  H   UNK A   0      -7.612  19.380  65.518  1.00  0.00     0.000 HD 
HETATM   12  C   UNK A   0      -7.824  16.602  67.556  1.00  0.00    -0.171 C  
HETATM   13  H1  UNK A   0      -4.566  17.859  64.515  1.00  0.00     0.000 HD 
HETATM   14  C   UNK A   0      -8.155  18.000  67.005  1.00  0.00    -0.225 C  
HETATM   15  N   UNK A   0      -5.846  16.756  66.298  1.00  0.00    -0.183 NA 
HETATM   16  N   UNK A   0      -5.428  18.352  64.747  1.00  0.00    -0.135 NA 
HETATM   17  N   UNK A   0      -7.350  18.523  66.008  1.00  0.00    -0.255 N  
ENDROOT
BRANCH   3  18
HETATM   18  C   UNK A   0      -9.053  13.657  67.230  1.00  0.00    -0.228 C  
BRANCH  18  19
HETATM   19  N   UNK A   0     -10.368  13.036  67.485  1.00  0.00    -0.223 NA 
HETATM   20  H   UNK A   0     -11.214  13.371  67.023  1.00  0.00     0.000 HD 
BRANCH  19  21
HETATM   21  C   UNK A   0     -10.402  11.967  68.392  1.00  0.00    -0.209 A  
HETATM   22  C   UNK A   0     -11.267  11.085  70.492  1.00  0.00     0.035 A  
HETATM   23  C   UNK A   0     -10.605   9.879  70.261  1.00  0.00    -0.359 A  
HETATM   24  C   UNK A   0      -9.640  10.804  68.242  1.00  0.00    -0.170 A  
HETATM   25  C   UNK A   0     -11.152  12.124  69.564  1.00  0.00    -0.117 A  
HETATM   26  C   UNK A   0      -9.749   9.758  69.161  1.00  0.00    -0.188 A  
BRANCH  23  27
HETATM   27  C   UNK A   0     -10.804   8.743  71.197  1.00  0.00    -0.268 C  
ATOM     28  H   GLU A   1      -8.764   8.315  71.131  1.00  0.00     0.000 HD 
ATOM     29  N   GLU A   1      -9.665   8.014  71.502  1.00  0.00    -0.161 N  
HETATM   30  O   UNK A   0     -11.900   8.499  71.674  1.00  0.00    -0.277 OA 
BRANCH  29  31
ATOM     31  CA  GLU A   1      -9.730   6.807  72.355  1.00  0.00    -0.154 C  
ATOM     32  C   GLU A   1      -8.536   6.790  73.338  1.00  0.00    -0.117 C  
ATOM     33  O   GLU A   1      -7.656   7.802  73.152  1.00  0.00    -0.100 OA 
ATOM     34  OXT GLU A   1      -8.351   5.926  74.184  1.00  0.00    -0.113 OA 
BRANCH  31  35
ATOM     35  CB  GLU A   1      -9.745   5.544  71.475  1.00  0.00    -0.201 C  
BRANCH  35  36
ATOM     36  CG  GLU A   1      -8.780   5.613  70.285  1.00  0.00    -0.134 C  
ATOM     37  CD  GLU A   1      -7.631   4.643  70.409  1.00  0.00    -0.054 C  
ATOM     38  OE2 GLU A   1      -7.440   3.892  71.351  1.00  0.00    -0.049 OA 
ATOM     39  OE1 GLU A   1      -6.812   4.688  69.328  1.00  0.00    -0.047 OA 
ENDBRANCH  35  36
ENDBRANCH  31  35
ENDBRANCH  29  31
ENDBRANCH  23  27
ENDBRANCH  19  21
ENDBRANCH  18  19
ENDBRANCH   3  18
TORSDOF 7
ENDMDL
MODEL      221
REMARK 921   NORMALIZED FREE ENERGY PREDICTED BY IDOCK:   -3.99 KCAL/MOL
REMARK 922        TOTAL FREE ENERGY PREDICTED BY IDOCK:   -6.86 KCAL/MOL
REMARK 923 INTER-LIGAND FREE ENERGY PREDICTED BY IDOCK:   -6.28 KCAL/MOL
REMARK 924 INTRA-LIGAND FREE ENERGY PREDICTED BY IDOCK:   -0.58 KCAL/MOL
REMARK 927      BINDING AFFINITY PREDICTED BY RF-SCORE:    0.00 PKD
ROOT
HETATM    1  C   UNK A   0      -5.627  18.163  69.696  1.00  0.00    -0.218 C  
HETATM    2  N   UNK A   0      -6.211  17.860  68.398  1.00  0.00    -0.181 NA 
HETATM    3  C   UNK A   0      -7.039  16.626  68.273  1.00  0.00    -0.160 C  
HETATM    4  O   UNK A   0      -5.168  20.605  68.405  1.00  0.00    -0.222 OA 
HETATM    5  C   UNK A   0      -6.737  15.973  66.900  1.00  0.00     0.004 C  
HETATM    6  C   UNK A   0      -6.265  20.480  65.172  1.00  0.00    -0.269 C  
HETATM    7  N   UNK A   0      -6.838  16.952  65.803  1.00  0.00     0.326 NA 
HETATM    8  H   UNK A   0      -7.173  16.660  64.885  1.00  0.00     0.000 HD 
HETATM    9  H2  UNK A   0      -6.352  22.244  64.118  1.00  0.00     0.000 HD 
HETATM   10  C   UNK A   0      -6.474  18.278  66.025  1.00  0.00    -0.243 C  
HETATM   11  H   UNK A   0      -5.721  22.017  66.353  1.00  0.00     0.000 HD 
HETATM   12  C   UNK A   0      -6.116  18.710  67.262  1.00  0.00    -0.169 C  
HETATM   13  H1  UNK A   0      -6.802  20.814  63.194  1.00  0.00     0.000 HD 
HETATM   14  C   UNK A   0      -5.667  20.178  67.366  1.00  0.00    -0.177 C  
HETATM   15  N   UNK A   0      -6.507  19.165  64.990  1.00  0.00    -0.448 NA 
HETATM   16  N   UNK A   0      -6.492  21.234  64.070  1.00  0.00    -0.493 NA 
HETATM   17  N   UNK A   0      -5.874  21.010  66.279  1.00  0.00    -0.238 N  
ENDROOT
BRANCH   3  18
HETATM   18  C   UNK A   0      -8.546  16.967  68.421  1.00  0.00    -0.243 C  
BRANCH  18  19
HETATM   19  N   UNK A   0      -9.361  16.285  67.396  1.00  0.00    -0.219 NA 
HETATM   20  H   UNK A   0      -9.694  16.776  66.567  1.00  0.00     0.000 HD 
BRANCH  19  21
HETATM   21  C   UNK A   0      -9.655  14.931  67.615  1.00  0.00    -0.200 A  
HETATM   22  C   UNK A   0      -9.630  12.659  66.737  1.00  0.00    -0.241 A  
HETATM   23  C   UNK A   0     -10.139  12.183  67.946  1.00  0.00    -0.199 A  
HETATM   24  C   UNK A   0     -10.287  14.456  68.768  1.00  0.00    -0.241 A  
HETATM   25  C   UNK A   0      -9.403  14.028  66.575  1.00  0.00    -0.274 A  
HETATM   26  C   UNK A   0     -10.516  13.089  68.942  1.00  0.00    -0.110 A  
BRANCH  23  27
HETATM   27  C   UNK A   0     -10.290  10.720  68.152  1.00  0.00    -0.171 C  
ATOM     28  H   GLU A   1      -8.589  10.701  69.358  1.00  0.00     0.000 HD 
ATOM     29  N   GLU A   1      -9.311  10.121  68.929  1.00  0.00    -0.169 N  
HETATM   30  O   UNK A   0     -11.235  10.108  67.681  1.00  0.00    -0.284 OA 
BRANCH  29  31
ATOM     31  CA  GLU A   1      -9.291   8.659  69.148  1.00  0.00    -0.153 C  
ATOM     32  C   GLU A   1      -8.654   8.339  70.521  1.00  0.00    -0.131 C  
ATOM     33  O   GLU A   1      -8.176   9.425  71.172  1.00  0.00    -0.314 OA 
ATOM     34  OXT GLU A   1      -8.535   7.211  70.980  1.00  0.00    -0.126 OA 
BRANCH  31  35
ATOM     35  CB  GLU A   1      -8.524   7.969  68.004  1.00  0.00    -0.126 C  
BRANCH  35  36
ATOM     36  CG  GLU A   1      -9.403   7.064  67.133  1.00  0.00    -0.166 C  
ATOM     37  CD  GLU A   1      -9.646   5.712  67.756  1.00  0.00    -0.119 C  
ATOM     38  OE2 GLU A   1      -9.186   5.333  68.820  1.00  0.00    -0.110 OA 
ATOM     39  OE1 GLU A   1     -10.460   4.941  66.991  1.00  0.00    -0.194 OA 
ENDBRANCH  35  36
ENDBRANCH  31  35
ENDBRANCH  29  31
ENDBRANCH  23  27
ENDBRANCH  19  21
ENDBRANCH  18  19
ENDBRANCH   3  18
TORSDOF 7
ENDMDL
MODEL      222
REMARK 921   NORMALIZED FREE ENERGY PREDICTED BY IDOCK:   -3.97 KCAL/MOL
REMARK 922        TOTAL FREE ENERGY PREDICTED BY IDOCK:   -6.83 KCAL/MOL
REMARK 923 INTER-LIGAND FREE ENERGY PREDICTED BY IDOCK:   -5.30 KCAL/MOL
REMARK 924 INTRA-LIGAND FREE ENERGY PREDICTED BY IDOCK:   -1.53 KCAL/MOL
REMARK 927      BINDING AFFINITY PREDICTED BY RF-SCORE:    0.00 PKD
ROOT
HETATM    1  C   UNK A   0      -8.955  13.567  66.922  1.00  0.00    -0.209 C  
HETATM    2  N   UNK A   0      -8.347  12.255  67.086  1.00  0.00    -0.180 NA 
HETATM    3  C   UNK A   0      -6.896  12.191  67.424  1.00  0.00    -0.147 C  
HETATM    4  O   UNK A   0     -11.272  11.997  67.013  1.00  0.00    -0.282 OA 
HETATM    5  C   UNK A   0      -6.264  11.012  66.641  1.00  0.00    -0.124 C  
HETATM    6  C   UNK A   0     -10.470   8.688  67.293  1.00  0.00    -0.289 C  
HETATM    7  N   UNK A   0      -7.040   9.771  66.817  1.00  0.00    -0.088 NA 
HETATM    8  H   UNK A   0      -6.564   8.869  66.836  1.00  0.00     0.000 HD 
HETATM    9  H2  UNK A   0     -11.986   7.365  67.719  1.00  0.00     0.000 HD 
HETATM   10  C   UNK A   0      -8.424   9.836  66.957  1.00  0.00    -0.117 C  
HETATM   11  H   UNK A   0     -12.204   9.682  67.541  1.00  0.00     0.000 HD 
HETATM   12  C   UNK A   0      -9.067  11.030  67.030  1.00  0.00    -0.147 C  
HETATM   13  H1  UNK A   0     -10.410   6.620  67.475  1.00  0.00     0.000 HD 
HETATM   14  C   UNK A   0     -10.603  10.971  67.113  1.00  0.00    -0.250 C  
HETATM   15  N   UNK A   0      -9.142   8.681  67.053  1.00  0.00    -0.134 NA 
HETATM   16  N   UNK A   0     -10.992   7.457  67.512  1.00  0.00    -0.537 NA 
HETATM   17  N   UNK A   0     -11.205   9.746  67.341  1.00  0.00    -0.314 N  
ENDROOT
BRANCH   3  18
HETATM   18  C   UNK A   0      -6.703  12.027  68.955  1.00  0.00    -0.100 C  
BRANCH  18  19
HETATM   19  N   UNK A   0      -5.975  10.784  69.280  1.00  0.00    -0.041 NA 
HETATM   20  H   UNK A   0      -5.086  10.556  68.835  1.00  0.00     0.000 HD 
BRANCH  19  21
HETATM   21  C   UNK A   0      -6.561   9.933  70.228  1.00  0.00    -0.116 A  
HETATM   22  C   UNK A   0      -8.614   9.035  71.187  1.00  0.00    -0.250 A  
HETATM   23  C   UNK A   0      -7.864   8.222  72.037  1.00  0.00    -0.168 A  
HETATM   24  C   UNK A   0      -5.828   9.213  71.176  1.00  0.00    -0.056 A  
HETATM   25  C   UNK A   0      -7.959   9.892  70.297  1.00  0.00    -0.135 A  
HETATM   26  C   UNK A   0      -6.471   8.350  72.067  1.00  0.00    -0.069 A  
BRANCH  23  27
HETATM   27  C   UNK A   0      -8.555   7.243  72.913  1.00  0.00    -0.122 C  
ATOM     28  H   GLU A   1      -7.708   5.666  71.843  1.00  0.00     0.000 HD 
ATOM     29  N   GLU A   1      -8.350   5.909  72.598  1.00  0.00    -0.119 N  
HETATM   30  O   UNK A   0      -9.236   7.608  73.858  1.00  0.00    -0.262 OA 
BRANCH  29  31
ATOM     31  CA  GLU A   1      -9.043   4.829  73.335  1.00  0.00    -0.110 C  
ATOM     32  C   GLU A   1      -8.030   3.732  73.738  1.00  0.00    -0.086 C  
ATOM     33  O   GLU A   1      -6.780   3.936  73.264  1.00  0.00    -0.039 OA 
ATOM     34  OXT GLU A   1      -8.317   2.733  74.384  1.00  0.00    -0.067 OA 
BRANCH  31  35
ATOM     35  CB  GLU A   1     -10.177   4.250  72.469  1.00  0.00    -0.238 C  
BRANCH  35  36
ATOM     36  CG  GLU A   1      -9.705   3.726  71.108  1.00  0.00    -0.245 C  
ATOM     37  CD  GLU A   1      -9.825   2.227  70.986  1.00  0.00     0.003 C  
ATOM     38  OE2 GLU A   1     -10.221   1.478  71.863  1.00  0.00    -0.150 OA 
ATOM     39  OE1 GLU A   1      -9.443   1.787  69.760  1.00  0.00    -0.107 OA 
ENDBRANCH  35  36
ENDBRANCH  31  35
ENDBRANCH  29  31
ENDBRANCH  23  27
ENDBRANCH  19  21
ENDBRANCH  18  19
ENDBRANCH   3  18
TORSDOF 7
ENDMDL
MODEL      223
REMARK 921   NORMALIZED FREE ENERGY PREDICTED BY IDOCK:   -3.95 KCAL/MOL
REMARK 922        TOTAL FREE ENERGY PREDICTED BY IDOCK:   -6.79 KCAL/MOL
REMARK 923 INTER-LIGAND FREE ENERGY PREDICTED BY IDOCK:   -7.10 KCAL/MOL
REMARK 924 INTRA-LIGAND FREE ENERGY PREDICTED BY IDOCK:    0.31 KCAL/MOL
REMARK 927      BINDING AFFINITY PREDICTED BY RF-SCORE:    0.00 PKD
ROOT
HETATM    1  C   UNK A   0      -7.809  12.448  66.764  1.00  0.00     0.080 C  
HETATM    2  N   UNK A   0      -9.229  12.147  66.672  1.00  0.00    -0.203 NA 
HETATM    3  C   UNK A   0      -9.882  12.247  65.335  1.00  0.00    -0.192 C  
HETATM    4  O   UNK A   0      -8.194  11.286  69.282  1.00  0.00    -0.016 OA 
HETATM    5  C   UNK A   0     -11.294  12.857  65.527  1.00  0.00    -0.307 C  
HETATM    6  C   UNK A   0     -11.473  10.431  69.721  1.00  0.00    -0.280 C  
HETATM    7  N   UNK A   0     -12.047  12.154  66.580  1.00  0.00    -0.582 NA 
HETATM    8  H   UNK A   0     -13.059  12.050  66.502  1.00  0.00     0.000 HD 
HETATM    9  H2  UNK A   0     -11.950   9.258  71.341  1.00  0.00     0.000 HD 
HETATM   10  C   UNK A   0     -11.372  11.633  67.681  1.00  0.00    -0.295 C  
HETATM   11  H   UNK A   0      -9.803   9.942  70.735  1.00  0.00     0.000 HD 
HETATM   12  C   UNK A   0     -10.017  11.677  67.759  1.00  0.00    -0.181 C  
HETATM   13  H1  UNK A   0     -13.329   9.760  70.368  1.00  0.00     0.000 HD 
HETATM   14  C   UNK A   0      -9.392  11.133  69.055  1.00  0.00    -0.049 C  
HETATM   15  N   UNK A   0     -12.082  11.042  68.684  1.00  0.00    -0.748 NA 
HETATM   16  N   UNK A   0     -12.323   9.765  70.538  1.00  0.00    -0.481 NA 
HETATM   17  N   UNK A   0     -10.202  10.437  69.936  1.00  0.00    -0.415 N  
ENDROOT
BRANCH   3  18
HETATM   18  C   UNK A   0      -9.953  10.851  64.660  1.00  0.00    -0.310 C  
BRANCH  18  19
HETATM   19  N   UNK A   0      -8.755  10.041  64.960  1.00  0.00    -0.160 NA 
HETATM   20  H   UNK A   0      -7.911  10.107  64.391  1.00  0.00     0.000 HD 
BRANCH  19  21
HETATM   21  C   UNK A   0      -8.832   9.178  66.063  1.00  0.00    -0.168 A  
HETATM   22  C   UNK A   0      -7.643   8.021  67.848  1.00  0.00    -0.112 A  
HETATM   23  C   UNK A   0      -8.851   7.510  68.325  1.00  0.00    -0.125 A  
HETATM   24  C   UNK A   0     -10.012   8.552  66.473  1.00  0.00    -0.350 A  
HETATM   25  C   UNK A   0      -7.639   8.840  66.715  1.00  0.00    -0.090 A  
HETATM   26  C   UNK A   0     -10.029   7.734  67.605  1.00  0.00    -0.230 A  
BRANCH  23  27
HETATM   27  C   UNK A   0      -8.867   6.719  69.581  1.00  0.00    -0.144 C  
ATOM     28  H   GLU A   1      -9.816   8.288  70.573  1.00  0.00     0.000 HD 
ATOM     29  N   GLU A   1      -9.411   7.359  70.684  1.00  0.00    -0.161 N  
HETATM   30  O   UNK A   0      -8.446   5.573  69.614  1.00  0.00    -0.100 OA 
BRANCH  29  31
ATOM     31  CA  GLU A   1      -9.416   6.721  72.018  1.00  0.00    -0.141 C  
ATOM     32  C   GLU A   1      -8.873   7.708  73.078  1.00  0.00    -0.169 C  
ATOM     33  O   GLU A   1      -8.430   8.879  72.563  1.00  0.00    -0.395 OA 
ATOM     34  OXT GLU A   1      -8.792   7.461  74.273  1.00  0.00    -0.212 OA 
BRANCH  31  35
ATOM     35  CB  GLU A   1      -8.582   5.427  71.983  1.00  0.00    -0.131 C  
BRANCH  35  36
ATOM     36  CG  GLU A   1      -9.375   4.173  72.371  1.00  0.00    -0.164 C  
ATOM     37  CD  GLU A   1      -8.935   3.590  73.690  1.00  0.00    -0.091 C  
ATOM     38  OE2 GLU A   1      -8.031   4.022  74.386  1.00  0.00    -0.087 OA 
ATOM     39  OE1 GLU A   1      -9.676   2.507  74.037  1.00  0.00    -0.090 OA 
ENDBRANCH  35  36
ENDBRANCH  31  35
ENDBRANCH  29  31
ENDBRANCH  23  27
ENDBRANCH  19  21
ENDBRANCH  18  19
ENDBRANCH   3  18
TORSDOF 7
ENDMDL
MODEL      224
REMARK 921   NORMALIZED FREE ENERGY PREDICTED BY IDOCK:   -3.93 KCAL/MOL
REMARK 922        TOTAL FREE ENERGY PREDICTED BY IDOCK:   -6.78 KCAL/MOL
REMARK 923 INTER-LIGAND FREE ENERGY PREDICTED BY IDOCK:   -7.01 KCAL/MOL
REMARK 924 INTRA-LIGAND FREE ENERGY PREDICTED BY IDOCK:    0.24 KCAL/MOL
REMARK 927      BINDING AFFINITY PREDICTED BY RF-SCORE:    0.00 PKD
ROOT
HETATM    1  C   UNK A   0      -7.945  13.089  66.956  1.00  0.00    -0.004 C  
HETATM    2  N   UNK A   0      -9.316  12.641  66.762  1.00  0.00    -0.227 NA 
HETATM    3  C   UNK A   0      -9.926  12.816  65.413  1.00  0.00    -0.199 C  
HETATM    4  O   UNK A   0      -8.284  11.616  69.314  1.00  0.00     0.140 OA 
HETATM    5  C   UNK A   0     -11.406  13.239  65.598  1.00  0.00    -0.304 C  
HETATM    6  C   UNK A   0     -11.454  10.354  69.496  1.00  0.00    -0.246 C  
HETATM    7  N   UNK A   0     -12.110  12.342  66.532  1.00  0.00    -0.598 NA 
HETATM    8  H   UNK A   0     -13.099  12.134  66.394  1.00  0.00     0.000 HD 
HETATM    9  H2  UNK A   0     -11.850   8.961  70.956  1.00  0.00     0.000 HD 
HETATM   10  C   UNK A   0     -11.420  11.781  67.603  1.00  0.00    -0.300 C  
HETATM   11  H   UNK A   0      -9.777   9.946  70.534  1.00  0.00     0.000 HD 
HETATM   12  C   UNK A   0     -10.083  11.967  67.752  1.00  0.00    -0.193 C  
HETATM   13  H1  UNK A   0     -13.241   9.411  69.975  1.00  0.00     0.000 HD 
HETATM   14  C   UNK A   0      -9.447  11.356  69.013  1.00  0.00     0.037 C  
HETATM   15  N   UNK A   0     -12.092  11.005  68.501  1.00  0.00    -0.770 NA 
HETATM   16  N   UNK A   0     -12.250   9.510  70.194  1.00  0.00    -0.445 NA 
HETATM   17  N   UNK A   0     -10.201  10.479  69.774  1.00  0.00    -0.409 N  
ENDROOT
BRANCH   3  18
HETATM   18  C   UNK A   0      -9.808  11.505  64.590  1.00  0.00    -0.246 C  
BRANCH  18  19
HETATM   19  N   UNK A   0      -8.624  10.718  64.990  1.00  0.00    -0.297 NA 
HETATM   20  H   UNK A   0      -7.693  10.939  64.637  1.00  0.00     0.000 HD 
BRANCH  19  21
HETATM   21  C   UNK A   0      -8.839   9.653  65.877  1.00  0.00    -0.153 A  
HETATM   22  C   UNK A   0     -10.412   8.031  66.792  1.00  0.00    -0.319 A  
HETATM   23  C   UNK A   0      -9.392   7.475  67.565  1.00  0.00    -0.157 A  
HETATM   24  C   UNK A   0      -7.864   9.171  66.755  1.00  0.00    -0.101 A  
HETATM   25  C   UNK A   0     -10.133   9.122  65.963  1.00  0.00    -0.204 A  
HETATM   26  C   UNK A   0      -8.131   8.079  67.586  1.00  0.00    -0.124 A  
BRANCH  23  27
HETATM   27  C   UNK A   0      -9.665   6.259  68.372  1.00  0.00    -0.124 C  
ATOM     28  H   GLU A   1      -7.810   5.472  67.838  1.00  0.00     0.000 HD 
ATOM     29  N   GLU A   1      -8.676   5.289  68.344  1.00  0.00    -0.098 N  
HETATM   30  O   UNK A   0     -10.688   6.151  69.029  1.00  0.00    -0.243 OA 
BRANCH  29  31
ATOM     31  CA  GLU A   1      -8.851   3.992  69.035  1.00  0.00    -0.100 C  
ATOM     32  C   GLU A   1      -9.372   2.930  68.039  1.00  0.00    -0.205 C  
ATOM     33  O   GLU A   1      -9.642   3.417  66.806  1.00  0.00    -0.173 OA 
ATOM     34  OXT GLU A   1      -9.578   1.758  68.326  1.00  0.00    -0.199 OA 
BRANCH  31  35
ATOM     35  CB  GLU A   1      -9.812   4.159  70.225  1.00  0.00    -0.239 C  
BRANCH  35  36
ATOM     36  CG  GLU A   1      -9.454   3.285  71.433  1.00  0.00    -0.221 C  
ATOM     37  CD  GLU A   1      -8.598   4.007  72.444  1.00  0.00    -0.103 C  
ATOM     38  OE2 GLU A   1      -8.192   5.152  72.333  1.00  0.00    -0.114 OA 
ATOM     39  OE1 GLU A   1      -8.327   3.232  73.524  1.00  0.00    -0.073 OA 
ENDBRANCH  35  36
ENDBRANCH  31  35
ENDBRANCH  29  31
ENDBRANCH  23  27
ENDBRANCH  19  21
ENDBRANCH  18  19
ENDBRANCH   3  18
TORSDOF 7
ENDMDL
MODEL      225
REMARK 921   NORMALIZED FREE ENERGY PREDICTED BY IDOCK:   -3.93 KCAL/MOL
REMARK 922        TOTAL FREE ENERGY PREDICTED BY IDOCK:   -6.78 KCAL/MOL
REMARK 923 INTER-LIGAND FREE ENERGY PREDICTED BY IDOCK:   -6.87 KCAL/MOL
REMARK 924 INTRA-LIGAND FREE ENERGY PREDICTED BY IDOCK:    0.09 KCAL/MOL
REMARK 927      BINDING AFFINITY PREDICTED BY RF-SCORE:    0.00 PKD
ROOT
HETATM    1  C   UNK A   0     -11.032   6.846  67.497  1.00  0.00    -0.270 C  
HETATM    2  N   UNK A   0     -10.001   5.824  67.401  1.00  0.00    -0.137 NA 
HETATM    3  C   UNK A   0      -9.260   5.694  66.113  1.00  0.00    -0.159 C  
HETATM    4  O   UNK A   0     -10.807   6.165  70.204  1.00  0.00    -0.268 OA 
HETATM    5  C   UNK A   0      -9.031   4.187  65.832  1.00  0.00    -0.126 C  
HETATM    6  C   UNK A   0      -8.531   3.653  70.626  1.00  0.00    -0.069 C  
HETATM    7  N   UNK A   0      -8.450   3.503  67.001  1.00  0.00    -0.102 NA 
HETATM    8  H   UNK A   0      -7.796   2.731  66.870  1.00  0.00     0.000 HD 
HETATM    9  H2  UNK A   0      -7.937   3.207  72.544  1.00  0.00     0.000 HD 
HETATM   10  C   UNK A   0      -8.799   3.914  68.285  1.00  0.00    -0.110 C  
HETATM   11  H   UNK A   0      -9.412   4.909  71.930  1.00  0.00     0.000 HD 
HETATM   12  C   UNK A   0      -9.592   4.998  68.484  1.00  0.00    -0.146 C  
HETATM   13  H1  UNK A   0      -7.238   2.174  71.301  1.00  0.00     0.000 HD 
HETATM   14  C   UNK A   0      -9.964   5.311  69.945  1.00  0.00    -0.239 C  
HETATM   15  N   UNK A   0      -8.310   3.235  69.362  1.00  0.00    -0.058 NA 
HETATM   16  N   UNK A   0      -7.846   2.952  71.560  1.00  0.00    -0.051 NA 
HETATM   17  N   UNK A   0      -9.298   4.635  70.954  1.00  0.00    -0.140 N  
ENDROOT
BRANCH   3  18
HETATM   18  C   UNK A   0      -7.918   6.472  66.179  1.00  0.00    -0.110 C  
BRANCH  18  19
HETATM   19  N   UNK A   0      -7.911   7.622  65.253  1.00  0.00    -0.114 NA 
HETATM   20  H   UNK A   0      -7.578   7.531  64.293  1.00  0.00     0.000 HD 
BRANCH  19  21
HETATM   21  C   UNK A   0      -8.383   8.844  65.754  1.00  0.00    -0.134 A  
HETATM   22  C   UNK A   0      -8.104  10.640  67.378  1.00  0.00    -0.112 A  
HETATM   23  C   UNK A   0      -9.185  11.319  66.815  1.00  0.00    -0.186 A  
HETATM   24  C   UNK A   0      -9.542   9.472  65.290  1.00  0.00    -0.314 A  
HETATM   25  C   UNK A   0      -7.718   9.403  66.853  1.00  0.00    -0.091 A  
HETATM   26  C   UNK A   0      -9.936  10.710  65.804  1.00  0.00    -0.315 A  
BRANCH  23  27
HETATM   27  C   UNK A   0      -9.536  12.675  67.310  1.00  0.00    -0.199 C  
ATOM     28  H   GLU A   1     -11.385  12.559  66.354  1.00  0.00     0.000 HD 
ATOM     29  N   GLU A   1     -10.769  13.158  66.904  1.00  0.00    -0.262 N  
HETATM   30  O   UNK A   0      -8.783  13.296  68.043  1.00  0.00    -0.169 OA 
BRANCH  29  31
ATOM     31  CA  GLU A   1     -11.212  14.526  67.253  1.00  0.00    -0.332 C  
ATOM     32  C   GLU A   1     -10.439  15.564  66.406  1.00  0.00    -0.306 C  
ATOM     33  O   GLU A   1      -9.481  15.026  65.617  1.00  0.00    -0.295 OA 
ATOM     34  OXT GLU A   1     -10.622  16.772  66.462  1.00  0.00    -0.287 OA 
BRANCH  31  35
ATOM     35  CB  GLU A   1     -11.009  14.773  68.759  1.00  0.00    -0.267 C  
BRANCH  35  36
ATOM     36  CG  GLU A   1     -11.852  13.854  69.652  1.00  0.00    -0.385 C  
ATOM     37  CD  GLU A   1     -12.730  14.618  70.612  1.00  0.00    -0.357 C  
ATOM     38  OE2 GLU A   1     -12.771  15.833  70.715  1.00  0.00    -0.453 OA 
ATOM     39  OE1 GLU A   1     -13.499  13.790  71.363  1.00  0.00    -0.306 OA 
ENDBRANCH  35  36
ENDBRANCH  31  35
ENDBRANCH  29  31
ENDBRANCH  23  27
ENDBRANCH  19  21
ENDBRANCH  18  19
ENDBRANCH   3  18
TORSDOF 7
ENDMDL
MODEL      226
REMARK 921   NORMALIZED FREE ENERGY PREDICTED BY IDOCK:   -3.93 KCAL/MOL
REMARK 922        TOTAL FREE ENERGY PREDICTED BY IDOCK:   -6.78 KCAL/MOL
REMARK 923 INTER-LIGAND FREE ENERGY PREDICTED BY IDOCK:   -6.13 KCAL/MOL
REMARK 924 INTRA-LIGAND FREE ENERGY PREDICTED BY IDOCK:   -0.64 KCAL/MOL
REMARK 927      BINDING AFFINITY PREDICTED BY RF-SCORE:    0.00 PKD
ROOT
HETATM    1  C   UNK A   0      -5.340  17.916  70.813  1.00  0.00    -0.246 C  
HETATM    2  N   UNK A   0      -5.756  17.455  69.496  1.00  0.00    -0.204 NA 
HETATM    3  C   UNK A   0      -5.808  15.985  69.252  1.00  0.00    -0.123 C  
HETATM    4  O   UNK A   0      -6.332  20.321  69.778  1.00  0.00    -0.333 OA 
HETATM    5  C   UNK A   0      -5.294  15.711  67.816  1.00  0.00    -0.114 C  
HETATM    6  C   UNK A   0      -7.398  19.896  66.560  1.00  0.00    -0.265 C  
HETATM    7  N   UNK A   0      -5.969  16.570  66.828  1.00  0.00    -0.327 NA 
HETATM    8  H   UNK A   0      -6.156  16.221  65.888  1.00  0.00     0.000 HD 
HETATM    9  H2  UNK A   0      -8.476  21.419  65.696  1.00  0.00     0.000 HD 
HETATM   10  C   UNK A   0      -6.351  17.862  67.183  1.00  0.00    -0.160 C  
HETATM   11  H   UNK A   0      -7.679  21.382  67.889  1.00  0.00     0.000 HD 
HETATM   12  C   UNK A   0      -6.199  18.315  68.454  1.00  0.00    -0.195 C  
HETATM   13  H1  UNK A   0      -8.156  20.053  64.633  1.00  0.00     0.000 HD 
HETATM   14  C   UNK A   0      -6.593  19.781  68.706  1.00  0.00    -0.309 C  
HETATM   15  N   UNK A   0      -6.917  18.675  66.245  1.00  0.00    -0.222 NA 
HETATM   16  N   UNK A   0      -8.061  20.499  65.545  1.00  0.00    -0.314 NA 
HETATM   17  N   UNK A   0      -7.279  20.460  67.713  1.00  0.00    -0.304 N  
ENDROOT
BRANCH   3  18
HETATM   18  C   UNK A   0      -7.254  15.454  69.450  1.00  0.00    -0.203 C  
BRANCH  18  19
HETATM   19  N   UNK A   0      -8.023  15.492  68.191  1.00  0.00    -0.129 NA 
HETATM   20  H   UNK A   0      -8.099  16.346  67.638  1.00  0.00     0.000 HD 
BRANCH  19  21
HETATM   21  C   UNK A   0      -8.645  14.300  67.790  1.00  0.00    -0.177 A  
HETATM   22  C   UNK A   0      -8.395  11.938  67.245  1.00  0.00    -0.169 A  
HETATM   23  C   UNK A   0      -9.772  11.834  67.051  1.00  0.00    -0.198 A  
HETATM   24  C   UNK A   0     -10.001  14.210  67.462  1.00  0.00    -0.236 A  
HETATM   25  C   UNK A   0      -7.839  13.170  67.601  1.00  0.00    -0.169 A  
HETATM   26  C   UNK A   0     -10.568  12.983  67.108  1.00  0.00    -0.251 A  
BRANCH  23  27
HETATM   27  C   UNK A   0     -10.374  10.507  66.766  1.00  0.00    -0.245 C  
ATOM     28  H   GLU A   1      -8.768   9.563  67.703  1.00  0.00     0.000 HD 
ATOM     29  N   GLU A   1      -9.633   9.413  67.184  1.00  0.00    -0.148 N  
HETATM   30  O   UNK A   0     -11.462  10.408  66.221  1.00  0.00     0.315 OA 
BRANCH  29  31
ATOM     31  CA  GLU A   1     -10.072   8.030  66.893  1.00  0.00    -0.292 C  
ATOM     32  C   GLU A   1     -10.729   7.410  68.149  1.00  0.00    -0.110 C  
ATOM     33  O   GLU A   1     -10.679   8.202  69.244  1.00  0.00    -0.211 OA 
ATOM     34  OXT GLU A   1     -11.212   6.286  68.190  1.00  0.00    -0.327 OA 
BRANCH  31  35
ATOM     35  CB  GLU A   1      -8.873   7.190  66.418  1.00  0.00    -0.161 C  
BRANCH  35  36
ATOM     36  CG  GLU A   1      -7.609   7.389  67.264  1.00  0.00    -0.108 C  
ATOM     37  CD  GLU A   1      -7.272   6.182  68.103  1.00  0.00    -0.084 C  
ATOM     38  OE2 GLU A   1      -7.925   5.153  68.153  1.00  0.00    -0.087 OA 
ATOM     39  OE1 GLU A   1      -6.128   6.362  68.811  1.00  0.00    -0.026 OA 
ENDBRANCH  35  36
ENDBRANCH  31  35
ENDBRANCH  29  31
ENDBRANCH  23  27
ENDBRANCH  19  21
ENDBRANCH  18  19
ENDBRANCH   3  18
TORSDOF 7
ENDMDL
MODEL      227
REMARK 921   NORMALIZED FREE ENERGY PREDICTED BY IDOCK:   -3.93 KCAL/MOL
REMARK 922        TOTAL FREE ENERGY PREDICTED BY IDOCK:   -6.77 KCAL/MOL
REMARK 923 INTER-LIGAND FREE ENERGY PREDICTED BY IDOCK:   -5.73 KCAL/MOL
REMARK 924 INTRA-LIGAND FREE ENERGY PREDICTED BY IDOCK:   -1.04 KCAL/MOL
REMARK 927      BINDING AFFINITY PREDICTED BY RF-SCORE:    0.00 PKD
ROOT
HETATM    1  C   UNK A   0      -8.847  13.822  65.805  1.00  0.00     0.973 C  
HETATM    2  N   UNK A   0     -10.242  13.497  66.059  1.00  0.00    -0.299 NA 
HETATM    3  C   UNK A   0     -11.201  13.584  64.921  1.00  0.00    -0.342 C  
HETATM    4  O   UNK A   0      -8.592  12.659  68.339  1.00  0.00    -0.174 OA 
HETATM    5  C   UNK A   0     -12.534  14.172  65.449  1.00  0.00    -0.472 C  
HETATM    6  C   UNK A   0     -11.652  11.751  69.558  1.00  0.00    -0.332 C  
HETATM    7  N   UNK A   0     -12.999  13.459  66.652  1.00  0.00     0.073 NA 
HETATM    8  H   UNK A   0     -13.997  13.338  66.822  1.00  0.00     0.000 HD 
HETATM    9  H2  UNK A   0     -11.704  10.575  71.243  1.00  0.00     0.000 HD 
HETATM   10  C   UNK A   0     -12.069  12.951  67.556  1.00  0.00    -0.192 C  
HETATM   11  H   UNK A   0      -9.779  11.291  70.136  1.00  0.00     0.000 HD 
HETATM   12  C   UNK A   0     -10.736  13.017  67.304  1.00  0.00    -0.250 C  
HETATM   13  H1  UNK A   0     -13.285  11.052  70.634  1.00  0.00     0.000 HD 
HETATM   14  C   UNK A   0      -9.807  12.486  68.409  1.00  0.00    -0.202 C  
HETATM   15  N   UNK A   0     -12.505  12.350  68.700  1.00  0.00     0.199 NA 
HETATM   16  N   UNK A   0     -12.268  11.074  70.555  1.00  0.00    -0.350 NA 
HETATM   17  N   UNK A   0     -10.367  11.778  69.459  1.00  0.00    -0.346 N  
ENDROOT
BRANCH   3  18
HETATM   18  C   UNK A   0     -11.411  12.185  64.280  1.00  0.00    -0.360 C  
BRANCH  18  19
HETATM   19  N   UNK A   0     -10.161  11.667  63.688  1.00  0.00    -0.369 NA 
HETATM   20  H   UNK A   0      -9.720  12.124  62.890  1.00  0.00     0.000 HD 
BRANCH  19  21
HETATM   21  C   UNK A   0      -9.611  10.517  64.272  1.00  0.00    -0.307 A  
HETATM   22  C   UNK A   0      -9.582   8.996  66.176  1.00  0.00    -0.341 A  
HETATM   23  C   UNK A   0      -8.637   8.200  65.529  1.00  0.00    -0.173 A  
HETATM   24  C   UNK A   0      -8.569   9.783  63.698  1.00  0.00    -0.207 A  
HETATM   25  C   UNK A   0     -10.053  10.154  65.551  1.00  0.00    -0.338 A  
HETATM   26  C   UNK A   0      -8.092   8.622  64.312  1.00  0.00    -0.158 A  
BRANCH  23  27
HETATM   27  C   UNK A   0      -8.207   6.921  66.151  1.00  0.00    -0.121 C  
ATOM     28  H   GLU A   1     -10.183   6.257  66.181  1.00  0.00     0.000 HD 
ATOM     29  N   GLU A   1      -9.225   6.029  66.448  1.00  0.00    -0.149 N  
HETATM   30  O   UNK A   0      -7.028   6.682  66.356  1.00  0.00    -0.059 OA 
BRANCH  29  31
ATOM     31  CA  GLU A   1      -8.950   4.753  67.144  1.00  0.00    -0.112 C  
ATOM     32  C   GLU A   1      -9.309   3.562  66.225  1.00  0.00    -0.166 C  
ATOM     33  O   GLU A   1      -9.873   3.925  65.049  1.00  0.00    -0.178 OA 
ATOM     34  OXT GLU A   1      -9.156   2.387  66.528  1.00  0.00    -0.134 OA 
BRANCH  31  35
ATOM     35  CB  GLU A   1      -9.741   4.697  68.464  1.00  0.00    -0.208 C  
BRANCH  35  36
ATOM     36  CG  GLU A   1      -8.901   4.248  69.666  1.00  0.00    -0.134 C  
ATOM     37  CD  GLU A   1      -9.460   4.730  70.981  1.00  0.00    -0.164 C  
ATOM     38  OE2 GLU A   1     -10.452   5.427  71.113  1.00  0.00    -0.227 OA 
ATOM     39  OE1 GLU A   1      -8.727   4.287  72.035  1.00  0.00    -0.105 OA 
ENDBRANCH  35  36
ENDBRANCH  31  35
ENDBRANCH  29  31
ENDBRANCH  23  27
ENDBRANCH  19  21
ENDBRANCH  18  19
ENDBRANCH   3  18
TORSDOF 7
ENDMDL
MODEL      228
REMARK 921   NORMALIZED FREE ENERGY PREDICTED BY IDOCK:   -3.89 KCAL/MOL
REMARK 922        TOTAL FREE ENERGY PREDICTED BY IDOCK:   -6.72 KCAL/MOL
REMARK 923 INTER-LIGAND FREE ENERGY PREDICTED BY IDOCK:   -5.65 KCAL/MOL
REMARK 924 INTRA-LIGAND FREE ENERGY PREDICTED BY IDOCK:   -1.06 KCAL/MOL
REMARK 927      BINDING AFFINITY PREDICTED BY RF-SCORE:    0.00 PKD
ROOT
HETATM    1  C   UNK A   0     -10.782   6.079  67.249  1.00  0.00    -0.318 C  
HETATM    2  N   UNK A   0     -10.028   5.013  67.892  1.00  0.00    -0.153 NA 
HETATM    3  C   UNK A   0      -9.106   4.199  67.049  1.00  0.00    -0.143 C  
HETATM    4  O   UNK A   0     -11.255   6.735  69.930  1.00  0.00    -0.296 OA 
HETATM    5  C   UNK A   0      -9.196   2.723  67.513  1.00  0.00    -0.187 C  
HETATM    6  C   UNK A   0      -9.777   4.458  72.004  1.00  0.00    -0.166 C  
HETATM    7  N   UNK A   0      -9.035   2.605  68.972  1.00  0.00    -0.101 NA 
HETATM    8  H   UNK A   0      -8.573   1.788  69.372  1.00  0.00     0.000 HD 
HETATM    9  H2  UNK A   0      -9.690   4.901  74.010  1.00  0.00     0.000 HD 
HETATM   10  C   UNK A   0      -9.516   3.614  69.804  1.00  0.00    -0.184 C  
HETATM   11  H   UNK A   0     -10.565   6.280  72.343  1.00  0.00     0.000 HD 
HETATM   12  C   UNK A   0     -10.048   4.753  69.290  1.00  0.00    -0.147 C  
HETATM   13  H1  UNK A   0      -9.034   3.325  73.578  1.00  0.00     0.000 HD 
HETATM   14  C   UNK A   0     -10.608   5.762  70.308  1.00  0.00    -0.299 C  
HETATM   15  N   UNK A   0      -9.422   3.469  71.156  1.00  0.00    -0.148 NA 
HETATM   16  N   UNK A   0      -9.474   4.202  73.298  1.00  0.00    -0.111 NA 
HETATM   17  N   UNK A   0     -10.333   5.566  71.651  1.00  0.00    -0.212 N  
ENDROOT
BRANCH   3  18
HETATM   18  C   UNK A   0      -7.655   4.741  67.154  1.00  0.00    -0.087 C  
BRANCH  18  19
HETATM   19  N   UNK A   0      -7.287   5.541  65.969  1.00  0.00    -0.076 NA 
HETATM   20  H   UNK A   0      -6.800   5.124  65.175  1.00  0.00     0.000 HD 
BRANCH  19  21
HETATM   21  C   UNK A   0      -7.636   6.899  65.985  1.00  0.00    -0.093 A  
HETATM   22  C   UNK A   0      -7.905   8.932  67.300  1.00  0.00    -0.096 A  
HETATM   23  C   UNK A   0      -8.251   9.636  66.146  1.00  0.00    -0.115 A  
HETATM   24  C   UNK A   0      -8.113   7.586  64.864  1.00  0.00    -0.121 A  
HETATM   25  C   UNK A   0      -7.612   7.568  67.215  1.00  0.00    -0.108 A  
HETATM   26  C   UNK A   0      -8.406   8.950  64.937  1.00  0.00    -0.181 A  
BRANCH  23  27
HETATM   27  C   UNK A   0      -8.470  11.103  66.221  1.00  0.00    -0.168 C  
ATOM     28  H   GLU A   1      -6.797  11.303  67.449  1.00  0.00     0.000 HD 
ATOM     29  N   GLU A   1      -7.574  11.801  67.015  1.00  0.00    -0.154 N  
HETATM   30  O   UNK A   0      -9.370  11.642  65.597  1.00  0.00    -0.225 OA 
BRANCH  29  31
ATOM     31  CA  GLU A   1      -7.722  13.255  67.246  1.00  0.00    -0.088 C  
ATOM     32  C   GLU A   1      -6.337  13.891  67.510  1.00  0.00    -0.029 C  
ATOM     33  O   GLU A   1      -5.323  12.997  67.569  1.00  0.00    -0.241 OA 
ATOM     34  OXT GLU A   1      -6.152  15.085  67.703  1.00  0.00    -0.223 OA 
BRANCH  31  35
ATOM     35  CB  GLU A   1      -8.682  13.502  68.423  1.00  0.00    -0.140 C  
BRANCH  35  36
ATOM     36  CG  GLU A   1      -9.709  14.610  68.156  1.00  0.00    -0.220 C  
ATOM     37  CD  GLU A   1     -11.080  14.275  68.689  1.00  0.00    -0.253 C  
ATOM     38  OE2 GLU A   1     -11.384  13.235  69.250  1.00  0.00    -0.262 OA 
ATOM     39  OE1 GLU A   1     -11.964  15.284  68.482  1.00  0.00    -0.310 OA 
ENDBRANCH  35  36
ENDBRANCH  31  35
ENDBRANCH  29  31
ENDBRANCH  23  27
ENDBRANCH  19  21
ENDBRANCH  18  19
ENDBRANCH   3  18
TORSDOF 7
ENDMDL
MODEL      229
REMARK 921   NORMALIZED FREE ENERGY PREDICTED BY IDOCK:   -3.86 KCAL/MOL
REMARK 922        TOTAL FREE ENERGY PREDICTED BY IDOCK:   -6.67 KCAL/MOL
REMARK 923 INTER-LIGAND FREE ENERGY PREDICTED BY IDOCK:   -6.31 KCAL/MOL
REMARK 924 INTRA-LIGAND FREE ENERGY PREDICTED BY IDOCK:   -0.36 KCAL/MOL
REMARK 927      BINDING AFFINITY PREDICTED BY RF-SCORE:    0.00 PKD
ROOT
HETATM    1  C   UNK A   0      -8.362  15.422  70.159  1.00  0.00     0.598 C  
HETATM    2  N   UNK A   0      -7.742  16.357  69.232  1.00  0.00    -0.223 NA 
HETATM    3  C   UNK A   0      -6.264  16.285  69.048  1.00  0.00    -0.147 C  
HETATM    4  O   UNK A   0     -10.659  16.402  68.893  1.00  0.00    -0.265 OA 
HETATM    5  C   UNK A   0      -5.717  17.731  68.925  1.00  0.00    -0.180 C  
HETATM    6  C   UNK A   0      -9.836  18.797  66.598  1.00  0.00    -0.356 C  
HETATM    7  N   UNK A   0      -6.471  18.510  67.928  1.00  0.00    -0.206 NA 
HETATM    8  H   UNK A   0      -5.998  19.217  67.366  1.00  0.00     0.000 HD 
HETATM    9  H2  UNK A   0     -11.302  19.427  65.301  1.00  0.00     0.000 HD 
HETATM   10  C   UNK A   0      -7.834  18.277  67.756  1.00  0.00    -0.240 C  
HETATM   11  H   UNK A   0     -11.534  17.763  66.920  1.00  0.00     0.000 HD 
HETATM   12  C   UNK A   0      -8.465  17.277  68.424  1.00  0.00    -0.254 C  
HETATM   13  H1  UNK A   0      -9.760  20.259  65.126  1.00  0.00     0.000 HD 
HETATM   14  C   UNK A   0      -9.984  17.165  68.204  1.00  0.00    -0.297 C  
HETATM   15  N   UNK A   0      -8.540  19.046  66.879  1.00  0.00    -0.285 NA 
HETATM   16  N   UNK A   0     -10.333  19.558  65.595  1.00  0.00    -0.485 NA 
HETATM   17  N   UNK A   0     -10.561  17.911  67.191  1.00  0.00    -0.343 N  
ENDROOT
BRANCH   3  18
HETATM   18  C   UNK A   0      -5.914  15.437  67.795  1.00  0.00    -0.144 C  
BRANCH  18  19
HETATM   19  N   UNK A   0      -7.082  14.671  67.316  1.00  0.00    -0.311 NA 
HETATM   20  H   UNK A   0      -7.750  15.074  66.659  1.00  0.00     0.000 HD 
BRANCH  19  21
HETATM   21  C   UNK A   0      -7.229  13.364  67.804  1.00  0.00    -0.154 A  
HETATM   22  C   UNK A   0      -8.739  11.513  68.285  1.00  0.00    -0.162 A  
HETATM   23  C   UNK A   0      -7.657  10.736  68.701  1.00  0.00    -0.106 A  
HETATM   24  C   UNK A   0      -6.178  12.621  68.348  1.00  0.00    -0.067 A  
HETATM   25  C   UNK A   0      -8.521  12.824  67.851  1.00  0.00    -0.173 A  
HETATM   26  C   UNK A   0      -6.384  11.308  68.782  1.00  0.00    -0.051 A  
BRANCH  23  27
HETATM   27  C   UNK A   0      -7.876   9.314  69.070  1.00  0.00    -0.082 C  
ATOM     28  H   GLU A   1      -9.905   9.497  68.627  1.00  0.00     0.000 HD 
ATOM     29  N   GLU A   1      -9.185   8.868  68.985  1.00  0.00    -0.140 N  
HETATM   30  O   UNK A   0      -6.946   8.595  69.402  1.00  0.00    -0.051 OA 
BRANCH  29  31
ATOM     31  CA  GLU A   1      -9.561   7.500  69.401  1.00  0.00    -0.155 C  
ATOM     32  C   GLU A   1     -10.573   6.901  68.396  1.00  0.00    -0.210 C  
ATOM     33  O   GLU A   1     -10.964   7.763  67.430  1.00  0.00    -0.189 OA 
ATOM     34  OXT GLU A   1     -11.033   5.770  68.473  1.00  0.00    -0.242 OA 
BRANCH  31  35
ATOM     35  CB  GLU A   1     -10.141   7.528  70.827  1.00  0.00    -0.192 C  
BRANCH  35  36
ATOM     36  CG  GLU A   1     -11.659   7.742  70.869  1.00  0.00    -0.289 C  
ATOM     37  CD  GLU A   1     -12.039   9.179  71.126  1.00  0.00    -0.299 C  
ATOM     38  OE2 GLU A   1     -11.253  10.093  71.314  1.00  0.00    -0.290 OA 
ATOM     39  OE1 GLU A   1     -13.384   9.356  71.118  1.00  0.00    -0.314 OA 
ENDBRANCH  35  36
ENDBRANCH  31  35
ENDBRANCH  29  31
ENDBRANCH  23  27
ENDBRANCH  19  21
ENDBRANCH  18  19
ENDBRANCH   3  18
TORSDOF 7
ENDMDL
MODEL      230
REMARK 921   NORMALIZED FREE ENERGY PREDICTED BY IDOCK:   -3.86 KCAL/MOL
REMARK 922        TOTAL FREE ENERGY PREDICTED BY IDOCK:   -6.67 KCAL/MOL
REMARK 923 INTER-LIGAND FREE ENERGY PREDICTED BY IDOCK:   -5.81 KCAL/MOL
REMARK 924 INTRA-LIGAND FREE ENERGY PREDICTED BY IDOCK:   -0.86 KCAL/MOL
REMARK 927      BINDING AFFINITY PREDICTED BY RF-SCORE:    0.00 PKD
ROOT
HETATM    1  C   UNK A   0      -9.038  13.548  67.630  1.00  0.00    -0.205 C  
HETATM    2  N   UNK A   0      -9.348  12.528  66.639  1.00  0.00    -0.232 NA 
HETATM    3  C   UNK A   0      -8.825  11.150  66.864  1.00  0.00    -0.157 C  
HETATM    4  O   UNK A   0     -11.004  14.908  66.173  1.00  0.00    -0.324 OA 
HETATM    5  C   UNK A   0      -8.375  10.570  65.498  1.00  0.00    -0.170 C  
HETATM    6  C   UNK A   0     -12.092  13.003  63.554  1.00  0.00    -0.542 C  
HETATM    7  N   UNK A   0      -9.426  10.721  64.476  1.00  0.00    -0.232 NA 
HETATM    8  H   UNK A   0      -9.539  10.013  63.751  1.00  0.00     0.000 HD 
HETATM    9  H2  UNK A   0     -13.766  13.633  62.538  1.00  0.00     0.000 HD 
HETATM   10  C   UNK A   0     -10.263  11.834  64.505  1.00  0.00    -0.284 C  
HETATM   11  H   UNK A   0     -12.828  14.673  64.405  1.00  0.00     0.000 HD 
HETATM   12  C   UNK A   0     -10.193  12.739  65.515  1.00  0.00    -0.279 C  
HETATM   13  H1  UNK A   0     -13.019  12.177  61.889  1.00  0.00     0.000 HD 
HETATM   14  C   UNK A   0     -11.120  13.962  65.398  1.00  0.00    -0.310 C  
HETATM   15  N   UNK A   0     -11.190  12.000  63.519  1.00  0.00    -0.559 NA 
HETATM   16  N   UNK A   0     -13.031  12.926  62.581  1.00  0.00     0.350 NA 
HETATM   17  N   UNK A   0     -12.107  13.950  64.428  1.00  0.00    -0.465 N  
ENDROOT
BRANCH   3  18
HETATM   18  C   UNK A   0      -9.909  10.260  67.530  1.00  0.00    -0.173 C  
BRANCH  18  19
HETATM   19  N   UNK A   0      -9.919  10.423  68.998  1.00  0.00    -0.204 NA 
HETATM   20  H   UNK A   0     -10.335  11.243  69.440  1.00  0.00     0.000 HD 
BRANCH  19  21
HETATM   21  C   UNK A   0      -9.328   9.401  69.755  1.00  0.00    -0.203 A  
HETATM   22  C   UNK A   0      -8.697   8.588  71.964  1.00  0.00    -0.265 A  
HETATM   23  C   UNK A   0      -8.227   7.404  71.396  1.00  0.00    -0.104 A  
HETATM   24  C   UNK A   0      -8.732   8.269  69.192  1.00  0.00    -0.143 A  
HETATM   25  C   UNK A   0      -9.233   9.583  71.141  1.00  0.00     0.087 A  
HETATM   26  C   UNK A   0      -8.196   7.267  70.004  1.00  0.00    -0.132 A  
BRANCH  23  27
HETATM   27  C   UNK A   0      -7.746   6.309  72.277  1.00  0.00    -0.103 C  
ATOM     28  H   GLU A   1      -8.733   4.905  71.094  1.00  0.00     0.000 HD 
ATOM     29  N   GLU A   1      -8.176   5.036  71.938  1.00  0.00    -0.114 N  
HETATM   30  O   UNK A   0      -7.002   6.534  73.219  1.00  0.00    -0.077 OA 
BRANCH  29  31
ATOM     31  CA  GLU A   1      -7.841   3.863  72.775  1.00  0.00    -0.075 C  
ATOM     32  C   GLU A   1      -6.725   3.033  72.099  1.00  0.00    -0.015 C  
ATOM     33  O   GLU A   1      -6.367   3.486  70.875  1.00  0.00    -0.018 OA 
ATOM     34  OXT GLU A   1      -6.228   2.024  72.581  1.00  0.00    -0.009 OA 
BRANCH  31  35
ATOM     35  CB  GLU A   1      -9.103   3.013  73.011  1.00  0.00    -0.107 C  
BRANCH  35  36
ATOM     36  CG  GLU A   1     -10.364   3.588  72.355  1.00  0.00    -0.160 C  
ATOM     37  CD  GLU A   1     -11.139   4.497  73.276  1.00  0.00    -0.304 C  
ATOM     38  OE2 GLU A   1     -10.842   4.747  74.433  1.00  0.00    -0.344 OA 
ATOM     39  OE1 GLU A   1     -12.227   5.029  72.665  1.00  0.00     0.065 OA 
ENDBRANCH  35  36
ENDBRANCH  31  35
ENDBRANCH  29  31
ENDBRANCH  23  27
ENDBRANCH  19  21
ENDBRANCH  18  19
ENDBRANCH   3  18
TORSDOF 7
ENDMDL
MODEL      231
REMARK 921   NORMALIZED FREE ENERGY PREDICTED BY IDOCK:   -3.85 KCAL/MOL
REMARK 922        TOTAL FREE ENERGY PREDICTED BY IDOCK:   -6.66 KCAL/MOL
REMARK 923 INTER-LIGAND FREE ENERGY PREDICTED BY IDOCK:   -6.61 KCAL/MOL
REMARK 924 INTRA-LIGAND FREE ENERGY PREDICTED BY IDOCK:   -0.05 KCAL/MOL
REMARK 927      BINDING AFFINITY PREDICTED BY RF-SCORE:    0.00 PKD
ROOT
HETATM    1  C   UNK A   0     -10.958  14.910  68.919  1.00  0.00    -0.251 C  
HETATM    2  N   UNK A   0     -10.327  14.941  67.608  1.00  0.00    -0.240 NA 
HETATM    3  C   UNK A   0      -8.889  15.331  67.531  1.00  0.00    -0.179 C  
HETATM    4  O   UNK A   0     -12.928  13.589  67.430  1.00  0.00     0.744 OA 
HETATM    5  C   UNK A   0      -8.690  16.213  66.272  1.00  0.00    -0.337 C  
HETATM    6  C   UNK A   0     -12.041  13.435  64.134  1.00  0.00    -0.433 C  
HETATM    7  N   UNK A   0      -9.269  15.581  65.074  1.00  0.00     0.271 NA 
HETATM    8  H   UNK A   0      -8.829  15.712  64.163  1.00  0.00     0.000 HD 
HETATM    9  H2  UNK A   0     -13.151  12.224  62.897  1.00  0.00     0.000 HD 
HETATM   10  C   UNK A   0     -10.420  14.805  65.190  1.00  0.00    -0.418 C  
HETATM   11  H   UNK A   0     -13.461  12.480  65.195  1.00  0.00     0.000 HD 
HETATM   12  C   UNK A   0     -10.968  14.539  66.404  1.00  0.00    -0.324 C  
HETATM   13  H1  UNK A   0     -11.871  13.123  62.088  1.00  0.00     0.000 HD 
HETATM   14  C   UNK A   0     -12.277  13.730  66.397  1.00  0.00    -0.436 C  
HETATM   15  N   UNK A   0     -10.988  14.277  64.069  1.00  0.00    -0.397 NA 
HETATM   16  N   UNK A   0     -12.376  12.887  62.942  1.00  0.00    -0.608 NA 
HETATM   17  N   UNK A   0     -12.680  13.137  65.213  1.00  0.00    -0.613 N  
ENDROOT
BRANCH   3  18
HETATM   18  C   UNK A   0      -7.987  14.068  67.491  1.00  0.00    -0.187 C  
BRANCH  18  19
HETATM   19  N   UNK A   0      -8.705  12.905  66.933  1.00  0.00    -0.331 NA 
HETATM   20  H   UNK A   0      -8.995  12.877  65.956  1.00  0.00     0.000 HD 
BRANCH  19  21
HETATM   21  C   UNK A   0      -8.971  11.842  67.809  1.00  0.00    -0.173 A  
HETATM   22  C   UNK A   0     -10.642  10.375  68.806  1.00  0.00    -0.232 A  
HETATM   23  C   UNK A   0      -9.636   9.687  69.485  1.00  0.00    -0.211 A  
HETATM   24  C   UNK A   0      -7.993  11.230  68.598  1.00  0.00    -0.145 A  
HETATM   25  C   UNK A   0     -10.305  11.454  67.983  1.00  0.00    -0.204 A  
HETATM   26  C   UNK A   0      -8.317  10.148  69.422  1.00  0.00    -0.174 A  
BRANCH  23  27
HETATM   27  C   UNK A   0      -9.981   8.483  70.283  1.00  0.00    -0.183 C  
ATOM     28  H   GLU A   1      -8.228   8.698  71.391  1.00  0.00     0.000 HD 
ATOM     29  N   GLU A   1      -9.050   8.113  71.241  1.00  0.00    -0.142 N  
HETATM   30  O   UNK A   0     -11.032   7.887  70.107  1.00  0.00    -0.253 OA 
BRANCH  29  31
ATOM     31  CA  GLU A   1      -9.225   6.888  72.050  1.00  0.00    -0.140 C  
ATOM     32  C   GLU A   1      -8.450   7.019  73.382  1.00  0.00    -0.128 C  
ATOM     33  O   GLU A   1      -7.718   8.153  73.483  1.00  0.00    -0.152 OA 
ATOM     34  OXT GLU A   1      -8.440   6.169  74.261  1.00  0.00    -0.115 OA 
BRANCH  31  35
ATOM     35  CB  GLU A   1      -8.754   5.660  71.250  1.00  0.00    -0.134 C  
BRANCH  35  36
ATOM     36  CG  GLU A   1      -9.608   4.408  71.483  1.00  0.00    -0.228 C  
ATOM     37  CD  GLU A   1      -8.966   3.433  72.438  1.00  0.00    -0.092 C  
ATOM     38  OE2 GLU A   1      -7.875   3.576  72.964  1.00  0.00    -0.064 OA 
ATOM     39  OE1 GLU A   1      -9.755   2.353  72.665  1.00  0.00    -0.100 OA 
ENDBRANCH  35  36
ENDBRANCH  31  35
ENDBRANCH  29  31
ENDBRANCH  23  27
ENDBRANCH  19  21
ENDBRANCH  18  19
ENDBRANCH   3  18
TORSDOF 7
ENDMDL
MODEL      232
REMARK 921   NORMALIZED FREE ENERGY PREDICTED BY IDOCK:   -3.84 KCAL/MOL
REMARK 922        TOTAL FREE ENERGY PREDICTED BY IDOCK:   -6.65 KCAL/MOL
REMARK 923 INTER-LIGAND FREE ENERGY PREDICTED BY IDOCK:   -6.99 KCAL/MOL
REMARK 924 INTRA-LIGAND FREE ENERGY PREDICTED BY IDOCK:    0.34 KCAL/MOL
REMARK 927      BINDING AFFINITY PREDICTED BY RF-SCORE:    0.00 PKD
ROOT
HETATM    1  C   UNK A   0     -11.264  10.846  66.330  1.00  0.00     0.114 C  
HETATM    2  N   UNK A   0     -10.487   9.769  66.927  1.00  0.00    -0.230 NA 
HETATM    3  C   UNK A   0      -9.489   9.067  66.071  1.00  0.00    -0.256 C  
HETATM    4  O   UNK A   0     -11.890  11.269  69.026  1.00  0.00    -0.310 OA 
HETATM    5  C   UNK A   0      -9.525   7.557  66.417  1.00  0.00    -0.147 C  
HETATM    6  C   UNK A   0     -10.394   8.909  70.992  1.00  0.00    -0.253 C  
HETATM    7  N   UNK A   0      -9.424   7.334  67.870  1.00  0.00    -0.135 NA 
HETATM    8  H   UNK A   0      -8.941   6.511  68.229  1.00  0.00     0.000 HD 
HETATM    9  H2  UNK A   0     -10.420   9.199  73.028  1.00  0.00     0.000 HD 
HETATM   10  C   UNK A   0      -9.992   8.252  68.751  1.00  0.00    -0.183 C  
HETATM   11  H   UNK A   0     -11.286  10.661  71.429  1.00  0.00     0.000 HD 
HETATM   12  C   UNK A   0     -10.557   9.401  68.299  1.00  0.00    -0.210 C  
HETATM   13  H1  UNK A   0      -9.666   7.694  72.511  1.00  0.00     0.000 HD 
HETATM   14  C   UNK A   0     -11.212  10.300  69.362  1.00  0.00    -0.239 C  
HETATM   15  N   UNK A   0      -9.952   8.007  70.091  1.00  0.00    -0.189 NA 
HETATM   16  N   UNK A   0     -10.137   8.568  72.277  1.00  0.00    -0.315 NA 
HETATM   17  N   UNK A   0     -10.988  10.014  70.697  1.00  0.00    -0.318 N  
ENDROOT
BRANCH   3  18
HETATM   18  C   UNK A   0      -8.073   9.666  66.287  1.00  0.00    -0.112 C  
BRANCH  18  19
HETATM   19  N   UNK A   0      -7.840  10.013  67.703  1.00  0.00    -0.095 NA 
HETATM   20  H   UNK A   0      -7.851   9.302  68.434  1.00  0.00     0.000 HD 
BRANCH  19  21
HETATM   21  C   UNK A   0      -7.606  11.364  67.996  1.00  0.00    -0.110 A  
HETATM   22  C   UNK A   0      -7.943  13.691  67.355  1.00  0.00    -0.177 A  
HETATM   23  C   UNK A   0      -7.262  14.108  68.499  1.00  0.00    -0.110 A  
HETATM   24  C   UNK A   0      -6.813  11.796  69.064  1.00  0.00    -0.106 A  
HETATM   25  C   UNK A   0      -8.101  12.325  67.105  1.00  0.00    -0.173 A  
HETATM   26  C   UNK A   0      -6.651  13.159  69.326  1.00  0.00    -0.091 A  
BRANCH  23  27
HETATM   27  C   UNK A   0      -7.177  15.556  68.815  1.00  0.00    -0.134 C  
ATOM     28  H   GLU A   1      -9.081  15.854  68.018  1.00  0.00     0.000 HD 
ATOM     29  N   GLU A   1      -8.271  16.316  68.431  1.00  0.00    -0.177 N  
HETATM   30  O   UNK A   0      -6.211  16.023  69.396  1.00  0.00    -0.138 OA 
BRANCH  29  31
ATOM     31  CA  GLU A   1      -8.287  17.785  68.608  1.00  0.00    -0.273 C  
ATOM     32  C   GLU A   1      -9.661  18.236  69.156  1.00  0.00    -0.104 C  
ATOM     33  O   GLU A   1     -10.565  17.235  69.264  1.00  0.00    -0.319 OA 
ATOM     34  OXT GLU A   1      -9.949  19.393  69.428  1.00  0.00    -0.355 OA 
BRANCH  31  35
ATOM     35  CB  GLU A   1      -7.966  18.476  67.270  1.00  0.00    -0.241 C  
BRANCH  35  36
ATOM     36  CG  GLU A   1      -8.969  19.572  66.888  1.00  0.00    -0.379 C  
ATOM     37  CD  GLU A   1     -10.085  19.061  66.012  1.00  0.00    -0.347 C  
ATOM     38  OE2 GLU A   1     -10.196  17.915  65.607  1.00  0.00    -0.589 OA 
ATOM     39  OE1 GLU A   1     -10.985  20.033  65.720  1.00  0.00    -0.288 OA 
ENDBRANCH  35  36
ENDBRANCH  31  35
ENDBRANCH  29  31
ENDBRANCH  23  27
ENDBRANCH  19  21
ENDBRANCH  18  19
ENDBRANCH   3  18
TORSDOF 7
ENDMDL
MODEL      233
REMARK 921   NORMALIZED FREE ENERGY PREDICTED BY IDOCK:   -3.84 KCAL/MOL
REMARK 922        TOTAL FREE ENERGY PREDICTED BY IDOCK:   -6.64 KCAL/MOL
REMARK 923 INTER-LIGAND FREE ENERGY PREDICTED BY IDOCK:   -7.74 KCAL/MOL
REMARK 924 INTRA-LIGAND FREE ENERGY PREDICTED BY IDOCK:    1.10 KCAL/MOL
REMARK 927      BINDING AFFINITY PREDICTED BY RF-SCORE:    0.00 PKD
ROOT
HETATM    1  C   UNK A   0     -13.496  10.181  71.555  1.00  0.00    -0.264 C  
HETATM    2  N   UNK A   0     -12.449  10.176  70.545  1.00  0.00    -0.456 NA 
HETATM    3  C   UNK A   0     -12.411  11.303  69.569  1.00  0.00    -0.175 C  
HETATM    4  O   UNK A   0     -11.859   8.163  72.601  1.00  0.00    -0.395 OA 
HETATM    5  C   UNK A   0     -12.033  10.731  68.178  1.00  0.00     0.249 C  
HETATM    6  C   UNK A   0      -9.190   7.596  70.545  1.00  0.00    -0.159 C  
HETATM    7  N   UNK A   0     -10.833   9.880  68.253  1.00  0.00    -0.339 NA 
HETATM    8  H   UNK A   0     -10.177   9.850  67.472  1.00  0.00     0.000 HD 
HETATM    9  H2  UNK A   0      -7.669   6.407  71.253  1.00  0.00     0.000 HD 
HETATM   10  C   UNK A   0     -10.598   9.115  69.393  1.00  0.00    -0.223 C  
HETATM   11  H   UNK A   0      -9.577   7.036  72.440  1.00  0.00     0.000 HD 
HETATM   12  C   UNK A   0     -11.406   9.211  70.481  1.00  0.00    -0.257 C  
HETATM   13  H1  UNK A   0      -7.454   6.964  69.597  1.00  0.00     0.000 HD 
HETATM   14  C   UNK A   0     -11.086   8.264  71.651  1.00  0.00    -0.265 C  
HETATM   15  N   UNK A   0      -9.522   8.280  69.430  1.00  0.00    -0.158 NA 
HETATM   16  N   UNK A   0      -8.010   6.939  70.451  1.00  0.00    -0.112 NA 
HETATM   17  N   UNK A   0      -9.892   7.564  71.625  1.00  0.00    -0.162 N  
ENDROOT
BRANCH   3  18
HETATM   18  C   UNK A   0     -11.400  12.387  70.032  1.00  0.00     0.104 C  
BRANCH  18  19
HETATM   19  N   UNK A   0     -11.938  13.748  69.838  1.00  0.00    -0.328 NA 
HETATM   20  H   UNK A   0     -12.928  13.954  69.972  1.00  0.00     0.000 HD 
BRANCH  19  21
HETATM   21  C   UNK A   0     -11.026  14.744  69.459  1.00  0.00    -0.266 A  
HETATM   22  C   UNK A   0      -8.706  15.490  69.412  1.00  0.00    -0.258 A  
HETATM   23  C   UNK A   0      -9.085  16.631  68.704  1.00  0.00    -0.245 A  
HETATM   24  C   UNK A   0     -11.404  15.953  68.869  1.00  0.00    -0.377 A  
HETATM   25  C   UNK A   0      -9.678  14.561  69.795  1.00  0.00     0.426 A  
HETATM   26  C   UNK A   0     -10.441  16.887  68.479  1.00  0.00    -0.361 A  
BRANCH  23  27
HETATM   27  C   UNK A   0      -8.043  17.569  68.214  1.00  0.00    -0.268 C  
ATOM     28  H   GLU A   1      -9.070  19.173  69.061  1.00  0.00     0.000 HD 
ATOM     29  N   GLU A   1      -8.263  18.907  68.497  1.00  0.00    -0.343 N  
HETATM   30  O   UNK A   0      -7.054  17.165  67.624  1.00  0.00    -0.147 OA 
BRANCH  29  31
ATOM     31  CA  GLU A   1      -7.350  19.959  67.999  1.00  0.00    -0.297 C  
ATOM     32  C   GLU A   1      -7.480  20.085  66.462  1.00  0.00    -0.276 C  
ATOM     33  O   GLU A   1      -8.304  19.170  65.902  1.00  0.00    -0.451 OA 
ATOM     34  OXT GLU A   1      -6.865  20.897  65.783  1.00  0.00    -0.138 OA 
BRANCH  31  35
ATOM     35  CB  GLU A   1      -5.903  19.634  68.411  1.00  0.00    -0.247 C  
BRANCH  35  36
ATOM     36  CG  GLU A   1      -5.796  18.910  69.759  1.00  0.00    -0.266 C  
ATOM     37  CD  GLU A   1      -5.600  19.856  70.916  1.00  0.00    -0.282 C  
ATOM     38  OE2 GLU A   1      -5.503  21.069  70.827  1.00  0.00    -0.550 OA 
ATOM     39  OE1 GLU A   1      -5.550  19.200  72.104  1.00  0.00    -0.454 OA 
ENDBRANCH  35  36
ENDBRANCH  31  35
ENDBRANCH  29  31
ENDBRANCH  23  27
ENDBRANCH  19  21
ENDBRANCH  18  19
ENDBRANCH   3  18
TORSDOF 7
ENDMDL
MODEL      234
REMARK 921   NORMALIZED FREE ENERGY PREDICTED BY IDOCK:   -3.83 KCAL/MOL
REMARK 922        TOTAL FREE ENERGY PREDICTED BY IDOCK:   -6.63 KCAL/MOL
REMARK 923 INTER-LIGAND FREE ENERGY PREDICTED BY IDOCK:   -6.50 KCAL/MOL
REMARK 924 INTRA-LIGAND FREE ENERGY PREDICTED BY IDOCK:   -0.14 KCAL/MOL
REMARK 927      BINDING AFFINITY PREDICTED BY RF-SCORE:    0.00 PKD
ROOT
HETATM    1  C   UNK A   0      -8.810   5.006  62.963  1.00  0.00    -0.050 C  
HETATM    2  N   UNK A   0      -8.018   6.112  63.481  1.00  0.00    -0.142 NA 
HETATM    3  C   UNK A   0      -7.716   7.248  62.563  1.00  0.00    -0.122 C  
HETATM    4  O   UNK A   0      -8.887   4.387  65.692  1.00  0.00    -0.118 OA 
HETATM    5  C   UNK A   0      -6.262   7.715  62.826  1.00  0.00    -0.067 C  
HETATM    6  C   UNK A   0      -7.054   6.642  67.489  1.00  0.00    -0.084 C  
HETATM    7  N   UNK A   0      -6.019   7.941  64.262  1.00  0.00    -0.052 NA 
HETATM    8  H   UNK A   0      -5.382   8.678  64.563  1.00  0.00     0.000 HD 
HETATM    9  H2  UNK A   0      -7.228   6.606  69.537  1.00  0.00     0.000 HD 
HETATM   10  C   UNK A   0      -6.663   7.144  65.205  1.00  0.00    -0.047 C  
HETATM   11  H   UNK A   0      -8.400   5.251  68.043  1.00  0.00     0.000 HD 
HETATM   12  C   UNK A   0      -7.586   6.221  64.831  1.00  0.00    -0.092 C  
HETATM   13  H1  UNK A   0      -6.074   7.783  68.920  1.00  0.00     0.000 HD 
HETATM   14  C   UNK A   0      -8.176   5.353  65.957  1.00  0.00    -0.116 C  
HETATM   15  N   UNK A   0      -6.385   7.314  66.529  1.00  0.00    -0.043 NA 
HETATM   16  N   UNK A   0      -6.758   7.047  68.746  1.00  0.00    -0.058 NA 
HETATM   17  N   UNK A   0      -7.919   5.711  67.270  1.00  0.00    -0.102 N  
ENDROOT
BRANCH   3  18
HETATM   18  C   UNK A   0      -8.732   8.403  62.778  1.00  0.00     0.114 C  
BRANCH  18  19
HETATM   19  N   UNK A   0      -8.054   9.657  63.163  1.00  0.00    -0.137 NA 
HETATM   20  H   UNK A   0      -7.192   9.957  62.709  1.00  0.00     0.000 HD 
BRANCH  19  21
HETATM   21  C   UNK A   0      -8.650  10.415  64.182  1.00  0.00    -0.181 A  
HETATM   22  C   UNK A   0      -8.510  11.250  66.467  1.00  0.00    -0.171 A  
HETATM   23  C   UNK A   0      -9.703  11.951  66.286  1.00  0.00    -0.247 A  
HETATM   24  C   UNK A   0      -9.908  11.013  64.063  1.00  0.00    -0.365 A  
HETATM   25  C   UNK A   0      -7.998  10.479  65.419  1.00  0.00    -0.129 A  
HETATM   26  C   UNK A   0     -10.429  11.789  65.102  1.00  0.00    -0.330 A  
BRANCH  23  27
HETATM   27  C   UNK A   0     -10.197  12.845  67.364  1.00  0.00    -0.230 C  
ATOM     28  H   GLU A   1     -11.094  14.081  65.944  1.00  0.00     0.000 HD 
ATOM     29  N   GLU A   1     -10.902  13.961  66.938  1.00  0.00    -0.284 N  
HETATM   30  O   UNK A   0     -10.006  12.585  68.541  1.00  0.00    -0.219 OA 
BRANCH  29  31
ATOM     31  CA  GLU A   1     -11.380  14.980  67.897  1.00  0.00    -0.333 C  
ATOM     32  C   GLU A   1     -10.578  16.290  67.720  1.00  0.00    -0.314 C  
ATOM     33  O   GLU A   1      -9.573  16.202  66.818  1.00  0.00    -0.225 OA 
ATOM     34  OXT GLU A   1     -10.779  17.314  68.359  1.00  0.00    -0.367 OA 
BRANCH  31  35
ATOM     35  CB  GLU A   1     -11.259  14.443  69.335  1.00  0.00    -0.317 C  
BRANCH  35  36
ATOM     36  CG  GLU A   1     -12.582  14.458  70.111  1.00  0.00    -0.340 C  
ATOM     37  CD  GLU A   1     -12.575  15.440  71.256  1.00  0.00    -0.412 C  
ATOM     38  OE2 GLU A   1     -11.630  16.142  71.578  1.00  0.00    -0.450 OA 
ATOM     39  OE1 GLU A   1     -13.768  15.471  71.903  1.00  0.00    -0.469 OA 
ENDBRANCH  35  36
ENDBRANCH  31  35
ENDBRANCH  29  31
ENDBRANCH  23  27
ENDBRANCH  19  21
ENDBRANCH  18  19
ENDBRANCH   3  18
TORSDOF 7
ENDMDL
MODEL      235
REMARK 921   NORMALIZED FREE ENERGY PREDICTED BY IDOCK:   -3.83 KCAL/MOL
REMARK 922        TOTAL FREE ENERGY PREDICTED BY IDOCK:   -6.63 KCAL/MOL
REMARK 923 INTER-LIGAND FREE ENERGY PREDICTED BY IDOCK:   -7.33 KCAL/MOL
REMARK 924 INTRA-LIGAND FREE ENERGY PREDICTED BY IDOCK:    0.70 KCAL/MOL
REMARK 927      BINDING AFFINITY PREDICTED BY RF-SCORE:    0.00 PKD
ROOT
HETATM    1  C   UNK A   0      -9.703   8.880  65.939  1.00  0.00    -0.189 C  
HETATM    2  N   UNK A   0      -9.448   9.394  67.276  1.00  0.00    -0.130 NA 
HETATM    3  C   UNK A   0      -8.248   8.889  68.003  1.00  0.00    -0.110 C  
HETATM    4  O   UNK A   0     -11.511  11.019  65.962  1.00  0.00    -0.027 OA 
HETATM    5  C   UNK A   0      -8.624   8.703  69.495  1.00  0.00    -0.131 C  
HETATM    6  C   UNK A   0     -11.450  12.610  68.985  1.00  0.00    -0.303 C  
HETATM    7  N   UNK A   0      -9.271   9.908  70.043  1.00  0.00    -0.336 NA 
HETATM    8  H   UNK A   0      -9.124  10.170  71.018  1.00  0.00     0.000 HD 
HETATM    9  H2  UNK A   0     -12.432  14.410  69.142  1.00  0.00     0.000 HD 
HETATM   10  C   UNK A   0     -10.085  10.687  69.224  1.00  0.00    -0.206 C  
HETATM   11  H   UNK A   0     -12.231  13.128  67.202  1.00  0.00     0.000 HD 
HETATM   12  C   UNK A   0     -10.220  10.411  67.901  1.00  0.00    -0.179 C  
HETATM   13  H1  UNK A   0     -11.703  13.839  70.639  1.00  0.00     0.000 HD 
HETATM   14  C   UNK A   0     -11.201  11.300  67.117  1.00  0.00    -0.275 C  
HETATM   15  N   UNK A   0     -10.733  11.764  69.753  1.00  0.00    -0.382 NA 
HETATM   16  N   UNK A   0     -11.894  13.705  69.647  1.00  0.00    -0.317 NA 
HETATM   17  N   UNK A   0     -11.692  12.441  67.730  1.00  0.00    -0.353 N  
ENDROOT
BRANCH   3  18
HETATM   18  C   UNK A   0      -7.058   9.873  67.835  1.00  0.00    -0.086 C  
BRANCH  18  19
HETATM   19  N   UNK A   0      -6.855  10.691  69.047  1.00  0.00    -0.064 NA 
HETATM   20  H   UNK A   0      -6.680  10.262  69.956  1.00  0.00     0.000 HD 
BRANCH  19  21
HETATM   21  C   UNK A   0      -6.914  12.083  68.892  1.00  0.00    -0.104 A  
HETATM   22  C   UNK A   0      -7.584  13.964  67.494  1.00  0.00    -0.190 A  
HETATM   23  C   UNK A   0      -7.151  14.853  68.479  1.00  0.00    -0.108 A  
HETATM   24  C   UNK A   0      -6.366  12.986  69.807  1.00  0.00    -0.063 A  
HETATM   25  C   UNK A   0      -7.452  12.588  67.701  1.00  0.00    -0.139 A  
HETATM   26  C   UNK A   0      -6.494  14.364  69.613  1.00  0.00    -0.145 A  
BRANCH  23  27
HETATM   27  C   UNK A   0      -7.378  16.310  68.302  1.00  0.00    -0.145 C  
ATOM     28  H   GLU A   1      -9.434  15.989  68.177  1.00  0.00     0.000 HD 
ATOM     29  N   GLU A   1      -8.697  16.692  68.122  1.00  0.00    -0.196 N  
HETATM   30  O   UNK A   0      -6.451  17.104  68.341  1.00  0.00    -0.150 OA 
BRANCH  29  31
ATOM     31  CA  GLU A   1      -9.060  18.101  67.851  1.00  0.00    -0.265 C  
ATOM     32  C   GLU A   1      -8.823  18.429  66.358  1.00  0.00    -0.248 C  
ATOM     33  O   GLU A   1      -8.261  17.419  65.655  1.00  0.00    -0.491 OA 
ATOM     34  OXT GLU A   1      -9.066  19.512  65.844  1.00  0.00    -0.406 OA 
BRANCH  31  35
ATOM     35  CB  GLU A   1      -8.245  19.035  68.763  1.00  0.00    -0.369 C  
BRANCH  35  36
ATOM     36  CG  GLU A   1      -7.336  20.003  67.997  1.00  0.00    -0.326 C  
ATOM     37  CD  GLU A   1      -6.132  20.432  68.798  1.00  0.00    -0.331 C  
ATOM     38  OE2 GLU A   1      -5.889  20.090  69.944  1.00  0.00    -0.268 OA 
ATOM     39  OE1 GLU A   1      -5.318  21.254  68.089  1.00  0.00    -0.290 OA 
ENDBRANCH  35  36
ENDBRANCH  31  35
ENDBRANCH  29  31
ENDBRANCH  23  27
ENDBRANCH  19  21
ENDBRANCH  18  19
ENDBRANCH   3  18
TORSDOF 7
ENDMDL
MODEL      236
REMARK 921   NORMALIZED FREE ENERGY PREDICTED BY IDOCK:   -3.83 KCAL/MOL
REMARK 922        TOTAL FREE ENERGY PREDICTED BY IDOCK:   -6.62 KCAL/MOL
REMARK 923 INTER-LIGAND FREE ENERGY PREDICTED BY IDOCK:   -6.53 KCAL/MOL
REMARK 924 INTRA-LIGAND FREE ENERGY PREDICTED BY IDOCK:   -0.09 KCAL/MOL
REMARK 927      BINDING AFFINITY PREDICTED BY RF-SCORE:    0.00 PKD
ROOT
HETATM    1  C   UNK A   0     -11.744  14.269  70.284  1.00  0.00    -0.275 C  
HETATM    2  N   UNK A   0     -11.766  12.914  69.755  1.00  0.00    -0.440 NA 
HETATM    3  C   UNK A   0     -10.944  12.620  68.545  1.00  0.00    -0.261 C  
HETATM    4  O   UNK A   0     -13.003  12.964  72.417  1.00  0.00    -0.294 OA 
HETATM    5  C   UNK A   0     -11.747  11.659  67.632  1.00  0.00    -0.228 C  
HETATM    6  C   UNK A   0     -13.446   9.651  71.706  1.00  0.00    -0.394 C  
HETATM    7  N   UNK A   0     -12.254  10.498  68.384  1.00  0.00    -0.652 NA 
HETATM    8  H   UNK A   0     -12.329   9.588  67.931  1.00  0.00     0.000 HD 
HETATM    9  H2  UNK A   0     -14.037   8.412  73.236  1.00  0.00     0.000 HD 
HETATM   10  C   UNK A   0     -12.631  10.650  69.717  1.00  0.00    -0.023 C  
HETATM   11  H   UNK A   0     -13.582  10.692  73.424  1.00  0.00     0.000 HD 
HETATM   12  C   UNK A   0     -12.451  11.828  70.367  1.00  0.00    -0.197 C  
HETATM   13  H1  UNK A   0     -13.883   7.622  71.670  1.00  0.00     0.000 HD 
HETATM   14  C   UNK A   0     -12.971  11.894  71.814  1.00  0.00    -0.350 C  
HETATM   15  N   UNK A   0     -13.161   9.589  70.388  1.00  0.00    -0.308 NA 
HETATM   16  N   UNK A   0     -13.818   8.464  72.241  1.00  0.00    -0.560 NA 
HETATM   17  N   UNK A   0     -13.364  10.716  72.427  1.00  0.00    -0.524 N  
ENDROOT
BRANCH   3  18
HETATM   18  C   UNK A   0      -9.577  12.009  68.954  1.00  0.00     0.117 C  
BRANCH  18  19
HETATM   19  N   UNK A   0      -9.744  10.896  69.909  1.00  0.00    -0.184 NA 
HETATM   20  H   UNK A   0     -10.262  11.014  70.780  1.00  0.00     0.000 HD 
BRANCH  19  21
HETATM   21  C   UNK A   0      -9.158   9.669  69.565  1.00  0.00    -0.199 A  
HETATM   22  C   UNK A   0      -7.186   8.241  69.655  1.00  0.00    -0.061 A  
HETATM   23  C   UNK A   0      -7.884   7.230  68.993  1.00  0.00    -0.118 A  
HETATM   24  C   UNK A   0      -9.798   8.699  68.787  1.00  0.00    -0.180 A  
HETATM   25  C   UNK A   0      -7.822   9.456  69.926  1.00  0.00    -0.126 A  
HETATM   26  C   UNK A   0      -9.174   7.480  68.513  1.00  0.00    -0.143 A  
BRANCH  23  27
HETATM   27  C   UNK A   0      -7.241   5.907  68.790  1.00  0.00    -0.083 C  
ATOM     28  H   GLU A   1      -7.999   5.822  66.850  1.00  0.00     0.000 HD 
ATOM     29  N   GLU A   1      -7.469   5.314  67.558  1.00  0.00    -0.083 N  
HETATM   30  O   UNK A   0      -6.542   5.403  69.655  1.00  0.00    -0.043 OA 
BRANCH  29  31
ATOM     31  CA  GLU A   1      -6.959   3.960  67.250  1.00  0.00    -0.055 C  
ATOM     32  C   GLU A   1      -5.873   4.043  66.152  1.00  0.00    -0.023 C  
ATOM     33  O   GLU A   1      -5.692   5.286  65.650  1.00  0.00    -0.013 OA 
ATOM     34  OXT GLU A   1      -5.255   3.079  65.720  1.00  0.00    -0.008 OA 
BRANCH  31  35
ATOM     35  CB  GLU A   1      -8.122   3.049  66.817  1.00  0.00    -0.081 C  
BRANCH  35  36
ATOM     36  CG  GLU A   1      -9.494   3.734  66.874  1.00  0.00    -0.224 C  
ATOM     37  CD  GLU A   1      -9.909   4.320  65.548  1.00  0.00    -0.215 C  
ATOM     38  OE2 GLU A   1      -9.242   4.298  64.527  1.00  0.00    -0.147 OA 
ATOM     39  OE1 GLU A   1     -11.142   4.883  65.608  1.00  0.00    -0.156 OA 
ENDBRANCH  35  36
ENDBRANCH  31  35
ENDBRANCH  29  31
ENDBRANCH  23  27
ENDBRANCH  19  21
ENDBRANCH  18  19
ENDBRANCH   3  18
TORSDOF 7
ENDMDL
MODEL      237
REMARK 921   NORMALIZED FREE ENERGY PREDICTED BY IDOCK:   -3.83 KCAL/MOL
REMARK 922        TOTAL FREE ENERGY PREDICTED BY IDOCK:   -6.62 KCAL/MOL
REMARK 923 INTER-LIGAND FREE ENERGY PREDICTED BY IDOCK:   -6.81 KCAL/MOL
REMARK 924 INTRA-LIGAND FREE ENERGY PREDICTED BY IDOCK:    0.18 KCAL/MOL
REMARK 927      BINDING AFFINITY PREDICTED BY RF-SCORE:    0.00 PKD
ROOT
HETATM    1  C   UNK A   0      -7.596   2.756  67.581  1.00  0.00    -0.057 C  
HETATM    2  N   UNK A   0      -8.236   3.994  67.161  1.00  0.00    -0.099 NA 
HETATM    3  C   UNK A   0      -9.117   4.694  68.139  1.00  0.00    -0.120 C  
HETATM    4  O   UNK A   0      -6.163   3.236  65.224  1.00  0.00    -0.023 OA 
HETATM    5  C   UNK A   0     -10.341   5.260  67.376  1.00  0.00    -0.180 C  
HETATM    6  C   UNK A   0      -7.316   6.052  63.670  1.00  0.00    -0.066 C  
HETATM    7  N   UNK A   0      -9.929   6.028  66.188  1.00  0.00    -0.386 NA 
HETATM    8  H   UNK A   0     -10.471   6.839  65.890  1.00  0.00     0.000 HD 
HETATM    9  H2  UNK A   0      -6.213   6.806  62.107  1.00  0.00     0.000 HD 
HETATM   10  C   UNK A   0      -8.796   5.642  65.475  1.00  0.00    -0.130 C  
HETATM   11  H   UNK A   0      -5.650   4.952  63.407  1.00  0.00     0.000 HD 
HETATM   12  C   UNK A   0      -8.007   4.625  65.908  1.00  0.00    -0.099 C  
HETATM   13  H1  UNK A   0      -7.705   7.680  62.440  1.00  0.00     0.000 HD 
HETATM   14  C   UNK A   0      -6.825   4.246  64.998  1.00  0.00    -0.050 C  
HETATM   15  N   UNK A   0      -8.457   6.317  64.340  1.00  0.00    -0.343 NA 
HETATM   16  N   UNK A   0      -7.063   6.918  62.659  1.00  0.00    -0.052 NA 
HETATM   17  N   UNK A   0      -6.505   5.089  63.947  1.00  0.00    -0.032 N  
ENDROOT
BRANCH   3  18
HETATM   18  C   UNK A   0      -8.332   5.819  68.867  1.00  0.00    -0.101 C  
BRANCH  18  19
HETATM   19  N   UNK A   0      -9.234   6.705  69.630  1.00  0.00    -0.145 NA 
HETATM   20  H   UNK A   0      -9.656   6.406  70.509  1.00  0.00     0.000 HD 
BRANCH  19  21
HETATM   21  C   UNK A   0      -9.483   7.975  69.090  1.00  0.00    -0.155 A  
HETATM   22  C   UNK A   0      -8.561   9.992  68.080  1.00  0.00    -0.121 A  
HETATM   23  C   UNK A   0      -9.848  10.509  67.930  1.00  0.00    -0.181 A  
HETATM   24  C   UNK A   0     -10.751   8.563  69.055  1.00  0.00    -0.113 A  
HETATM   25  C   UNK A   0      -8.385   8.736  68.668  1.00  0.00    -0.128 A  
HETATM   26  C   UNK A   0     -10.939   9.816  68.466  1.00  0.00    -0.195 A  
BRANCH  23  27
HETATM   27  C   UNK A   0     -10.042  11.798  67.220  1.00  0.00    -0.192 C  
ATOM     28  H   GLU A   1     -11.913  12.023  68.111  1.00  0.00     0.000 HD 
ATOM     29  N   GLU A   1     -11.256  12.428  67.445  1.00  0.00    -0.278 N  
HETATM   30  O   UNK A   0      -9.168  12.268  66.508  1.00  0.00    -0.221 OA 
BRANCH  29  31
ATOM     31  CA  GLU A   1     -11.617  13.677  66.739  1.00  0.00    -0.364 C  
ATOM     32  C   GLU A   1     -12.349  13.343  65.418  1.00  0.00    -0.477 C  
ATOM     33  O   GLU A   1     -12.418  12.020  65.146  1.00  0.00    -0.425 OA 
ATOM     34  OXT GLU A   1     -12.791  14.182  64.644  1.00  0.00    -0.663 OA 
BRANCH  31  35
ATOM     35  CB  GLU A   1     -10.352  14.515  66.479  1.00  0.00    -0.283 C  
BRANCH  35  36
ATOM     36  CG  GLU A   1     -10.643  15.991  66.183  1.00  0.00    -0.302 C  
ATOM     37  CD  GLU A   1     -10.001  16.924  67.180  1.00  0.00    -0.276 C  
ATOM     38  OE2 GLU A   1      -9.341  16.577  68.146  1.00  0.00    -0.211 OA 
ATOM     39  OE1 GLU A   1     -10.234  18.226  66.878  1.00  0.00    -0.338 OA 
ENDBRANCH  35  36
ENDBRANCH  31  35
ENDBRANCH  29  31
ENDBRANCH  23  27
ENDBRANCH  19  21
ENDBRANCH  18  19
ENDBRANCH   3  18
TORSDOF 7
ENDMDL
MODEL      238
REMARK 921   NORMALIZED FREE ENERGY PREDICTED BY IDOCK:   -3.79 KCAL/MOL
REMARK 922        TOTAL FREE ENERGY PREDICTED BY IDOCK:   -6.57 KCAL/MOL
REMARK 923 INTER-LIGAND FREE ENERGY PREDICTED BY IDOCK:   -6.68 KCAL/MOL
REMARK 924 INTRA-LIGAND FREE ENERGY PREDICTED BY IDOCK:    0.11 KCAL/MOL
REMARK 927      BINDING AFFINITY PREDICTED BY RF-SCORE:    0.00 PKD
ROOT
HETATM    1  C   UNK A   0      -7.427   7.723  71.782  1.00  0.00    -0.072 C  
HETATM    2  N   UNK A   0      -8.831   7.369  71.633  1.00  0.00    -0.117 NA 
HETATM    3  C   UNK A   0      -9.625   8.078  70.589  1.00  0.00    -0.166 C  
HETATM    4  O   UNK A   0      -7.481   5.396  73.339  1.00  0.00    -0.093 OA 
HETATM    5  C   UNK A   0     -11.040   8.356  71.157  1.00  0.00    -0.256 C  
HETATM    6  C   UNK A   0     -10.644   4.110  73.466  1.00  0.00    -0.207 C  
HETATM    7  N   UNK A   0     -11.639   7.138  71.731  1.00  0.00    -0.269 NA 
HETATM    8  H   UNK A   0     -12.646   6.987  71.673  1.00  0.00     0.000 HD 
HETATM    9  H2  UNK A   0     -10.883   2.228  74.260  1.00  0.00     0.000 HD 
HETATM   10  C   UNK A   0     -10.824   6.195  72.354  1.00  0.00    -0.243 C  
HETATM   11  H   UNK A   0      -8.853   3.340  73.970  1.00  0.00     0.000 HD 
HETATM   12  C   UNK A   0      -9.473   6.329  72.359  1.00  0.00    -0.144 C  
HETATM   13  H1  UNK A   0     -12.382   3.018  73.780  1.00  0.00     0.000 HD 
HETATM   14  C   UNK A   0      -8.686   5.262  73.140  1.00  0.00    -0.120 C  
HETATM   15  N   UNK A   0     -11.391   5.103  72.941  1.00  0.00    -0.296 NA 
HETATM   16  N   UNK A   0     -11.366   3.036  73.866  1.00  0.00    -0.092 NA 
HETATM   17  N   UNK A   0      -9.359   4.133  73.575  1.00  0.00    -0.104 N  
ENDROOT
BRANCH   3  18
HETATM   18  C   UNK A   0      -9.690   7.231  69.289  1.00  0.00    -0.161 C  
BRANCH  18  19
HETATM   19  N   UNK A   0      -8.930   7.862  68.191  1.00  0.00    -0.132 NA 
HETATM   20  H   UNK A   0      -8.386   7.306  67.532  1.00  0.00     0.000 HD 
BRANCH  19  21
HETATM   21  C   UNK A   0      -8.992   9.260  68.098  1.00  0.00    -0.128 A  
HETATM   22  C   UNK A   0     -10.212  11.211  67.294  1.00  0.00    -0.227 A  
HETATM   23  C   UNK A   0      -9.269  12.049  67.889  1.00  0.00    -0.190 A  
HETATM   24  C   UNK A   0      -7.988  10.110  68.572  1.00  0.00    -0.104 A  
HETATM   25  C   UNK A   0     -10.062   9.824  67.391  1.00  0.00    -0.259 A  
HETATM   26  C   UNK A   0      -8.129  11.497  68.483  1.00  0.00    -0.146 A  
BRANCH  23  27
HETATM   27  C   UNK A   0      -9.478  13.519  67.868  1.00  0.00    -0.215 C  
ATOM     28  H   GLU A   1      -7.864  13.744  66.568  1.00  0.00     0.000 HD 
ATOM     29  N   GLU A   1      -8.572  14.241  67.108  1.00  0.00    -0.216 N  
HETATM   30  O   UNK A   0     -10.407  14.035  68.469  1.00  0.00    -0.237 OA 
BRANCH  29  31
ATOM     31  CA  GLU A   1      -8.611  15.719  67.064  1.00  0.00    -0.218 C  
ATOM     32  C   GLU A   1      -7.842  16.304  68.272  1.00  0.00    -0.164 C  
ATOM     33  O   GLU A   1      -7.391  15.371  69.142  1.00  0.00    -0.144 OA 
ATOM     34  OXT GLU A   1      -7.684  17.500  68.475  1.00  0.00    -0.252 OA 
BRANCH  31  35
ATOM     35  CB  GLU A   1     -10.072  16.203  67.046  1.00  0.00    -0.270 C  
BRANCH  35  36
ATOM     36  CG  GLU A   1     -10.399  17.128  65.867  1.00  0.00    -0.294 C  
ATOM     37  CD  GLU A   1     -10.478  18.580  66.268  1.00  0.00    -0.406 C  
ATOM     38  OE2 GLU A   1     -10.333  19.007  67.401  1.00  0.00    -0.370 OA 
ATOM     39  OE1 GLU A   1     -10.726  19.386  65.204  1.00  0.00    -0.365 OA 
ENDBRANCH  35  36
ENDBRANCH  31  35
ENDBRANCH  29  31
ENDBRANCH  23  27
ENDBRANCH  19  21
ENDBRANCH  18  19
ENDBRANCH   3  18
TORSDOF 7
ENDMDL
MODEL      239
REMARK 921   NORMALIZED FREE ENERGY PREDICTED BY IDOCK:   -3.72 KCAL/MOL
REMARK 922        TOTAL FREE ENERGY PREDICTED BY IDOCK:   -6.48 KCAL/MOL
REMARK 923 INTER-LIGAND FREE ENERGY PREDICTED BY IDOCK:   -6.07 KCAL/MOL
REMARK 924 INTRA-LIGAND FREE ENERGY PREDICTED BY IDOCK:   -0.41 KCAL/MOL
REMARK 927      BINDING AFFINITY PREDICTED BY RF-SCORE:    0.00 PKD
ROOT
HETATM    1  C   UNK A   0      -7.912   9.866  70.040  1.00  0.00    -0.180 C  
HETATM    2  N   UNK A   0      -8.569   8.584  69.831  1.00  0.00    -0.128 NA 
HETATM    3  C   UNK A   0     -10.058   8.566  69.745  1.00  0.00    -0.197 C  
HETATM    4  O   UNK A   0      -5.683   8.312  69.362  1.00  0.00    -0.030 OA 
HETATM    5  C   UNK A   0     -10.573   7.302  70.481  1.00  0.00    -0.222 C  
HETATM    6  C   UNK A   0      -6.598   5.063  68.836  1.00  0.00    -0.048 C  
HETATM    7  N   UNK A   0      -9.869   6.090  70.027  1.00  0.00    -0.167 NA 
HETATM    8  H   UNK A   0     -10.362   5.198  69.985  1.00  0.00     0.000 HD 
HETATM    9  H2  UNK A   0      -5.210   3.798  68.000  1.00  0.00     0.000 HD 
HETATM   10  C   UNK A   0      -8.529   6.167  69.657  1.00  0.00    -0.127 C  
HETATM   11  H   UNK A   0      -4.911   6.075  68.410  1.00  0.00     0.000 HD 
HETATM   12  C   UNK A   0      -7.880   7.360  69.615  1.00  0.00    -0.117 C  
HETATM   13  H1  UNK A   0      -6.737   3.032  68.425  1.00  0.00     0.000 HD 
HETATM   14  C   UNK A   0      -6.383   7.308  69.260  1.00  0.00    -0.036 C  
HETATM   15  N   UNK A   0      -7.865   5.031  69.301  1.00  0.00    -0.075 NA 
HETATM   16  N   UNK A   0      -6.152   3.866  68.386  1.00  0.00    -0.030 NA 
HETATM   17  N   UNK A   0      -5.858   6.117  68.787  1.00  0.00    -0.018 N  
ENDROOT
BRANCH   3  18
HETATM   18  C   UNK A   0     -10.516   8.587  68.262  1.00  0.00    -0.171 C  
BRANCH  18  19
HETATM   19  N   UNK A   0     -11.051   9.909  67.878  1.00  0.00    -0.492 NA 
HETATM   20  H   UNK A   0     -12.039  10.041  67.661  1.00  0.00     0.000 HD 
BRANCH  19  21
HETATM   21  C   UNK A   0     -10.139  10.973  67.825  1.00  0.00    -0.177 A  
HETATM   22  C   UNK A   0      -8.103  11.882  66.840  1.00  0.00    -0.146 A  
HETATM   23  C   UNK A   0      -8.270  13.056  67.574  1.00  0.00    -0.181 A  
HETATM   24  C   UNK A   0     -10.217  12.099  68.649  1.00  0.00    -0.186 A  
HETATM   25  C   UNK A   0      -9.030  10.844  66.978  1.00  0.00    -0.148 A  
HETATM   26  C   UNK A   0      -9.299  13.143  68.518  1.00  0.00    -0.085 A  
BRANCH  23  27
HETATM   27  C   UNK A   0      -7.340  14.194  67.357  1.00  0.00    -0.120 C  
ATOM     28  H   GLU A   1      -8.926  15.538  67.526  1.00  0.00     0.000 HD 
ATOM     29  N   GLU A   1      -7.927  15.450  67.337  1.00  0.00    -0.170 N  
HETATM   30  O   UNK A   0      -6.139  14.016  67.231  1.00  0.00    -0.309 OA 
BRANCH  29  31
ATOM     31  CA  GLU A   1      -7.134  16.664  67.049  1.00  0.00    -0.203 C  
ATOM     32  C   GLU A   1      -6.581  17.259  68.365  1.00  0.00    -0.174 C  
ATOM     33  O   GLU A   1      -7.005  16.619  69.479  1.00  0.00    -0.225 OA 
ATOM     34  OXT GLU A   1      -5.864  18.249  68.427  1.00  0.00    -0.178 OA 
BRANCH  31  35
ATOM     35  CB  GLU A   1      -8.002  17.689  66.296  1.00  0.00    -0.292 C  
BRANCH  35  36
ATOM     36  CG  GLU A   1      -8.592  18.778  67.200  1.00  0.00    -0.287 C  
ATOM     37  CD  GLU A   1      -9.806  19.442  66.600  1.00  0.00    -0.374 C  
ATOM     38  OE2 GLU A   1     -10.279  19.187  65.504  1.00  0.00    -0.430 OA 
ATOM     39  OE1 GLU A   1     -10.338  20.372  67.432  1.00  0.00    -0.344 OA 
ENDBRANCH  35  36
ENDBRANCH  31  35
ENDBRANCH  29  31
ENDBRANCH  23  27
ENDBRANCH  19  21
ENDBRANCH  18  19
ENDBRANCH   3  18
TORSDOF 7
ENDMDL
MODEL      240
REMARK 921   NORMALIZED FREE ENERGY PREDICTED BY IDOCK:   -3.71 KCAL/MOL
REMARK 922        TOTAL FREE ENERGY PREDICTED BY IDOCK:   -6.46 KCAL/MOL
REMARK 923 INTER-LIGAND FREE ENERGY PREDICTED BY IDOCK:   -6.41 KCAL/MOL
REMARK 924 INTRA-LIGAND FREE ENERGY PREDICTED BY IDOCK:   -0.05 KCAL/MOL
REMARK 927      BINDING AFFINITY PREDICTED BY RF-SCORE:    0.00 PKD
ROOT
HETATM    1  C   UNK A   0     -11.154   6.672  67.094  1.00  0.00    -0.357 C  
HETATM    2  N   UNK A   0      -9.899   6.028  67.452  1.00  0.00    -0.123 NA 
HETATM    3  C   UNK A   0      -8.814   5.988  66.430  1.00  0.00    -0.136 C  
HETATM    4  O   UNK A   0     -11.538   6.428  69.856  1.00  0.00    -0.429 OA 
HETATM    5  C   UNK A   0      -8.109   4.611  66.521  1.00  0.00    -0.103 C  
HETATM    6  C   UNK A   0      -8.880   4.841  71.303  1.00  0.00    -0.127 C  
HETATM    7  N   UNK A   0      -7.724   4.292  67.907  1.00  0.00    -0.079 NA 
HETATM    8  H   UNK A   0      -6.875   3.759  68.092  1.00  0.00     0.000 HD 
HETATM    9  H2  UNK A   0      -8.763   4.841  73.356  1.00  0.00     0.000 HD 
HETATM   10  C   UNK A   0      -8.526   4.722  68.962  1.00  0.00    -0.081 C  
HETATM   11  H   UNK A   0     -10.407   5.898  72.081  1.00  0.00     0.000 HD 
HETATM   12  C   UNK A   0      -9.608   5.512  68.745  1.00  0.00    -0.135 C  
HETATM   13  H1  UNK A   0      -7.481   3.944  72.548  1.00  0.00     0.000 HD 
HETATM   14  C   UNK A   0     -10.454   5.862  69.982  1.00  0.00    -0.266 C  
HETATM   15  N   UNK A   0      -8.199   4.368  70.238  1.00  0.00    -0.065 NA 
HETATM   16  N   UNK A   0      -8.326   4.512  72.494  1.00  0.00    -0.108 NA 
HETATM   17  N   UNK A   0      -9.948   5.560  71.235  1.00  0.00    -0.185 N  
ENDROOT
BRANCH   3  18
HETATM   18  C   UNK A   0      -7.815   7.155  66.654  1.00  0.00    -0.109 C  
BRANCH  18  19
HETATM   19  N   UNK A   0      -7.996   8.225  65.653  1.00  0.00    -0.106 NA 
HETATM   20  H   UNK A   0      -7.721   8.095  64.679  1.00  0.00     0.000 HD 
BRANCH  19  21
HETATM   21  C   UNK A   0      -8.562   9.427  66.102  1.00  0.00    -0.136 A  
HETATM   22  C   UNK A   0      -8.533  11.214  67.759  1.00  0.00    -0.124 A  
HETATM   23  C   UNK A   0      -9.560  11.866  67.076  1.00  0.00    -0.196 A  
HETATM   24  C   UNK A   0      -9.677  10.024  65.508  1.00  0.00    -0.355 A  
HETATM   25  C   UNK A   0      -8.049   9.995  67.275  1.00  0.00    -0.114 A  
HETATM   26  C   UNK A   0     -10.168  11.244  65.980  1.00  0.00    -0.295 A  
BRANCH  23  27
HETATM   27  C   UNK A   0     -10.010  13.205  67.534  1.00  0.00    -0.223 C  
ATOM     28  H   GLU A   1      -8.651  13.135  69.115  1.00  0.00     0.000 HD 
ATOM     29  N   GLU A   1      -9.398  13.680  68.684  1.00  0.00    -0.119 N  
HETATM   30  O   UNK A   0     -10.846  13.841  66.912  1.00  0.00    -0.282 OA 
BRANCH  29  31
ATOM     31  CA  GLU A   1      -9.807  14.961  69.300  1.00  0.00    -0.159 C  
ATOM     32  C   GLU A   1     -11.000  14.731  70.257  1.00  0.00    -0.097 C  
ATOM     33  O   GLU A   1     -11.467  13.461  70.258  1.00  0.00    -0.104 OA 
ATOM     34  OXT GLU A   1     -11.526  15.609  70.927  1.00  0.00    -0.321 OA 
BRANCH  31  35
ATOM     35  CB  GLU A   1     -10.163  15.979  68.201  1.00  0.00    -0.243 C  
BRANCH  35  36
ATOM     36  CG  GLU A   1      -9.065  17.020  67.947  1.00  0.00    -0.232 C  
ATOM     37  CD  GLU A   1      -9.618  18.389  67.641  1.00  0.00    -0.279 C  
ATOM     38  OE2 GLU A   1     -10.803  18.670  67.565  1.00  0.00    -0.435 OA 
ATOM     39  OE1 GLU A   1      -8.633  19.305  67.462  1.00  0.00    -0.283 OA 
ENDBRANCH  35  36
ENDBRANCH  31  35
ENDBRANCH  29  31
ENDBRANCH  23  27
ENDBRANCH  19  21
ENDBRANCH  18  19
ENDBRANCH   3  18
TORSDOF 7
ENDMDL
MODEL      241
REMARK 921   NORMALIZED FREE ENERGY PREDICTED BY IDOCK:   -3.70 KCAL/MOL
REMARK 922        TOTAL FREE ENERGY PREDICTED BY IDOCK:   -6.44 KCAL/MOL
REMARK 923 INTER-LIGAND FREE ENERGY PREDICTED BY IDOCK:   -5.86 KCAL/MOL
REMARK 924 INTRA-LIGAND FREE ENERGY PREDICTED BY IDOCK:   -0.58 KCAL/MOL
REMARK 927      BINDING AFFINITY PREDICTED BY RF-SCORE:    0.00 PKD
ROOT
HETATM    1  C   UNK A   0     -10.635  15.224  68.611  1.00  0.00    -0.236 C  
HETATM    2  N   UNK A   0      -9.235  15.580  68.438  1.00  0.00    -0.187 NA 
HETATM    3  C   UNK A   0      -8.205  14.550  68.757  1.00  0.00    -0.146 C  
HETATM    4  O   UNK A   0     -10.943  17.609  67.178  1.00  0.00    -0.174 OA 
HETATM    5  C   UNK A   0      -7.010  15.254  69.450  1.00  0.00    -0.180 C  
HETATM    6  C   UNK A   0      -7.902  19.029  66.540  1.00  0.00    -0.268 C  
HETATM    7  N   UNK A   0      -6.557  16.428  68.684  1.00  0.00    -0.136 NA 
HETATM    8  H   UNK A   0      -5.569  16.681  68.671  1.00  0.00     0.000 HD 
HETATM    9  H2  UNK A   0      -7.835  20.601  65.216  1.00  0.00     0.000 HD 
HETATM   10  C   UNK A   0      -7.483  17.190  67.976  1.00  0.00    -0.195 C  
HETATM   11  H   UNK A   0      -9.739  19.384  65.796  1.00  0.00     0.000 HD 
HETATM   12  C   UNK A   0      -8.787  16.819  67.901  1.00  0.00    -0.218 C  
HETATM   13  H1  UNK A   0      -6.286  20.190  65.945  1.00  0.00     0.000 HD 
HETATM   14  C   UNK A   0      -9.727  17.780  67.151  1.00  0.00    -0.288 C  
HETATM   15  N   UNK A   0      -7.068  18.313  67.323  1.00  0.00    -0.197 NA 
HETATM   16  N   UNK A   0      -7.286  20.017  65.848  1.00  0.00    -0.322 NA 
HETATM   17  N   UNK A   0      -9.166  18.811  66.417  1.00  0.00    -0.322 N  
ENDROOT
BRANCH   3  18
HETATM   18  C   UNK A   0      -7.759  13.811  67.466  1.00  0.00    -0.176 C  
BRANCH  18  19
HETATM   19  N   UNK A   0      -8.686  12.716  67.120  1.00  0.00    -0.196 NA 
HETATM   20  H   UNK A   0      -9.270  12.755  66.285  1.00  0.00     0.000 HD 
BRANCH  19  21
HETATM   21  C   UNK A   0      -8.728  11.619  67.994  1.00  0.00    -0.157 A  
HETATM   22  C   UNK A   0     -10.031  10.314  69.587  1.00  0.00    -0.240 A  
HETATM   23  C   UNK A   0      -8.968   9.423  69.730  1.00  0.00    -0.199 A  
HETATM   24  C   UNK A   0      -7.629  10.794  68.250  1.00  0.00    -0.098 A  
HETATM   25  C   UNK A   0      -9.901  11.412  68.731  1.00  0.00    -0.175 A  
HETATM   26  C   UNK A   0      -7.748   9.693  69.101  1.00  0.00    -0.087 A  
BRANCH  23  27
HETATM   27  C   UNK A   0      -9.139   8.206  70.565  1.00  0.00    -0.150 C  
ATOM     28  H   GLU A   1      -9.240   7.027  68.849  1.00  0.00     0.000 HD 
ATOM     29  N   GLU A   1      -9.302   7.020  69.867  1.00  0.00    -0.151 N  
HETATM   30  O   UNK A   0      -9.110   8.265  71.784  1.00  0.00    -0.156 OA 
BRANCH  29  31
ATOM     31  CA  GLU A   1      -9.565   5.745  70.568  1.00  0.00    -0.173 C  
ATOM     32  C   GLU A   1      -9.329   4.556  69.608  1.00  0.00    -0.151 C  
ATOM     33  O   GLU A   1      -9.034   4.923  68.340  1.00  0.00    -0.104 OA 
ATOM     34  OXT GLU A   1      -9.442   3.380  69.927  1.00  0.00    -0.169 OA 
BRANCH  31  35
ATOM     35  CB  GLU A   1     -11.002   5.739  71.121  1.00  0.00    -0.295 C  
BRANCH  35  36
ATOM     36  CG  GLU A   1     -11.254   4.648  72.169  1.00  0.00     0.259 C  
ATOM     37  CD  GLU A   1     -10.769   5.036  73.543  1.00  0.00    -0.282 C  
ATOM     38  OE2 GLU A   1     -10.207   6.082  73.823  1.00  0.00    -0.205 OA 
ATOM     39  OE1 GLU A   1     -11.038   4.076  74.465  1.00  0.00    -0.084 OA 
ENDBRANCH  35  36
ENDBRANCH  31  35
ENDBRANCH  29  31
ENDBRANCH  23  27
ENDBRANCH  19  21
ENDBRANCH  18  19
ENDBRANCH   3  18
TORSDOF 7
ENDMDL
MODEL      242
REMARK 921   NORMALIZED FREE ENERGY PREDICTED BY IDOCK:   -3.63 KCAL/MOL
REMARK 922        TOTAL FREE ENERGY PREDICTED BY IDOCK:   -6.35 KCAL/MOL
REMARK 923 INTER-LIGAND FREE ENERGY PREDICTED BY IDOCK:   -6.14 KCAL/MOL
REMARK 924 INTRA-LIGAND FREE ENERGY PREDICTED BY IDOCK:   -0.21 KCAL/MOL
REMARK 927      BINDING AFFINITY PREDICTED BY RF-SCORE:    0.00 PKD
ROOT
HETATM    1  C   UNK A   0      -9.255  15.517  69.765  1.00  0.00    -0.098 C  
HETATM    2  N   UNK A   0      -8.534  16.284  68.761  1.00  0.00    -0.227 NA 
HETATM    3  C   UNK A   0      -7.114  15.919  68.486  1.00  0.00    -0.124 C  
HETATM    4  O   UNK A   0     -11.403  16.889  68.605  1.00  0.00    -0.193 OA 
HETATM    5  C   UNK A   0      -6.308  17.225  68.267  1.00  0.00    -0.161 C  
HETATM    6  C   UNK A   0     -10.297  19.005  66.161  1.00  0.00    -0.468 C  
HETATM    7  N   UNK A   0      -6.966  18.106  67.286  1.00  0.00    -0.191 NA 
HETATM    8  H   UNK A   0      -6.406  18.690  66.665  1.00  0.00     0.000 HD 
HETATM    9  H2  UNK A   0     -11.702  19.871  64.934  1.00  0.00     0.000 HD 
HETATM   10  C   UNK A   0      -8.357  18.139  67.211  1.00  0.00    -0.241 C  
HETATM   11  H   UNK A   0     -12.136  18.334  66.635  1.00  0.00     0.000 HD 
HETATM   12  C   UNK A   0      -9.120  17.303  67.961  1.00  0.00    -0.249 C  
HETATM   13  H1  UNK A   0     -10.045  20.379  64.624  1.00  0.00     0.000 HD 
HETATM   14  C   UNK A   0     -10.644  17.483  67.843  1.00  0.00    -0.390 C  
HETATM   15  N   UNK A   0      -8.961  19.004  66.348  1.00  0.00    -0.329 NA 
HETATM   16  N   UNK A   0     -10.708  19.818  65.159  1.00  0.00    -0.218 NA 
HETATM   17  N   UNK A   0     -11.136  18.296  66.837  1.00  0.00     0.096 N  
ENDROOT
BRANCH   3  18
HETATM   18  C   UNK A   0      -7.024  14.981  67.252  1.00  0.00    -0.052 C  
BRANCH  18  19
HETATM   19  N   UNK A   0      -8.190  14.078  67.171  1.00  0.00    -0.324 NA 
HETATM   20  H   UNK A   0      -8.988  14.292  66.573  1.00  0.00     0.000 HD 
BRANCH  19  21
HETATM   21  C   UNK A   0      -8.149  12.915  67.953  1.00  0.00    -0.161 A  
HETATM   22  C   UNK A   0      -9.301  10.897  68.688  1.00  0.00    -0.188 A  
HETATM   23  C   UNK A   0      -8.177  10.522  69.426  1.00  0.00    -0.128 A  
HETATM   24  C   UNK A   0      -7.086  12.591  68.800  1.00  0.00    -0.092 A  
HETATM   25  C   UNK A   0      -9.285  12.094  67.967  1.00  0.00    -0.194 A  
HETATM   26  C   UNK A   0      -7.089  11.396  69.523  1.00  0.00    -0.020 A  
BRANCH  23  27
HETATM   27  C   UNK A   0      -8.158   9.206  70.114  1.00  0.00    -0.140 C  
ATOM     28  H   GLU A   1      -8.804   8.268  68.366  1.00  0.00     0.000 HD 
ATOM     29  N   GLU A   1      -8.571   8.126  69.349  1.00  0.00    -0.134 N  
HETATM   30  O   UNK A   0      -7.777   9.100  71.269  1.00  0.00    -0.266 OA 
BRANCH  29  31
ATOM     31  CA  GLU A   1      -8.681   6.770  69.930  1.00  0.00    -0.141 C  
ATOM     32  C   GLU A   1      -7.582   5.853  69.344  1.00  0.00    -0.092 C  
ATOM     33  O   GLU A   1      -6.834   6.439  68.380  1.00  0.00    -0.065 OA 
ATOM     34  OXT GLU A   1      -7.413   4.685  69.666  1.00  0.00    -0.051 OA 
BRANCH  31  35
ATOM     35  CB  GLU A   1     -10.085   6.198  69.663  1.00  0.00    -0.226 C  
BRANCH  35  36
ATOM     36  CG  GLU A   1     -10.137   5.224  68.479  1.00  0.00    -0.232 C  
ATOM     37  CD  GLU A   1     -10.441   5.911  67.171  1.00  0.00    -0.272 C  
ATOM     38  OE2 GLU A   1     -10.656   7.104  67.034  1.00  0.00    -0.297 OA 
ATOM     39  OE1 GLU A   1     -10.440   5.040  66.130  1.00  0.00    -0.276 OA 
ENDBRANCH  35  36
ENDBRANCH  31  35
ENDBRANCH  29  31
ENDBRANCH  23  27
ENDBRANCH  19  21
ENDBRANCH  18  19
ENDBRANCH   3  18
TORSDOF 7
ENDMDL
MODEL      243
REMARK 921   NORMALIZED FREE ENERGY PREDICTED BY IDOCK:   -3.29 KCAL/MOL
REMARK 922        TOTAL FREE ENERGY PREDICTED BY IDOCK:   -5.87 KCAL/MOL
REMARK 923 INTER-LIGAND FREE ENERGY PREDICTED BY IDOCK:   -6.67 KCAL/MOL
REMARK 924 INTRA-LIGAND FREE ENERGY PREDICTED BY IDOCK:    0.81 KCAL/MOL
REMARK 927      BINDING AFFINITY PREDICTED BY RF-SCORE:    0.00 PKD
ROOT
HETATM    1  C   UNK A   0     -10.527   7.354  69.182  1.00  0.00    -0.213 C  
HETATM    2  N   UNK A   0      -9.776   8.302  68.373  1.00  0.00    -0.155 NA 
HETATM    3  C   UNK A   0     -10.405   8.806  67.118  1.00  0.00    -0.293 C  
HETATM    4  O   UNK A   0      -8.497   8.001  70.999  1.00  0.00    -0.120 OA 
HETATM    5  C   UNK A   0      -9.307   8.908  66.029  1.00  0.00    -0.242 C  
HETATM    6  C   UNK A   0      -6.278  10.186  69.594  1.00  0.00    -0.052 C  
HETATM    7  N   UNK A   0      -8.128   9.643  66.519  1.00  0.00    -0.118 NA 
HETATM    8  H   UNK A   0      -7.586  10.226  65.881  1.00  0.00     0.000 HD 
HETATM    9  H2  UNK A   0      -4.893  11.073  70.828  1.00  0.00     0.000 HD 
HETATM   10  C   UNK A   0      -7.756   9.539  67.858  1.00  0.00    -0.087 C  
HETATM   11  H   UNK A   0      -6.577   9.604  71.499  1.00  0.00     0.000 HD 
HETATM   12  C   UNK A   0      -8.516   8.847  68.745  1.00  0.00    -0.131 C  
HETATM   13  H1  UNK A   0      -4.738  11.498  69.126  1.00  0.00     0.000 HD 
HETATM   14  C   UNK A   0      -7.965   8.744  70.178  1.00  0.00    -0.107 C  
HETATM   15  N   UNK A   0      -6.627  10.168  68.291  1.00  0.00    -0.054 NA 
HETATM   16  N   UNK A   0      -5.218  10.984  69.865  1.00  0.00    -0.043 NA 
HETATM   17  N   UNK A   0      -6.885   9.536  70.528  1.00  0.00    -0.099 N  
ENDROOT
BRANCH   3  18
HETATM   18  C   UNK A   0     -11.089  10.177  67.368  1.00  0.00    -0.147 C  
BRANCH  18  19
HETATM   19  N   UNK A   0     -10.982  11.059  66.188  1.00  0.00    -0.154 NA 
HETATM   20  H   UNK A   0     -11.330  10.770  65.274  1.00  0.00     0.000 HD 
BRANCH  19  21
HETATM   21  C   UNK A   0     -10.381  12.311  66.383  1.00  0.00    -0.225 A  
HETATM   22  C   UNK A   0      -9.928  14.531  65.486  1.00  0.00    -0.373 A  
HETATM   23  C   UNK A   0      -9.276  14.879  66.669  1.00  0.00    -0.302 A  
HETATM   24  C   UNK A   0      -9.610  12.631  67.505  1.00  0.00    -0.184 A  
HETATM   25  C   UNK A   0     -10.466  13.248  65.345  1.00  0.00    -0.306 A  
HETATM   26  C   UNK A   0      -9.072  13.911  67.657  1.00  0.00    -0.197 A  
BRANCH  23  27
HETATM   27  C   UNK A   0      -8.789  16.270  66.856  1.00  0.00    -0.215 C  
ATOM     28  H   GLU A   1      -6.976  15.770  65.957  1.00  0.00     0.000 HD 
ATOM     29  N   GLU A   1      -7.496  16.514  66.422  1.00  0.00    -0.236 N  
HETATM   30  O   UNK A   0      -9.506  17.132  67.339  1.00  0.00    -0.242 OA 
BRANCH  29  31
ATOM     31  CA  GLU A   1      -6.854  17.831  66.622  1.00  0.00    -0.207 C  
ATOM     32  C   GLU A   1      -6.536  18.042  68.121  1.00  0.00    -0.191 C  
ATOM     33  O   GLU A   1      -6.985  17.050  68.923  1.00  0.00    -0.196 OA 
ATOM     34  OXT GLU A   1      -5.975  19.031  68.574  1.00  0.00    -0.211 OA 
BRANCH  31  35
ATOM     35  CB  GLU A   1      -7.770  18.946  66.084  1.00  0.00    -0.281 C  
BRANCH  35  36
ATOM     36  CG  GLU A   1      -8.403  19.806  67.184  1.00  0.00    -0.355 C  
ATOM     37  CD  GLU A   1      -9.808  20.240  66.850  1.00  0.00    -0.457 C  
ATOM     38  OE2 GLU A   1     -10.399  19.980  65.815  1.00  0.00    -0.479 OA 
ATOM     39  OE1 GLU A   1     -10.366  20.964  67.853  1.00  0.00    -0.000 OA 
ENDBRANCH  35  36
ENDBRANCH  31  35
ENDBRANCH  29  31
ENDBRANCH  23  27
ENDBRANCH  19  21
ENDBRANCH  18  19
ENDBRANCH   3  18
TORSDOF 7
ENDMDL
MODEL      244
REMARK 921   NORMALIZED FREE ENERGY PREDICTED BY IDOCK:   -3.27 KCAL/MOL
REMARK 922        TOTAL FREE ENERGY PREDICTED BY IDOCK:   -5.84 KCAL/MOL
REMARK 923 INTER-LIGAND FREE ENERGY PREDICTED BY IDOCK:   -5.76 KCAL/MOL
REMARK 924 INTRA-LIGAND FREE ENERGY PREDICTED BY IDOCK:   -0.07 KCAL/MOL
REMARK 927      BINDING AFFINITY PREDICTED BY RF-SCORE:    0.00 PKD
ROOT
HETATM    1  C   UNK A   0     -12.002  15.596  69.279  1.00  0.00    -0.320 C  
HETATM    2  N   UNK A   0     -10.810  15.655  68.447  1.00  0.00    -0.277 NA 
HETATM    3  C   UNK A   0      -9.603  16.336  68.999  1.00  0.00    -0.257 C  
HETATM    4  O   UNK A   0     -12.740  13.769  67.290  1.00  0.00     0.067 OA 
HETATM    5  C   UNK A   0      -8.928  17.135  67.855  1.00  0.00    -0.230 C  
HETATM    6  C   UNK A   0     -10.306  13.543  64.904  1.00  0.00    -0.377 C  
HETATM    7  N   UNK A   0      -8.728  16.300  66.658  1.00  0.00    -0.230 NA 
HETATM    8  H   UNK A   0      -7.914  16.448  66.062  1.00  0.00     0.000 HD 
HETATM    9  H2  UNK A   0     -10.454  12.027  63.522  1.00  0.00     0.000 HD 
HETATM   10  C   UNK A   0      -9.654  15.308  66.346  1.00  0.00    -0.292 C  
HETATM   11  H   UNK A   0     -11.911  12.396  65.307  1.00  0.00     0.000 HD 
HETATM   12  C   UNK A   0     -10.692  15.030  67.175  1.00  0.00    -0.303 C  
HETATM   13  H1  UNK A   0      -9.087  13.110  63.278  1.00  0.00     0.000 HD 
HETATM   14  C   UNK A   0     -11.687  13.962  66.687  1.00  0.00    -0.395 C  
HETATM   15  N   UNK A   0      -9.498  14.582  65.202  1.00  0.00    -0.308 NA 
HETATM   16  N   UNK A   0      -9.913  12.842  63.814  1.00  0.00    -0.710 NA 
HETATM   17  N   UNK A   0     -11.349  13.203  65.580  1.00  0.00    -0.298 N  
ENDROOT
BRANCH   3  18
HETATM   18  C   UNK A   0      -8.630  15.296  69.617  1.00  0.00    -0.104 C  
BRANCH  18  19
HETATM   19  N   UNK A   0      -7.433  15.104  68.774  1.00  0.00    -0.123 NA 
HETATM   20  H   UNK A   0      -6.799  15.875  68.565  1.00  0.00     0.000 HD 
BRANCH  19  21
HETATM   21  C   UNK A   0      -7.210  13.813  68.273  1.00  0.00    -0.114 A  
HETATM   22  C   UNK A   0      -8.085  11.564  67.935  1.00  0.00    -0.132 A  
HETATM   23  C   UNK A   0      -6.916  11.208  67.260  1.00  0.00    -0.096 A  
HETATM   24  C   UNK A   0      -5.996  13.402  67.714  1.00  0.00    -0.141 A  
HETATM   25  C   UNK A   0      -8.219  12.858  68.447  1.00  0.00    -0.121 A  
HETATM   26  C   UNK A   0      -5.851  12.112  67.196  1.00  0.00    -0.139 A  
BRANCH  23  27
HETATM   27  C   UNK A   0      -6.812   9.865  66.634  1.00  0.00    -0.084 C  
ATOM     28  H   GLU A   1      -8.620   9.303  67.506  1.00  0.00     0.000 HD 
ATOM     29  N   GLU A   1      -7.837   8.983  66.937  1.00  0.00    -0.101 N  
HETATM   30  O   UNK A   0      -5.888   9.585  65.886  1.00  0.00    -0.052 OA 
BRANCH  29  31
ATOM     31  CA  GLU A   1      -7.818   7.587  66.450  1.00  0.00    -0.098 C  
ATOM     32  C   GLU A   1      -6.642   6.818  67.095  1.00  0.00    -0.047 C  
ATOM     33  O   GLU A   1      -5.843   7.586  67.872  1.00  0.00    -0.032 OA 
ATOM     34  OXT GLU A   1      -6.401   5.634  66.899  1.00  0.00    -0.033 OA 
BRANCH  31  35
ATOM     35  CB  GLU A   1      -7.719   7.570  64.913  1.00  0.00    -0.115 C  
BRANCH  35  36
ATOM     36  CG  GLU A   1      -8.843   8.345  64.216  1.00  0.00     0.287 C  
ATOM     37  CD  GLU A   1      -8.328   9.326  63.192  1.00  0.00    -0.196 C  
ATOM     38  OE2 GLU A   1      -7.152   9.529  62.940  1.00  0.00    -0.102 OA 
ATOM     39  OE1 GLU A   1      -9.338   9.971  62.556  1.00  0.00    -0.290 OA 
ENDBRANCH  35  36
ENDBRANCH  31  35
ENDBRANCH  29  31
ENDBRANCH  23  27
ENDBRANCH  19  21
ENDBRANCH  18  19
ENDBRANCH   3  18
TORSDOF 7
ENDMDL
MODEL      245
REMARK 921   NORMALIZED FREE ENERGY PREDICTED BY IDOCK:   -3.15 KCAL/MOL
REMARK 922        TOTAL FREE ENERGY PREDICTED BY IDOCK:   -5.67 KCAL/MOL
REMARK 923 INTER-LIGAND FREE ENERGY PREDICTED BY IDOCK:   -7.42 KCAL/MOL
REMARK 924 INTRA-LIGAND FREE ENERGY PREDICTED BY IDOCK:    1.74 KCAL/MOL
REMARK 927      BINDING AFFINITY PREDICTED BY RF-SCORE:    0.00 PKD
ROOT
HETATM    1  C   UNK A   0      -9.533  11.717  68.406  1.00  0.00    -0.193 C  
HETATM    2  N   UNK A   0      -9.511  10.733  67.334  1.00  0.00    -0.154 NA 
HETATM    3  C   UNK A   0     -10.806  10.125  66.913  1.00  0.00    -0.106 C  
HETATM    4  O   UNK A   0      -6.921  12.110  67.478  1.00  0.00    -0.111 OA 
HETATM    5  C   UNK A   0     -10.565   8.624  66.613  1.00  0.00    -0.060 C  
HETATM    6  C   UNK A   0      -6.210   9.941  64.935  1.00  0.00    -0.105 C  
HETATM    7  N   UNK A   0      -9.419   8.432  65.707  1.00  0.00    -0.441 NA 
HETATM    8  H   UNK A   0      -9.422   7.667  65.032  1.00  0.00     0.000 HD 
HETATM    9  H2  UNK A   0      -4.484  10.253  63.861  1.00  0.00     0.000 HD 
HETATM   10  C   UNK A   0      -8.331   9.298  65.777  1.00  0.00    -0.123 C  
HETATM   11  H   UNK A   0      -5.276  11.598  65.596  1.00  0.00     0.000 HD 
HETATM   12  C   UNK A   0      -8.345  10.378  66.600  1.00  0.00    -0.127 C  
HETATM   13  H1  UNK A   0      -5.398   8.826  63.383  1.00  0.00     0.000 HD 
HETATM   14  C   UNK A   0      -7.057  11.220  66.642  1.00  0.00    -0.127 C  
HETATM   15  N   UNK A   0      -7.245   9.076  64.982  1.00  0.00    -0.090 NA 
HETATM   16  N   UNK A   0      -5.294   9.645  63.982  1.00  0.00    -0.062 NA 
HETATM   17  N   UNK A   0      -6.079  10.975  65.693  1.00  0.00    -0.357 N  
ENDROOT
BRANCH   3  18
HETATM   18  C   UNK A   0     -11.377  10.869  65.675  1.00  0.00     0.426 C  
BRANCH  18  19
HETATM   19  N   UNK A   0     -12.277  11.970  66.070  1.00  0.00    -0.431 NA 
HETATM   20  H   UNK A   0     -13.291  11.865  66.040  1.00  0.00     0.000 HD 
BRANCH  19  21
HETATM   21  C   UNK A   0     -11.674  13.165  66.488  1.00  0.00    -0.382 A  
HETATM   22  C   UNK A   0     -11.647  14.996  68.097  1.00  0.00    -0.360 A  
HETATM   23  C   UNK A   0     -10.523  15.534  67.468  1.00  0.00    -0.282 A  
HETATM   24  C   UNK A   0     -10.633  13.788  65.793  1.00  0.00    -0.294 A  
HETATM   25  C   UNK A   0     -12.222  13.823  67.597  1.00  0.00    -0.229 A  
HETATM   26  C   UNK A   0     -10.049  14.958  66.285  1.00  0.00    -0.298 A  
BRANCH  23  27
HETATM   27  C   UNK A   0      -9.856  16.724  68.055  1.00  0.00    -0.265 C  
ATOM     28  H   GLU A   1      -8.746  16.979  66.308  1.00  0.00     0.000 HD 
ATOM     29  N   GLU A   1      -8.900  17.329  67.253  1.00  0.00    -0.219 N  
HETATM   30  O   UNK A   0     -10.161  17.141  69.161  1.00  0.00    -0.292 OA 
BRANCH  29  31
ATOM     31  CA  GLU A   1      -8.099  18.472  67.742  1.00  0.00    -0.251 C  
ATOM     32  C   GLU A   1      -7.105  17.996  68.827  1.00  0.00    -0.276 C  
ATOM     33  O   GLU A   1      -7.239  16.691  69.161  1.00  0.00    -0.217 OA 
ATOM     34  OXT GLU A   1      -6.295  18.722  69.386  1.00  0.00    -0.265 OA 
BRANCH  31  35
ATOM     35  CB  GLU A   1      -9.032  19.571  68.284  1.00  0.00    -0.386 C  
BRANCH  35  36
ATOM     36  CG  GLU A   1     -10.363  19.675  67.530  1.00  0.00    -0.578 C  
ATOM     37  CD  GLU A   1     -10.180  19.932  66.055  1.00  0.00    -0.487 C  
ATOM     38  OE2 GLU A   1      -9.107  20.077  65.493  1.00  0.00    -0.181 OA 
ATOM     39  OE1 GLU A   1     -11.366  19.979  65.398  1.00  0.00    -0.092 OA 
ENDBRANCH  35  36
ENDBRANCH  31  35
ENDBRANCH  29  31
ENDBRANCH  23  27
ENDBRANCH  19  21
ENDBRANCH  18  19
ENDBRANCH   3  18
TORSDOF 7
ENDMDL
MODEL      246
REMARK 921   NORMALIZED FREE ENERGY PREDICTED BY IDOCK:   -3.10 KCAL/MOL
REMARK 922        TOTAL FREE ENERGY PREDICTED BY IDOCK:   -5.59 KCAL/MOL
REMARK 923 INTER-LIGAND FREE ENERGY PREDICTED BY IDOCK:   -5.39 KCAL/MOL
REMARK 924 INTRA-LIGAND FREE ENERGY PREDICTED BY IDOCK:   -0.20 KCAL/MOL
REMARK 927      BINDING AFFINITY PREDICTED BY RF-SCORE:    0.00 PKD
ROOT
HETATM    1  C   UNK A   0      -8.352  20.309  69.035  1.00  0.00     0.510 C  
HETATM    2  N   UNK A   0      -7.891  19.211  68.199  1.00  0.00    -0.289 NA 
HETATM    3  C   UNK A   0      -6.526  18.666  68.448  1.00  0.00    -0.226 C  
HETATM    4  O   UNK A   0     -10.775  19.613  67.816  1.00  0.00    -0.430 OA 
HETATM    5  C   UNK A   0      -5.874  18.338  67.080  1.00  0.00    -0.145 C  
HETATM    6  C   UNK A   0     -10.309  17.070  65.583  1.00  0.00    -0.209 C  
HETATM    7  N   UNK A   0      -6.768  17.525  66.237  1.00  0.00    -0.256 NA 
HETATM    8  H   UNK A   0      -6.379  16.828  65.603  1.00  0.00     0.000 HD 
HETATM    9  H2  UNK A   0     -11.979  16.152  64.810  1.00  0.00     0.000 HD 
HETATM   10  C   UNK A   0      -8.147  17.712  66.311  1.00  0.00    -0.246 C  
HETATM   11  H   UNK A   0     -11.971  17.858  66.402  1.00  0.00     0.000 HD 
HETATM   12  C   UNK A   0      -8.691  18.566  67.216  1.00  0.00    -0.266 C  
HETATM   13  H1  UNK A   0     -10.452  15.554  64.170  1.00  0.00     0.000 HD 
HETATM   14  C   UNK A   0     -10.219  18.740  67.153  1.00  0.00    -0.386 C  
HETATM   15  N   UNK A   0      -8.965  17.003  65.482  1.00  0.00    -0.124 NA 
HETATM   16  N   UNK A   0     -10.959  16.187  64.789  1.00  0.00    -0.734 NA 
HETATM   17  N   UNK A   0     -10.951  17.869  66.365  1.00  0.00     0.099 N  
ENDROOT
BRANCH   3  18
HETATM   18  C   UNK A   0      -6.602  17.409  69.357  1.00  0.00    -0.213 C  
BRANCH  18  19
HETATM   19  N   UNK A   0      -5.749  16.318  68.847  1.00  0.00    -0.116 NA 
HETATM   20  H   UNK A   0      -4.800  16.493  68.516  1.00  0.00     0.000 HD 
BRANCH  19  21
HETATM   21  C   UNK A   0      -6.303  15.029  68.837  1.00  0.00    -0.090 A  
HETATM   22  C   UNK A   0      -7.895  13.489  67.821  1.00  0.00    -0.167 A  
HETATM   23  C   UNK A   0      -7.454  12.471  68.668  1.00  0.00    -0.090 A  
HETATM   24  C   UNK A   0      -5.968  14.038  69.765  1.00  0.00    -0.122 A  
HETATM   25  C   UNK A   0      -7.326  14.762  67.919  1.00  0.00    -0.162 A  
HETATM   26  C   UNK A   0      -6.528  12.761  69.675  1.00  0.00    -0.046 A  
BRANCH  23  27
HETATM   27  C   UNK A   0      -7.990  11.096  68.502  1.00  0.00    -0.143 C  
ATOM     28  H   GLU A   1      -6.191  10.486  67.642  1.00  0.00     0.000 HD 
ATOM     29  N   GLU A   1      -7.136  10.193  67.888  1.00  0.00    -0.084 N  
HETATM   30  O   UNK A   0      -9.101  10.796  68.907  1.00  0.00    -0.168 OA 
BRANCH  29  31
ATOM     31  CA  GLU A   1      -7.568   8.812  67.583  1.00  0.00    -0.097 C  
ATOM     32  C   GLU A   1      -8.184   8.752  66.166  1.00  0.00    -0.117 C  
ATOM     33  O   GLU A   1      -8.283   9.956  65.557  1.00  0.00    -0.127 OA 
ATOM     34  OXT GLU A   1      -8.599   7.729  65.637  1.00  0.00    -0.144 OA 
BRANCH  31  35
ATOM     35  CB  GLU A   1      -8.572   8.331  68.647  1.00  0.00    -0.133 C  
BRANCH  35  36
ATOM     36  CG  GLU A   1      -8.559   6.813  68.864  1.00  0.00    -0.130 C  
ATOM     37  CD  GLU A   1      -9.902   6.175  68.608  1.00  0.00    -0.138 C  
ATOM     38  OE2 GLU A   1     -10.917   6.773  68.290  1.00  0.00    -0.237 OA 
ATOM     39  OE1 GLU A   1      -9.860   4.828  68.762  1.00  0.00    -0.165 OA 
ENDBRANCH  35  36
ENDBRANCH  31  35
ENDBRANCH  29  31
ENDBRANCH  23  27
ENDBRANCH  19  21
ENDBRANCH  18  19
ENDBRANCH   3  18
TORSDOF 7
ENDMDL
MODEL      247
REMARK 921   NORMALIZED FREE ENERGY PREDICTED BY IDOCK:   -2.86 KCAL/MOL
REMARK 922        TOTAL FREE ENERGY PREDICTED BY IDOCK:   -5.26 KCAL/MOL
REMARK 923 INTER-LIGAND FREE ENERGY PREDICTED BY IDOCK:   -5.66 KCAL/MOL
REMARK 924 INTRA-LIGAND FREE ENERGY PREDICTED BY IDOCK:    0.39 KCAL/MOL
REMARK 927      BINDING AFFINITY PREDICTED BY RF-SCORE:    0.00 PKD
ROOT
HETATM    1  C   UNK A   0     -10.698  14.758  69.744  1.00  0.00    -0.154 C  
HETATM    2  N   UNK A   0      -9.425  15.212  69.204  1.00  0.00    -0.219 NA 
HETATM    3  C   UNK A   0      -8.241  14.318  69.353  1.00  0.00     0.300 C  
HETATM    4  O   UNK A   0     -11.595  16.930  68.220  1.00  0.00     0.007 OA 
HETATM    5  C   UNK A   0      -7.003  15.196  69.668  1.00  0.00    -0.192 C  
HETATM    6  C   UNK A   0      -8.963  18.525  66.737  1.00  0.00    -0.293 C  
HETATM    7  N   UNK A   0      -6.875  16.310  68.713  1.00  0.00    -0.142 NA 
HETATM    8  H   UNK A   0      -5.951  16.644  68.438  1.00  0.00     0.000 HD 
HETATM    9  H2  UNK A   0      -9.381  19.937  65.301  1.00  0.00     0.000 HD 
HETATM   10  C   UNK A   0      -8.019  16.905  68.187  1.00  0.00    -0.195 C  
HETATM   11  H   UNK A   0     -10.950  18.633  66.434  1.00  0.00     0.000 HD 
HETATM   12  C   UNK A   0      -9.255  16.416  68.465  1.00  0.00    -0.226 C  
HETATM   13  H1  UNK A   0      -7.669  19.746  65.665  1.00  0.00     0.000 HD 
HETATM   14  C   UNK A   0     -10.444  17.200  67.883  1.00  0.00    -0.369 C  
HETATM   15  N   UNK A   0      -7.895  17.977  67.354  1.00  0.00    -0.214 NA 
HETATM   16  N   UNK A   0      -8.639  19.478  65.830  1.00  0.00    -0.416 NA 
HETATM   17  N   UNK A   0     -10.189  18.186  66.946  1.00  0.00    -0.354 N  
ENDROOT
BRANCH   3  18
HETATM   18  C   UNK A   0      -8.030  13.478  68.064  1.00  0.00    -0.151 C  
BRANCH  18  19
HETATM   19  N   UNK A   0      -9.238  12.703  67.717  1.00  0.00    -0.187 NA 
HETATM   20  H   UNK A   0      -9.839  12.973  66.939  1.00  0.00     0.000 HD 
BRANCH  19  21
HETATM   21  C   UNK A   0      -9.520  11.579  68.508  1.00  0.00    -0.174 A  
HETATM   22  C   UNK A   0     -11.221  10.172  69.539  1.00  0.00    -0.288 A  
HETATM   23  C   UNK A   0     -10.227   9.322  70.025  1.00  0.00    -0.244 A  
HETATM   24  C   UNK A   0      -8.534  10.794  69.113  1.00  0.00    -0.105 A  
HETATM   25  C   UNK A   0     -10.862  11.300  68.795  1.00  0.00    -0.252 A  
HETATM   26  C   UNK A   0      -8.881   9.663  69.856  1.00  0.00    -0.240 A  
BRANCH  23  27
HETATM   27  C   UNK A   0     -10.612   8.074  70.733  1.00  0.00    -0.214 C  
ATOM     28  H   GLU A   1      -8.959   8.264  71.991  1.00  0.00     0.000 HD 
ATOM     29  N   GLU A   1      -9.754   7.674  71.746  1.00  0.00    -0.159 N  
HETATM   30  O   UNK A   0     -11.632   7.470  70.443  1.00  0.00    -0.246 OA 
BRANCH  29  31
ATOM     31  CA  GLU A   1      -9.969   6.407  72.479  1.00  0.00    -0.171 C  
ATOM     32  C   GLU A   1      -9.085   6.374  73.747  1.00  0.00    -0.132 C  
ATOM     33  O   GLU A   1      -8.254   7.435  73.866  1.00  0.00    -0.130 OA 
ATOM     34  OXT GLU A   1      -9.079   5.460  74.560  1.00  0.00    -0.119 OA 
BRANCH  31  35
ATOM     35  CB  GLU A   1      -9.667   5.211  71.557  1.00  0.00    -0.221 C  
BRANCH  35  36
ATOM     36  CG  GLU A   1      -9.405   3.903  72.313  1.00  0.00    -0.173 C  
ATOM     37  CD  GLU A   1     -10.653   3.331  72.939  1.00  0.00    -0.119 C  
ATOM     38  OE2 GLU A   1     -11.760   3.840  72.895  1.00  0.00     0.236 OA 
ATOM     39  OE1 GLU A   1     -10.410   2.152  73.566  1.00  0.00    -0.101 OA 
ENDBRANCH  35  36
ENDBRANCH  31  35
ENDBRANCH  29  31
ENDBRANCH  23  27
ENDBRANCH  19  21
ENDBRANCH  18  19
ENDBRANCH   3  18
TORSDOF 7
ENDMDL
MODEL      248
REMARK 921   NORMALIZED FREE ENERGY PREDICTED BY IDOCK:   -2.83 KCAL/MOL
REMARK 922        TOTAL FREE ENERGY PREDICTED BY IDOCK:   -5.22 KCAL/MOL
REMARK 923 INTER-LIGAND FREE ENERGY PREDICTED BY IDOCK:   -4.17 KCAL/MOL
REMARK 924 INTRA-LIGAND FREE ENERGY PREDICTED BY IDOCK:   -1.05 KCAL/MOL
REMARK 927      BINDING AFFINITY PREDICTED BY RF-SCORE:    0.00 PKD
ROOT
HETATM    1  C   UNK A   0     -10.627  16.990  65.495  1.00  0.00    -0.173 C  
HETATM    2  N   UNK A   0     -11.006  15.726  66.108  1.00  0.00    -0.232 NA 
HETATM    3  C   UNK A   0     -11.132  14.529  65.228  1.00  0.00    -0.353 C  
HETATM    4  O   UNK A   0     -10.297  17.672  68.191  1.00  0.00    -0.347 OA 
HETATM    5  C   UNK A   0     -12.351  13.699  65.704  1.00  0.00    -0.478 C  
HETATM    6  C   UNK A   0     -11.163  15.053  70.207  1.00  0.00    -0.252 C  
HETATM    7  N   UNK A   0     -12.300  13.450  67.155  1.00  0.00    -0.236 NA 
HETATM    8  H   UNK A   0     -12.663  12.577  67.538  1.00  0.00     0.000 HD 
HETATM    9  H2  UNK A   0     -10.691  15.182  72.204  1.00  0.00     0.000 HD 
HETATM   10  C   UNK A   0     -11.754  14.412  68.002  1.00  0.00    -0.340 C  
HETATM   11  H   UNK A   0     -10.167  16.765  70.571  1.00  0.00     0.000 HD 
HETATM   12  C   UNK A   0     -11.179  15.538  67.507  1.00  0.00    -0.272 C  
HETATM   13  H1  UNK A   0     -11.571  13.726  71.751  1.00  0.00     0.000 HD 
HETATM   14  C   UNK A   0     -10.675  16.558  68.544  1.00  0.00    -0.336 C  
HETATM   15  N   UNK A   0     -11.769  14.204  69.350  1.00  0.00    -0.292 NA 
HETATM   16  N   UNK A   0     -11.143  14.613  71.487  1.00  0.00    -0.328 NA 
HETATM   17  N   UNK A   0     -10.622  16.175  69.874  1.00  0.00    -0.311 N  
ENDROOT
BRANCH   3  18
HETATM   18  C   UNK A   0      -9.825  13.692  65.261  1.00  0.00    -0.107 C  
BRANCH  18  19
HETATM   19  N   UNK A   0     -10.024  12.352  64.675  1.00  0.00    -0.468 NA 
HETATM   20  H   UNK A   0     -10.476  12.229  63.769  1.00  0.00     0.000 HD 
BRANCH  19  21
HETATM   21  C   UNK A   0      -9.563  11.256  65.420  1.00  0.00    -0.228 A  
HETATM   22  C   UNK A   0     -10.079   9.527  67.058  1.00  0.00    -0.297 A  
HETATM   23  C   UNK A   0      -8.788   9.014  66.926  1.00  0.00    -0.129 A  
HETATM   24  C   UNK A   0      -8.237  10.813  65.400  1.00  0.00    -0.077 A  
HETATM   25  C   UNK A   0     -10.454  10.650  66.314  1.00  0.00    -0.268 A  
HETATM   26  C   UNK A   0      -7.851   9.689  66.136  1.00  0.00    -0.101 A  
BRANCH  23  27
HETATM   27  C   UNK A   0      -8.419   7.767  67.642  1.00  0.00    -0.121 C  
ATOM     28  H   GLU A   1      -7.414   7.077  65.950  1.00  0.00     0.000 HD 
ATOM     29  N   GLU A   1      -7.700   6.843  66.901  1.00  0.00    -0.098 N  
HETATM   30  O   UNK A   0      -8.718   7.596  68.814  1.00  0.00    -0.129 OA 
BRANCH  29  31
ATOM     31  CA  GLU A   1      -7.337   5.522  67.461  1.00  0.00    -0.076 C  
ATOM     32  C   GLU A   1      -5.801   5.415  67.608  1.00  0.00    -0.017 C  
ATOM     33  O   GLU A   1      -5.126   6.480  67.119  1.00  0.00    -0.007 OA 
ATOM     34  OXT GLU A   1      -5.219   4.445  68.074  1.00  0.00    -0.009 OA 
BRANCH  31  35
ATOM     35  CB  GLU A   1      -7.891   4.403  66.561  1.00  0.00    -0.098 C  
BRANCH  35  36
ATOM     36  CG  GLU A   1      -8.410   3.188  67.340  1.00  0.00    -0.090 C  
ATOM     37  CD  GLU A   1      -9.768   2.730  66.870  1.00  0.00     0.353 C  
ATOM     38  OE2 GLU A   1     -10.425   3.260  65.990  1.00  0.00     0.874 OA 
ATOM     39  OE1 GLU A   1     -10.191   1.629  67.541  1.00  0.00     0.873 OA 
ENDBRANCH  35  36
ENDBRANCH  31  35
ENDBRANCH  29  31
ENDBRANCH  23  27
ENDBRANCH  19  21
ENDBRANCH  18  19
ENDBRANCH   3  18
TORSDOF 7
ENDMDL
MODEL      249
REMARK 921   NORMALIZED FREE ENERGY PREDICTED BY IDOCK:   -2.39 KCAL/MOL
REMARK 922        TOTAL FREE ENERGY PREDICTED BY IDOCK:   -4.60 KCAL/MOL
REMARK 923 INTER-LIGAND FREE ENERGY PREDICTED BY IDOCK:   -4.31 KCAL/MOL
REMARK 924 INTRA-LIGAND FREE ENERGY PREDICTED BY IDOCK:   -0.29 KCAL/MOL
REMARK 927      BINDING AFFINITY PREDICTED BY RF-SCORE:    0.00 PKD
ROOT
HETATM    1  C   UNK A   0      -5.139  17.151  68.919  1.00  0.00    -0.144 C  
HETATM    2  N   UNK A   0      -6.112  17.539  67.910  1.00  0.00    -0.146 NA 
HETATM    3  C   UNK A   0      -6.068  16.846  66.590  1.00  0.00    -0.151 C  
HETATM    4  O   UNK A   0      -6.869  18.669  70.512  1.00  0.00     0.677 OA 
HETATM    5  C   UNK A   0      -6.355  17.891  65.481  1.00  0.00    -0.107 C  
HETATM    6  C   UNK A   0      -9.396  19.985  68.625  1.00  0.00    -0.070 C  
HETATM    7  N   UNK A   0      -7.568  18.673  65.778  1.00  0.00    -0.504 NA 
HETATM    8  H   UNK A   0      -8.168  18.994  65.018  1.00  0.00     0.000 HD 
HETATM    9  H2  UNK A   0     -10.977  20.854  69.611  1.00  0.00     0.000 HD 
HETATM   10  C   UNK A   0      -7.891  18.972  67.099  1.00  0.00    -0.246 C  
HETATM   11  H   UNK A   0      -9.149  19.809  70.616  1.00  0.00     0.000 HD 
HETATM   12  C   UNK A   0      -7.160  18.475  68.130  1.00  0.00    -0.249 C  
HETATM   13  H1  UNK A   0     -11.069  20.943  67.855  1.00  0.00     0.000 HD 
HETATM   14  C   UNK A   0      -7.573  18.933  69.540  1.00  0.00     0.173 C  
HETATM   15  N   UNK A   0      -8.978  19.751  67.363  1.00  0.00    -0.314 NA 
HETATM   16  N   UNK A   0     -10.575  20.647  68.696  1.00  0.00     0.119 NA 
HETATM   17  N   UNK A   0      -8.771  19.611  69.689  1.00  0.00     0.309 N  
ENDROOT
BRANCH   3  18
HETATM   18  C   UNK A   0      -7.095  15.682  66.554  1.00  0.00     0.791 C  
BRANCH  18  19
HETATM   19  N   UNK A   0      -8.091  15.803  67.636  1.00  0.00    -0.140 NA 
HETATM   20  H   UNK A   0      -8.212  16.674  68.154  1.00  0.00     0.000 HD 
BRANCH  19  21
HETATM   21  C   UNK A   0      -8.863  14.667  67.920  1.00  0.00    -0.170 A  
HETATM   22  C   UNK A   0     -10.464  13.595  69.412  1.00  0.00     0.180 A  
HETATM   23  C   UNK A   0     -10.504  12.482  68.573  1.00  0.00    -0.246 A  
HETATM   24  C   UNK A   0      -8.814  13.492  67.164  1.00  0.00    -0.231 A  
HETATM   25  C   UNK A   0      -9.637  14.674  69.088  1.00  0.00    -0.091 A  
HETATM   26  C   UNK A   0      -9.639  12.409  67.476  1.00  0.00    -0.185 A  
BRANCH  23  27
HETATM   27  C   UNK A   0     -11.453  11.377  68.866  1.00  0.00    -0.298 C  
ATOM     28  H   GLU A   1     -10.437  10.957  70.638  1.00  0.00     0.000 HD 
ATOM     29  N   GLU A   1     -11.200  10.664  70.027  1.00  0.00    -0.297 N  
HETATM   30  O   UNK A   0     -12.401  11.145  68.133  1.00  0.00    -0.469 OA 
BRANCH  29  31
ATOM     31  CA  GLU A   1     -12.015   9.487  70.400  1.00  0.00    -0.066 C  
ATOM     32  C   GLU A   1     -12.983   9.856  71.548  1.00  0.00    -0.422 C  
ATOM     33  O   GLU A   1     -12.820  11.113  72.022  1.00  0.00    -0.375 OA 
ATOM     34  OXT GLU A   1     -13.798   9.086  72.037  1.00  0.00    -0.412 OA 
BRANCH  31  35
ATOM     35  CB  GLU A   1     -11.094   8.320  70.800  1.00  0.00    -0.280 C  
BRANCH  35  36
ATOM     36  CG  GLU A   1     -10.675   7.434  69.621  1.00  0.00    -0.245 C  
ATOM     37  CD  GLU A   1     -10.629   5.969  69.977  1.00  0.00    -0.274 C  
ATOM     38  OE2 GLU A   1     -10.865   5.505  71.081  1.00  0.00    -0.239 OA 
ATOM     39  OE1 GLU A   1     -10.298   5.199  68.911  1.00  0.00    -0.185 OA 
ENDBRANCH  35  36
ENDBRANCH  31  35
ENDBRANCH  29  31
ENDBRANCH  23  27
ENDBRANCH  19  21
ENDBRANCH  18  19
ENDBRANCH   3  18
TORSDOF 7
ENDMDL
MODEL      250
REMARK 921   NORMALIZED FREE ENERGY PREDICTED BY IDOCK:   -2.29 KCAL/MOL
REMARK 922        TOTAL FREE ENERGY PREDICTED BY IDOCK:   -4.46 KCAL/MOL
REMARK 923 INTER-LIGAND FREE ENERGY PREDICTED BY IDOCK:   -4.37 KCAL/MOL
REMARK 924 INTRA-LIGAND FREE ENERGY PREDICTED BY IDOCK:   -0.09 KCAL/MOL
REMARK 927      BINDING AFFINITY PREDICTED BY RF-SCORE:    0.00 PKD
ROOT
HETATM    1  C   UNK A   0     -12.599  13.390  69.376  1.00  0.00     0.298 C  
HETATM    2  N   UNK A   0     -12.070  12.038  69.279  1.00  0.00    -0.239 NA 
HETATM    3  C   UNK A   0     -11.107  11.738  68.181  1.00  0.00    -0.243 C  
HETATM    4  O   UNK A   0     -13.438  12.392  71.854  1.00  0.00    -0.423 OA 
HETATM    5  C   UNK A   0     -11.418  10.322  67.632  1.00  0.00     0.208 C  
HETATM    6  C   UNK A   0     -12.553   9.109  72.188  1.00  0.00    -0.381 C  
HETATM    7  N   UNK A   0     -11.511   9.332  68.719  1.00  0.00    -0.202 NA 
HETATM    8  H   UNK A   0     -11.204   8.371  68.563  1.00  0.00     0.000 HD 
HETATM    9  H2  UNK A   0     -12.753   8.245  74.043  1.00  0.00     0.000 HD 
HETATM   10  C   UNK A   0     -12.019   9.712  69.959  1.00  0.00     0.120 C  
HETATM   11  H   UNK A   0     -13.201  10.474  73.519  1.00  0.00     0.000 HD 
HETATM   12  C   UNK A   0     -12.344  11.005  70.217  1.00  0.00    -0.328 C  
HETATM   13  H1  UNK A   0     -12.194   7.151  72.782  1.00  0.00     0.000 HD 
HETATM   14  C   UNK A   0     -12.962  11.288  71.598  1.00  0.00    -0.432 C  
HETATM   15  N   UNK A   0     -12.164   8.776  70.939  1.00  0.00    -0.470 NA 
HETATM   16  N   UNK A   0     -12.494   8.083  73.070  1.00  0.00    -0.514 NA 
HETATM   17  N   UNK A   0     -12.931  10.286  72.553  1.00  0.00    -0.318 N  
ENDROOT
BRANCH   3  18
HETATM   18  C   UNK A   0      -9.646  11.841  68.697  1.00  0.00    -0.115 C  
BRANCH  18  19
HETATM   19  N   UNK A   0      -8.680  11.903  67.582  1.00  0.00    -0.155 NA 
HETATM   20  H   UNK A   0      -8.497  12.774  67.084  1.00  0.00     0.000 HD 
BRANCH  19  21
HETATM   21  C   UNK A   0      -8.026  10.710  67.240  1.00  0.00    -0.116 A  
HETATM   22  C   UNK A   0      -8.218   8.444  66.366  1.00  0.00    -0.109 A  
HETATM   23  C   UNK A   0      -6.835   8.288  66.459  1.00  0.00    -0.067 A  
HETATM   24  C   UNK A   0      -6.662  10.490  67.453  1.00  0.00    -0.071 A  
HETATM   25  C   UNK A   0      -8.806   9.647  66.767  1.00  0.00    -0.148 A  
HETATM   26  C   UNK A   0      -6.063   9.293  67.052  1.00  0.00    -0.060 A  
BRANCH  23  27
HETATM   27  C   UNK A   0      -6.201   7.047  65.945  1.00  0.00    -0.036 C  
ATOM     28  H   GLU A   1      -7.743   5.905  66.760  1.00  0.00     0.000 HD 
ATOM     29  N   GLU A   1      -6.855   5.867  66.259  1.00  0.00    -0.060 N  
HETATM   30  O   UNK A   0      -5.184   7.088  65.271  1.00  0.00    -0.026 OA 
BRANCH  29  31
ATOM     31  CA  GLU A   1      -6.293   4.552  65.883  1.00  0.00    -0.036 C  
ATOM     32  C   GLU A   1      -7.259   3.820  64.922  1.00  0.00    -0.067 C  
ATOM     33  O   GLU A   1      -8.424   4.473  64.710  1.00  0.00    -0.120 OA 
ATOM     34  OXT GLU A   1      -7.037   2.724  64.424  1.00  0.00    -0.047 OA 
BRANCH  31  35
ATOM     35  CB  GLU A   1      -6.025   3.716  67.148  1.00  0.00    -0.024 C  
BRANCH  35  36
ATOM     36  CG  GLU A   1      -7.298   3.326  67.908  1.00  0.00    -0.054 C  
ATOM     37  CD  GLU A   1      -7.290   3.795  69.341  1.00  0.00    -0.052 C  
ATOM     38  OE2 GLU A   1      -6.375   4.396  69.881  1.00  0.00    -0.026 OA 
ATOM     39  OE1 GLU A   1      -8.441   3.477  69.985  1.00  0.00    -0.054 OA 
ENDBRANCH  35  36
ENDBRANCH  31  35
ENDBRANCH  29  31
ENDBRANCH  23  27
ENDBRANCH  19  21
ENDBRANCH  18  19
ENDBRANCH   3  18
TORSDOF 7
ENDMDL
MODEL      251
REMARK 921   NORMALIZED FREE ENERGY PREDICTED BY IDOCK:   -1.93 KCAL/MOL
REMARK 922        TOTAL FREE ENERGY PREDICTED BY IDOCK:   -3.95 KCAL/MOL
REMARK 923 INTER-LIGAND FREE ENERGY PREDICTED BY IDOCK:   -4.60 KCAL/MOL
REMARK 924 INTRA-LIGAND FREE ENERGY PREDICTED BY IDOCK:    0.65 KCAL/MOL
REMARK 927      BINDING AFFINITY PREDICTED BY RF-SCORE:    0.00 PKD
ROOT
HETATM    1  C   UNK A   0      -5.725   6.039  66.836  1.00  0.00    -0.017 C  
HETATM    2  N   UNK A   0      -6.937   6.238  66.055  1.00  0.00    -0.064 NA 
HETATM    3  C   UNK A   0      -8.093   5.331  66.311  1.00  0.00    -0.109 C  
HETATM    4  O   UNK A   0      -5.135   8.530  65.700  1.00  0.00    -0.027 OA 
HETATM    5  C   UNK A   0      -8.761   4.997  64.953  1.00  0.00    -0.150 C  
HETATM    6  C   UNK A   0      -7.647   9.521  63.607  1.00  0.00    -0.119 C  
HETATM    7  N   UNK A   0      -9.037   6.216  64.173  1.00  0.00     0.142 NA 
HETATM    8  H   UNK A   0      -9.859   6.264  63.572  1.00  0.00     0.000 HD 
HETATM    9  H2  UNK A   0      -7.613  11.457  62.916  1.00  0.00     0.000 HD 
HETATM   10  C   UNK A   0      -8.169   7.303  64.260  1.00  0.00     0.028 C  
HETATM   11  H   UNK A   0      -6.089  10.512  64.409  1.00  0.00     0.000 HD 
HETATM   12  C   UNK A   0      -7.122   7.297  65.124  1.00  0.00    -0.064 C  
HETATM   13  H1  UNK A   0      -8.932  10.477  62.284  1.00  0.00     0.000 HD 
HETATM   14  C   UNK A   0      -6.195   8.525  65.078  1.00  0.00    -0.060 C  
HETATM   15  N   UNK A   0      -8.394   8.403  63.487  1.00  0.00    -0.356 NA 
HETATM   16  N   UNK A   0      -8.105  10.564  62.875  1.00  0.00    -0.209 NA 
HETATM   17  N   UNK A   0      -6.602   9.632  64.353  1.00  0.00    -0.100 N  
ENDROOT
BRANCH   3  18
HETATM   18  C   UNK A   0      -9.097   5.996  67.291  1.00  0.00    -0.111 C  
BRANCH  18  19
HETATM   19  N   UNK A   0     -10.120   6.779  66.570  1.00  0.00    -0.401 NA 
HETATM   20  H   UNK A   0     -10.762   6.339  65.911  1.00  0.00     0.000 HD 
BRANCH  19  21
HETATM   21  C   UNK A   0     -10.169   8.156  66.834  1.00  0.00    -0.316 A  
HETATM   22  C   UNK A   0      -9.703   9.961  68.404  1.00  0.00    -0.161 A  
HETATM   23  C   UNK A   0     -10.151  10.894  67.468  1.00  0.00    -0.214 A  
HETATM   24  C   UNK A   0     -10.737   9.089  65.963  1.00  0.00     0.971 A  
HETATM   25  C   UNK A   0      -9.725   8.600  68.087  1.00  0.00    -0.178 A  
HETATM   26  C   UNK A   0     -10.718  10.453  66.267  1.00  0.00    -0.107 A  
BRANCH  23  27
HETATM   27  C   UNK A   0     -10.039  12.344  67.767  1.00  0.00    -0.203 C  
ATOM     28  H   GLU A   1      -9.019  12.648  65.974  1.00  0.00     0.000 HD 
ATOM     29  N   GLU A   1      -9.352  13.097  66.827  1.00  0.00    -0.241 N  
HETATM   30  O   UNK A   0     -10.546  12.826  68.767  1.00  0.00    -0.240 OA 
BRANCH  29  31
ATOM     31  CA  GLU A   1      -9.093  14.538  67.036  1.00  0.00    -0.239 C  
ATOM     32  C   GLU A   1      -8.119  14.732  68.222  1.00  0.00    -0.139 C  
ATOM     33  O   GLU A   1      -7.794  13.585  68.861  1.00  0.00    -0.067 OA 
ATOM     34  OXT GLU A   1      -7.703  15.819  68.602  1.00  0.00    -0.137 OA 
BRANCH  31  35
ATOM     35  CB  GLU A   1     -10.421  15.278  67.279  1.00  0.00    -0.275 C  
BRANCH  35  36
ATOM     36  CG  GLU A   1     -10.478  16.667  66.631  1.00  0.00    -0.258 C  
ATOM     37  CD  GLU A   1     -11.044  16.637  65.234  1.00  0.00    -0.033 C  
ATOM     38  OE2 GLU A   1     -11.401  15.633  64.639  1.00  0.00    -0.431 OA 
ATOM     39  OE1 GLU A   1     -11.126  17.879  64.694  1.00  0.00    -0.713 OA 
ENDBRANCH  35  36
ENDBRANCH  31  35
ENDBRANCH  29  31
ENDBRANCH  23  27
ENDBRANCH  19  21
ENDBRANCH  18  19
ENDBRANCH   3  18
TORSDOF 7
ENDMDL
MODEL      252
REMARK 921   NORMALIZED FREE ENERGY PREDICTED BY IDOCK:   -1.85 KCAL/MOL
REMARK 922        TOTAL FREE ENERGY PREDICTED BY IDOCK:   -3.85 KCAL/MOL
REMARK 923 INTER-LIGAND FREE ENERGY PREDICTED BY IDOCK:   -4.43 KCAL/MOL
REMARK 924 INTRA-LIGAND FREE ENERGY PREDICTED BY IDOCK:    0.58 KCAL/MOL
REMARK 927      BINDING AFFINITY PREDICTED BY RF-SCORE:    0.00 PKD
ROOT
HETATM    1  C   UNK A   0     -10.963  11.946  65.706  1.00  0.00    -0.311 C  
HETATM    2  N   UNK A   0     -10.234  10.687  65.738  1.00  0.00    -0.260 NA 
HETATM    3  C   UNK A   0      -9.042  10.545  64.854  1.00  0.00    -0.205 C  
HETATM    4  O   UNK A   0     -12.116  10.806  67.989  1.00  0.00    -0.474 OA 
HETATM    5  C   UNK A   0      -9.028   9.105  64.280  1.00  0.00    -0.029 C  
HETATM    6  C   UNK A   0     -10.843   7.685  68.547  1.00  0.00     0.040 C  
HETATM    7  N   UNK A   0      -9.186   8.099  65.345  1.00  0.00    -0.399 NA 
HETATM    8  H   UNK A   0      -8.718   7.196  65.269  1.00  0.00     0.000 HD 
HETATM    9  H2  UNK A   0     -11.273   6.779  70.343  1.00  0.00     0.000 HD 
HETATM   10  C   UNK A   0      -9.977   8.386  66.455  1.00  0.00    -0.221 C  
HETATM   11  H   UNK A   0     -11.931   8.924  69.702  1.00  0.00     0.000 HD 
HETATM   12  C   UNK A   0     -10.532   9.614  66.623  1.00  0.00    -0.163 C  
HETATM   13  H1  UNK A   0     -10.324   5.795  69.233  1.00  0.00     0.000 HD 
HETATM   14  C   UNK A   0     -11.442   9.787  67.851  1.00  0.00     0.486 C  
HETATM   15  N   UNK A   0     -10.172   7.427  67.405  1.00  0.00    -0.220 NA 
HETATM   16  N   UNK A   0     -10.807   6.669  69.441  1.00  0.00    -0.266 NA 
HETATM   17  N   UNK A   0     -11.453   8.789  68.810  1.00  0.00     0.067 N  
ENDROOT
BRANCH   3  18
HETATM   18  C   UNK A   0      -7.741  10.855  65.644  1.00  0.00     0.012 C  
BRANCH  18  19
HETATM   19  N   UNK A   0      -8.027  11.580  66.897  1.00  0.00    -0.160 NA 
HETATM   20  H   UNK A   0      -8.522  12.472  66.896  1.00  0.00     0.000 HD 
BRANCH  19  21
HETATM   21  C   UNK A   0      -7.587  10.987  68.090  1.00  0.00    -0.095 A  
HETATM   22  C   UNK A   0      -8.184   9.805  70.135  1.00  0.00    -0.202 A  
HETATM   23  C   UNK A   0      -6.835   9.713  70.479  1.00  0.00    -0.126 A  
HETATM   24  C   UNK A   0      -6.255  11.004  68.514  1.00  0.00    -0.042 A  
HETATM   25  C   UNK A   0      -8.552  10.450  68.951  1.00  0.00    -0.149 A  
HETATM   26  C   UNK A   0      -5.875  10.359  69.693  1.00  0.00    -0.045 A  
BRANCH  23  27
HETATM   27  C   UNK A   0      -6.437   8.945  71.686  1.00  0.00    -0.076 C  
ATOM     28  H   GLU A   1      -8.442   8.603  72.145  1.00  0.00     0.000 HD 
ATOM     29  N   GLU A   1      -7.482   8.465  72.460  1.00  0.00    -0.104 N  
HETATM   30  O   UNK A   0      -5.263   8.741  71.949  1.00  0.00    -0.036 OA 
BRANCH  29  31
ATOM     31  CA  GLU A   1      -7.232   7.755  73.734  1.00  0.00    -0.121 C  
ATOM     32  C   GLU A   1      -6.470   6.437  73.463  1.00  0.00    -0.065 C  
ATOM     33  O   GLU A   1      -6.281   6.170  72.150  1.00  0.00    -0.040 OA 
ATOM     34  OXT GLU A   1      -6.103   5.661  74.335  1.00  0.00    -0.060 OA 
BRANCH  31  35
ATOM     35  CB  GLU A   1      -8.567   7.490  74.454  1.00  0.00    -0.242 C  
BRANCH  35  36
ATOM     36  CG  GLU A   1      -9.398   6.370  73.816  1.00  0.00    -0.153 C  
ATOM     37  CD  GLU A   1     -10.763   6.835  73.375  1.00  0.00    -0.305 C  
ATOM     38  OE2 GLU A   1     -11.204   7.963  73.519  1.00  0.00    -0.188 OA 
ATOM     39  OE1 GLU A   1     -11.467   5.842  72.775  1.00  0.00    -0.278 OA 
ENDBRANCH  35  36
ENDBRANCH  31  35
ENDBRANCH  29  31
ENDBRANCH  23  27
ENDBRANCH  19  21
ENDBRANCH  18  19
ENDBRANCH   3  18
TORSDOF 7
ENDMDL
MODEL      253
REMARK 921   NORMALIZED FREE ENERGY PREDICTED BY IDOCK:   -1.82 KCAL/MOL
REMARK 922        TOTAL FREE ENERGY PREDICTED BY IDOCK:   -3.80 KCAL/MOL
REMARK 923 INTER-LIGAND FREE ENERGY PREDICTED BY IDOCK:   -3.22 KCAL/MOL
REMARK 924 INTRA-LIGAND FREE ENERGY PREDICTED BY IDOCK:   -0.58 KCAL/MOL
REMARK 927      BINDING AFFINITY PREDICTED BY RF-SCORE:    0.00 PKD
ROOT
HETATM    1  C   UNK A   0     -13.554   8.462  72.241  1.00  0.00    -0.270 C  
HETATM    2  N   UNK A   0     -12.503   9.165  71.521  1.00  0.00    -0.329 NA 
HETATM    3  C   UNK A   0     -12.880  10.376  70.736  1.00  0.00    -0.364 C  
HETATM    4  O   UNK A   0     -11.314   7.231  73.383  1.00  0.00    -0.173 OA 
HETATM    5  C   UNK A   0     -12.067  10.375  69.416  1.00  0.00    -0.013 C  
HETATM    6  C   UNK A   0      -8.438   8.427  71.977  1.00  0.00    -0.183 C  
HETATM    7  N   UNK A   0     -10.630  10.170  69.668  1.00  0.00    -0.239 NA 
HETATM    8  H   UNK A   0      -9.936  10.622  69.072  1.00  0.00     0.000 HD 
HETATM    9  H2  UNK A   0      -6.654   7.934  72.873  1.00  0.00     0.000 HD 
HETATM   10  C   UNK A   0     -10.222   9.358  70.724  1.00  0.00    -0.299 C  
HETATM   11  H   UNK A   0      -8.777   7.335  73.634  1.00  0.00     0.000 HD 
HETATM   12  C   UNK A   0     -11.124   8.824  71.587  1.00  0.00    -0.327 C  
HETATM   13  H1  UNK A   0      -6.497   8.890  71.403  1.00  0.00     0.000 HD 
HETATM   14  C   UNK A   0     -10.558   7.887  72.669  1.00  0.00    -0.329 C  
HETATM   15  N   UNK A   0      -8.893   9.120  70.912  1.00  0.00    -0.233 NA 
HETATM   16  N   UNK A   0      -7.089   8.419  72.087  1.00  0.00    -0.090 NA 
HETATM   17  N   UNK A   0      -9.186   7.832  72.842  1.00  0.00    -0.184 N  
ENDROOT
BRANCH   3  18
HETATM   18  C   UNK A   0     -12.617  11.663  71.565  1.00  0.00    -0.236 C  
BRANCH  18  19
HETATM   19  N   UNK A   0     -13.350  12.821  71.016  1.00  0.00     0.160 NA 
HETATM   20  H   UNK A   0     -14.363  12.902  71.107  1.00  0.00     0.000 HD 
BRANCH  19  21
HETATM   21  C   UNK A   0     -12.590  13.803  70.364  1.00  0.00    -0.256 A  
HETATM   22  C   UNK A   0     -11.938  16.148  70.245  1.00  0.00    -0.084 A  
HETATM   23  C   UNK A   0     -11.074  15.857  69.189  1.00  0.00    -0.302 A  
HETATM   24  C   UNK A   0     -11.823  13.554  69.223  1.00  0.00    -0.392 A  
HETATM   25  C   UNK A   0     -12.699  15.124  70.818  1.00  0.00    -0.463 A  
HETATM   26  C   UNK A   0     -11.056  14.569  68.644  1.00  0.00    -0.272 A  
BRANCH  23  27
HETATM   27  C   UNK A   0     -10.197  16.924  68.645  1.00  0.00    -0.301 C  
ATOM     28  H   GLU A   1     -10.814  16.461  66.708  1.00  0.00     0.000 HD 
ATOM     29  N   GLU A   1     -10.192  17.047  67.264  1.00  0.00    -0.303 N  
HETATM   30  O   UNK A   0      -9.550  17.650  69.382  1.00  0.00    -0.003 OA 
BRANCH  29  31
ATOM     31  CA  GLU A   1      -9.302  18.012  66.582  1.00  0.00    -0.291 C  
ATOM     32  C   GLU A   1     -10.044  19.352  66.365  1.00  0.00    -0.444 C  
ATOM     33  O   GLU A   1     -11.342  19.330  66.746  1.00  0.00    -0.012 OA 
ATOM     34  OXT GLU A   1      -9.543  20.342  65.851  1.00  0.00    -0.264 OA 
BRANCH  31  35
ATOM     35  CB  GLU A   1      -8.817  17.421  65.245  1.00  0.00     1.868 C  
BRANCH  35  36
ATOM     36  CG  GLU A   1      -9.246  15.965  65.025  1.00  0.00     1.559 C  
ATOM     37  CD  GLU A   1     -10.578  15.848  64.327  1.00  0.00     0.992 C  
ATOM     38  OE2 GLU A   1     -11.280  16.786  63.986  1.00  0.00    -1.089 OA 
ATOM     39  OE1 GLU A   1     -10.920  14.554  64.103  1.00  0.00    -0.057 OA 
ENDBRANCH  35  36
ENDBRANCH  31  35
ENDBRANCH  29  31
ENDBRANCH  23  27
ENDBRANCH  19  21
ENDBRANCH  18  19
ENDBRANCH   3  18
TORSDOF 7
ENDMDL
MODEL      254
REMARK 921   NORMALIZED FREE ENERGY PREDICTED BY IDOCK:   -1.77 KCAL/MOL
REMARK 922        TOTAL FREE ENERGY PREDICTED BY IDOCK:   -3.72 KCAL/MOL
REMARK 923 INTER-LIGAND FREE ENERGY PREDICTED BY IDOCK:   -4.27 KCAL/MOL
REMARK 924 INTRA-LIGAND FREE ENERGY PREDICTED BY IDOCK:    0.54 KCAL/MOL
REMARK 927      BINDING AFFINITY PREDICTED BY RF-SCORE:    0.00 PKD
ROOT
HETATM    1  C   UNK A   0     -10.494   4.101  68.168  1.00  0.00     0.899 C  
HETATM    2  N   UNK A   0      -9.852   5.226  67.504  1.00  0.00    -0.146 NA 
HETATM    3  C   UNK A   0     -10.302   6.602  67.863  1.00  0.00    -0.189 C  
HETATM    4  O   UNK A   0      -8.333   2.766  66.989  1.00  0.00    -0.086 OA 
HETATM    5  C   UNK A   0     -10.330   7.459  66.572  1.00  0.00    -0.038 C  
HETATM    6  C   UNK A   0      -6.445   4.933  65.141  1.00  0.00    -0.036 C  
HETATM    7  N   UNK A   0      -9.064   7.350  65.825  1.00  0.00    -0.380 NA 
HETATM    8  H   UNK A   0      -8.708   8.151  65.304  1.00  0.00     0.000 HD 
HETATM    9  H2  UNK A   0      -4.622   4.274  64.456  1.00  0.00     0.000 HD 
HETATM   10  C   UNK A   0      -8.358   6.150  65.834  1.00  0.00    -0.140 C  
HETATM   11  H   UNK A   0      -6.097   3.062  65.797  1.00  0.00     0.000 HD 
HETATM   12  C   UNK A   0      -8.763   5.102  66.597  1.00  0.00    -0.109 C  
HETATM   13  H1  UNK A   0      -5.051   5.904  63.947  1.00  0.00     0.000 HD 
HETATM   14  C   UNK A   0      -7.941   3.808  66.468  1.00  0.00    -0.089 C  
HETATM   15  N   UNK A   0      -7.222   6.035  65.088  1.00  0.00    -0.068 NA 
HETATM   16  N   UNK A   0      -5.282   5.052  64.458  1.00  0.00    -0.009 NA 
HETATM   17  N   UNK A   0      -6.737   3.857  65.787  1.00  0.00    -0.044 N  
ENDROOT
BRANCH   3  18
HETATM   18  C   UNK A   0      -9.360   7.216  68.934  1.00  0.00    -0.139 C  
BRANCH  18  19
HETATM   19  N   UNK A   0     -10.088   8.132  69.836  1.00  0.00    -0.191 NA 
HETATM   20  H   UNK A   0     -10.275   7.886  70.808  1.00  0.00     0.000 HD 
BRANCH  19  21
HETATM   21  C   UNK A   0     -10.513   9.354  69.293  1.00  0.00    -0.218 A  
HETATM   22  C   UNK A   0     -10.359  11.785  69.347  1.00  0.00     0.196 A  
HETATM   23  C   UNK A   0     -11.232  11.866  68.261  1.00  0.00    -0.317 A  
HETATM   24  C   UNK A   0     -11.487   9.458  68.296  1.00  0.00     0.534 A  
HETATM   25  C   UNK A   0     -10.015  10.532  69.863  1.00  0.00     0.004 A  
HETATM   26  C   UNK A   0     -11.836  10.705  67.770  1.00  0.00     0.412 A  
BRANCH  23  27
HETATM   27  C   UNK A   0     -11.523  13.189  67.652  1.00  0.00    -0.324 C  
ATOM     28  H   GLU A   1     -10.697  12.554  65.846  1.00  0.00     0.000 HD 
ATOM     29  N   GLU A   1     -11.111  13.346  66.338  1.00  0.00    -0.296 N  
HETATM   30  O   UNK A   0     -12.108  14.060  68.277  1.00  0.00    -0.355 OA 
BRANCH  29  31
ATOM     31  CA  GLU A   1     -11.262  14.638  65.634  1.00  0.00    -0.342 C  
ATOM     32  C   GLU A   1     -12.272  14.492  64.472  1.00  0.00    -0.465 C  
ATOM     33  O   GLU A   1     -12.720  13.228  64.288  1.00  0.00    -0.642 OA 
ATOM     34  OXT GLU A   1     -12.616  15.408  63.737  1.00  0.00    -0.678 OA 
BRANCH  31  35
ATOM     35  CB  GLU A   1      -9.891  15.119  65.124  1.00  0.00    -0.170 C  
BRANCH  35  36
ATOM     36  CG  GLU A   1      -9.320  16.301  65.915  1.00  0.00    -0.299 C  
ATOM     37  CD  GLU A   1      -8.761  15.891  67.255  1.00  0.00    -0.187 C  
ATOM     38  OE2 GLU A   1      -8.771  14.758  67.706  1.00  0.00    -0.162 OA 
ATOM     39  OE1 GLU A   1      -8.222  16.943  67.922  1.00  0.00    -0.190 OA 
ENDBRANCH  35  36
ENDBRANCH  31  35
ENDBRANCH  29  31
ENDBRANCH  23  27
ENDBRANCH  19  21
ENDBRANCH  18  19
ENDBRANCH   3  18
TORSDOF 7
ENDMDL
MODEL      255
REMARK 921   NORMALIZED FREE ENERGY PREDICTED BY IDOCK:   -1.67 KCAL/MOL
REMARK 922        TOTAL FREE ENERGY PREDICTED BY IDOCK:   -3.58 KCAL/MOL
REMARK 923 INTER-LIGAND FREE ENERGY PREDICTED BY IDOCK:   -3.01 KCAL/MOL
REMARK 924 INTRA-LIGAND FREE ENERGY PREDICTED BY IDOCK:   -0.57 KCAL/MOL
REMARK 927      BINDING AFFINITY PREDICTED BY RF-SCORE:    0.00 PKD
ROOT
HETATM    1  C   UNK A   0     -10.829  12.213  67.958  1.00  0.00    -0.222 C  
HETATM    2  N   UNK A   0      -9.443  12.168  67.515  1.00  0.00    -0.177 NA 
HETATM    3  C   UNK A   0      -8.425  12.899  68.322  1.00  0.00    -0.161 C  
HETATM    4  O   UNK A   0     -11.025  10.174  66.049  1.00  0.00     0.130 OA 
HETATM    5  C   UNK A   0      -7.412  13.557  67.350  1.00  0.00    -0.122 C  
HETATM    6  C   UNK A   0      -8.009   9.658  64.529  1.00  0.00    -0.140 C  
HETATM    7  N   UNK A   0      -6.904  12.588  66.363  1.00  0.00     0.107 NA 
HETATM    8  H   UNK A   0      -5.946  12.661  66.022  1.00  0.00     0.000 HD 
HETATM    9  H2  UNK A   0      -7.807   7.995  63.337  1.00  0.00     0.000 HD 
HETATM   10  C   UNK A   0      -7.737  11.573  65.899  1.00  0.00     0.354 C  
HETATM   11  H   UNK A   0      -9.707   8.576  64.560  1.00  0.00     0.000 HD 
HETATM   12  C   UNK A   0      -8.984  11.399  66.410  1.00  0.00    -0.191 C  
HETATM   13  H1  UNK A   0      -6.386   9.033  63.393  1.00  0.00     0.000 HD 
HETATM   14  C   UNK A   0      -9.834  10.290  65.767  1.00  0.00    -0.257 C  
HETATM   15  N   UNK A   0      -7.283  10.719  64.938  1.00  0.00    -0.353 NA 
HETATM   16  N   UNK A   0      -7.343   8.834  63.686  1.00  0.00    -0.100 NA 
HETATM   17  N   UNK A   0      -9.217   9.405  64.899  1.00  0.00    -0.371 N  
ENDROOT
BRANCH   3  18
HETATM   18  C   UNK A   0      -7.718  11.931  69.309  1.00  0.00     0.273 C  
BRANCH  18  19
HETATM   19  N   UNK A   0      -6.726  11.082  68.620  1.00  0.00    -0.057 NA 
HETATM   20  H   UNK A   0      -6.127  11.454  67.883  1.00  0.00     0.000 HD 
BRANCH  19  21
HETATM   21  C   UNK A   0      -6.645   9.742  69.025  1.00  0.00    -0.049 A  
HETATM   22  C   UNK A   0      -7.841   7.714  69.655  1.00  0.00    -0.108 A  
HETATM   23  C   UNK A   0      -6.628   7.035  69.781  1.00  0.00    -0.044 A  
HETATM   24  C   UNK A   0      -5.438   9.085  69.285  1.00  0.00    -0.036 A  
HETATM   25  C   UNK A   0      -7.842   9.063  69.290  1.00  0.00    -0.095 A  
HETATM   26  C   UNK A   0      -5.425   7.736  69.646  1.00  0.00    -0.023 A  
BRANCH  23  27
HETATM   27  C   UNK A   0      -6.631   5.579  70.074  1.00  0.00    -0.043 C  
ATOM     28  H   GLU A   1      -8.696   5.627  70.360  1.00  0.00     0.000 HD 
ATOM     29  N   GLU A   1      -7.865   5.037  70.396  1.00  0.00    -0.072 N  
HETATM   30  O   UNK A   0      -5.607   4.918  70.007  1.00  0.00    -0.014 OA 
BRANCH  29  31
ATOM     31  CA  GLU A   1      -8.001   3.618  70.792  1.00  0.00    -0.054 C  
ATOM     32  C   GLU A   1      -8.387   2.762  69.563  1.00  0.00    -0.055 C  
ATOM     33  O   GLU A   1      -8.607   3.482  68.438  1.00  0.00    -0.085 OA 
ATOM     34  OXT GLU A   1      -8.537   1.548  69.587  1.00  0.00    -0.045 OA 
BRANCH  31  35
ATOM     35  CB  GLU A   1      -9.047   3.486  71.914  1.00  0.00    -0.163 C  
BRANCH  35  36
ATOM     36  CG  GLU A   1     -10.299   4.342  71.691  1.00  0.00    -0.118 C  
ATOM     37  CD  GLU A   1     -10.866   4.893  72.976  1.00  0.00    -0.265 C  
ATOM     38  OE2 GLU A   1     -10.421   4.679  74.091  1.00  0.00    -0.230 OA 
ATOM     39  OE1 GLU A   1     -11.948   5.682  72.754  1.00  0.00    -0.226 OA 
ENDBRANCH  35  36
ENDBRANCH  31  35
ENDBRANCH  29  31
ENDBRANCH  23  27
ENDBRANCH  19  21
ENDBRANCH  18  19
ENDBRANCH   3  18
TORSDOF 7
ENDMDL
MODEL      256
REMARK 921   NORMALIZED FREE ENERGY PREDICTED BY IDOCK:   -1.39 KCAL/MOL
REMARK 922        TOTAL FREE ENERGY PREDICTED BY IDOCK:   -3.20 KCAL/MOL
REMARK 923 INTER-LIGAND FREE ENERGY PREDICTED BY IDOCK:   -4.12 KCAL/MOL
REMARK 924 INTRA-LIGAND FREE ENERGY PREDICTED BY IDOCK:    0.92 KCAL/MOL
REMARK 927      BINDING AFFINITY PREDICTED BY RF-SCORE:    0.00 PKD
ROOT
HETATM    1  C   UNK A   0      -5.134   5.231  66.577  1.00  0.00    -0.005 C  
HETATM    2  N   UNK A   0      -6.402   5.071  65.882  1.00  0.00    -0.038 NA 
HETATM    3  C   UNK A   0      -7.315   3.981  66.333  1.00  0.00    -0.076 C  
HETATM    4  O   UNK A   0      -5.167   7.625  65.126  1.00  0.00    -0.028 OA 
HETATM    5  C   UNK A   0      -7.971   3.345  65.081  1.00  0.00    -0.086 C  
HETATM    6  C   UNK A   0      -7.950   7.794  63.150  1.00  0.00    -0.117 C  
HETATM    7  N   UNK A   0      -8.550   4.371  64.196  1.00  0.00    -0.118 NA 
HETATM    8  H   UNK A   0      -9.396   4.168  63.663  1.00  0.00     0.000 HD 
HETATM    9  H2  UNK A   0      -8.379   9.591  62.248  1.00  0.00     0.000 HD 
HETATM   10  C   UNK A   0      -7.937   5.617  64.088  1.00  0.00    -0.121 C  
HETATM   11  H   UNK A   0      -6.602   9.184  63.705  1.00  0.00     0.000 HD 
HETATM   12  C   UNK A   0      -6.866   5.941  64.858  1.00  0.00    -0.048 C  
HETATM   13  H1  UNK A   0      -9.485   8.283  61.841  1.00  0.00     0.000 HD 
HETATM   14  C   UNK A   0      -6.234   7.320  64.598  1.00  0.00    -0.037 C  
HETATM   15  N   UNK A   0      -8.440   6.539  63.219  1.00  0.00    -0.328 NA 
HETATM   16  N   UNK A   0      -8.665   8.617  62.348  1.00  0.00    -0.401 NA 
HETATM   17  N   UNK A   0      -6.913   8.216  63.791  1.00  0.00    -0.075 N  
ENDROOT
BRANCH   3  18
HETATM   18  C   UNK A   0      -8.383   4.539  67.313  1.00  0.00    -0.104 C  
BRANCH  18  19
HETATM   19  N   UNK A   0      -9.214   5.580  66.675  1.00  0.00    -0.131 NA 
HETATM   20  H   UNK A   0      -9.867   5.355  65.924  1.00  0.00     0.000 HD 
BRANCH  19  21
HETATM   21  C   UNK A   0      -9.063   6.892  67.147  1.00  0.00    -0.131 A  
HETATM   22  C   UNK A   0      -8.565   8.347  69.037  1.00  0.00    -0.131 A  
HETATM   23  C   UNK A   0      -8.672   9.464  68.209  1.00  0.00    -0.124 A  
HETATM   24  C   UNK A   0      -9.297   8.026  66.364  1.00  0.00    -0.259 A  
HETATM   25  C   UNK A   0      -8.772   7.071  68.506  1.00  0.00    -0.122 A  
HETATM   26  C   UNK A   0      -9.090   9.306  66.883  1.00  0.00    -0.158 A  
BRANCH  23  27
HETATM   27  C   UNK A   0      -8.358  10.811  68.751  1.00  0.00    -0.147 C  
ATOM     28  H   GLU A   1      -6.750  10.980  67.435  1.00  0.00     0.000 HD 
ATOM     29  N   GLU A   1      -7.248  11.433  68.201  1.00  0.00    -0.078 N  
HETATM   30  O   UNK A   0      -9.058  11.329  69.606  1.00  0.00     0.453 OA 
BRANCH  29  31
ATOM     31  CA  GLU A   1      -6.772  12.740  68.703  1.00  0.00    -0.088 C  
ATOM     32  C   GLU A   1      -6.116  12.564  70.093  1.00  0.00    -0.099 C  
ATOM     33  O   GLU A   1      -6.200  11.307  70.586  1.00  0.00    -0.334 OA 
ATOM     34  OXT GLU A   1      -5.606  13.473  70.735  1.00  0.00    -0.154 OA 
BRANCH  31  35
ATOM     35  CB  GLU A   1      -7.944  13.736  68.761  1.00  0.00    -0.041 C  
BRANCH  35  36
ATOM     36  CG  GLU A   1      -7.832  14.877  67.742  1.00  0.00    -0.164 C  
ATOM     37  CD  GLU A   1      -8.924  14.838  66.702  1.00  0.00    -0.255 C  
ATOM     38  OE2 GLU A   1      -9.799  13.992  66.629  1.00  0.00    -0.266 OA 
ATOM     39  OE1 GLU A   1      -8.833  15.879  65.835  1.00  0.00    -0.308 OA 
ENDBRANCH  35  36
ENDBRANCH  31  35
ENDBRANCH  29  31
ENDBRANCH  23  27
ENDBRANCH  19  21
ENDBRANCH  18  19
ENDBRANCH   3  18
TORSDOF 7
ENDMDL
MODEL      257
REMARK 921   NORMALIZED FREE ENERGY PREDICTED BY IDOCK:   -1.25 KCAL/MOL
REMARK 922        TOTAL FREE ENERGY PREDICTED BY IDOCK:   -2.99 KCAL/MOL
REMARK 923 INTER-LIGAND FREE ENERGY PREDICTED BY IDOCK:   -2.43 KCAL/MOL
REMARK 924 INTRA-LIGAND FREE ENERGY PREDICTED BY IDOCK:   -0.56 KCAL/MOL
REMARK 927      BINDING AFFINITY PREDICTED BY RF-SCORE:    0.00 PKD
ROOT
HETATM    1  C   UNK A   0     -11.916   4.524  73.268  1.00  0.00     0.164 C  
HETATM    2  N   UNK A   0     -11.346   5.165  72.093  1.00  0.00    -0.012 NA 
HETATM    3  C   UNK A   0     -12.017   6.390  71.569  1.00  0.00    -0.273 C  
HETATM    4  O   UNK A   0      -9.461   3.181  73.157  1.00  0.00    -0.092 OA 
HETATM    5  C   UNK A   0     -11.987   6.337  70.020  1.00  0.00     0.218 C  
HETATM    6  C   UNK A   0      -7.649   4.213  70.451  1.00  0.00    -0.045 C  
HETATM    7  N   UNK A   0     -10.631   6.058  69.516  1.00  0.00    -0.262 NA 
HETATM    8  H   UNK A   0     -10.317   6.468  68.636  1.00  0.00     0.000 HD 
HETATM    9  H2  UNK A   0      -5.680   3.631  70.336  1.00  0.00     0.000 HD 
HETATM   10  C   UNK A   0      -9.780   5.231  70.245  1.00  0.00    -0.195 C  
HETATM   11  H   UNK A   0      -7.146   3.151  72.087  1.00  0.00     0.000 HD 
HETATM   12  C   UNK A   0     -10.141   4.751  71.463  1.00  0.00    -0.190 C  
HETATM   13  H1  UNK A   0      -6.249   4.569  68.959  1.00  0.00     0.000 HD 
HETATM   14  C   UNK A   0      -9.145   3.791  72.139  1.00  0.00    -0.115 C  
HETATM   15  N   UNK A   0      -8.550   4.924  69.742  1.00  0.00    -0.086 NA 
HETATM   16  N   UNK A   0      -6.431   4.135  69.864  1.00  0.00    -0.031 NA 
HETATM   17  N   UNK A   0      -7.878   3.665  71.595  1.00  0.00    -0.060 N  
ENDROOT
BRANCH   3  18
HETATM   18  C   UNK A   0     -11.315   7.665  72.108  1.00  0.00    -0.293 C  
BRANCH  18  19
HETATM   19  N   UNK A   0      -9.866   7.451  72.292  1.00  0.00    -0.163 NA 
HETATM   20  H   UNK A   0      -9.509   6.679  72.855  1.00  0.00     0.000 HD 
BRANCH  19  21
HETATM   21  C   UNK A   0      -9.003   8.357  71.658  1.00  0.00    -0.199 A  
HETATM   22  C   UNK A   0      -8.756  10.168  70.046  1.00  0.00    -0.011 A  
HETATM   23  C   UNK A   0      -7.400  10.264  70.358  1.00  0.00     0.089 A  
HETATM   24  C   UNK A   0      -7.620   8.377  71.860  1.00  0.00    -0.146 A  
HETATM   25  C   UNK A   0      -9.546   9.209  70.687  1.00  0.00    -0.312 A  
HETATM   26  C   UNK A   0      -6.822   9.333  71.227  1.00  0.00    -0.037 A  
BRANCH  23  27
HETATM   27  C   UNK A   0      -6.582  11.344  69.748  1.00  0.00    -0.111 C  
ATOM     28  H   GLU A   1      -8.112  12.717  70.097  1.00  0.00     0.000 HD 
ATOM     29  N   GLU A   1      -7.188  12.588  69.683  1.00  0.00     0.358 N  
HETATM   30  O   UNK A   0      -5.445  11.133  69.358  1.00  0.00    -0.041 OA 
BRANCH  29  31
ATOM     31  CA  GLU A   1      -6.522  13.734  69.027  1.00  0.00    -0.105 C  
ATOM     32  C   GLU A   1      -6.737  15.019  69.862  1.00  0.00    -0.170 C  
ATOM     33  O   GLU A   1      -7.545  14.849  70.934  1.00  0.00     0.967 OA 
ATOM     34  OXT GLU A   1      -6.272  16.113  69.575  1.00  0.00    -0.159 OA 
BRANCH  31  35
ATOM     35  CB  GLU A   1      -7.063  13.904  67.595  1.00  0.00    -0.190 C  
BRANCH  35  36
ATOM     36  CG  GLU A   1      -8.258  12.996  67.278  1.00  0.00    -0.174 C  
ATOM     37  CD  GLU A   1      -9.468  13.766  66.811  1.00  0.00    -0.275 C  
ATOM     38  OE2 GLU A   1      -9.536  14.980  66.712  1.00  0.00    -0.222 OA 
ATOM     39  OE1 GLU A   1     -10.500  12.944  66.495  1.00  0.00    -0.259 OA 
ENDBRANCH  35  36
ENDBRANCH  31  35
ENDBRANCH  29  31
ENDBRANCH  23  27
ENDBRANCH  19  21
ENDBRANCH  18  19
ENDBRANCH   3  18
TORSDOF 7
ENDMDL
MODEL      258
REMARK 921   NORMALIZED FREE ENERGY PREDICTED BY IDOCK:   -1.18 KCAL/MOL
REMARK 922        TOTAL FREE ENERGY PREDICTED BY IDOCK:   -2.90 KCAL/MOL
REMARK 923 INTER-LIGAND FREE ENERGY PREDICTED BY IDOCK:   -3.92 KCAL/MOL
REMARK 924 INTRA-LIGAND FREE ENERGY PREDICTED BY IDOCK:    1.03 KCAL/MOL
REMARK 927      BINDING AFFINITY PREDICTED BY RF-SCORE:    0.00 PKD
ROOT
HETATM    1  C   UNK A   0     -10.384  12.498  67.243  1.00  0.00    -0.220 C  
HETATM    2  N   UNK A   0      -9.975  11.212  66.699  1.00  0.00    -0.202 NA 
HETATM    3  C   UNK A   0     -10.820  10.601  65.633  1.00  0.00     0.060 C  
HETATM    4  O   UNK A   0      -7.800  12.349  68.311  1.00  0.00    -0.136 OA 
HETATM    5  C   UNK A   0     -10.889   9.072  65.881  1.00  0.00     1.712 C  
HETATM    6  C   UNK A   0      -6.310   9.399  67.443  1.00  0.00    -0.062 C  
HETATM    7  N   UNK A   0      -9.547   8.496  66.072  1.00  0.00    -0.416 NA 
HETATM    8  H   UNK A   0      -9.344   7.551  65.746  1.00  0.00     0.000 HD 
HETATM    9  H2  UNK A   0      -4.298   9.194  67.816  1.00  0.00     0.000 HD 
HETATM   10  C   UNK A   0      -8.556   9.247  66.700  1.00  0.00    -0.127 C  
HETATM   11  H   UNK A   0      -5.575  11.103  68.225  1.00  0.00     0.000 HD 
HETATM   12  C   UNK A   0      -8.774  10.539  67.056  1.00  0.00    -0.130 C  
HETATM   13  H1  UNK A   0      -5.067   7.765  67.132  1.00  0.00     0.000 HD 
HETATM   14  C   UNK A   0      -7.628  11.242  67.806  1.00  0.00    -0.104 C  
HETATM   15  N   UNK A   0      -7.335   8.685  66.933  1.00  0.00    -0.079 NA 
HETATM   16  N   UNK A   0      -5.134   8.727  67.463  1.00  0.00    -0.033 NA 
HETATM   17  N   UNK A   0      -6.395  10.615  67.862  1.00  0.00    -0.058 N  
ENDROOT
BRANCH   3  18
HETATM   18  C   UNK A   0     -10.240  10.924  64.229  1.00  0.00    -0.364 C  
BRANCH  18  19
HETATM   19  N   UNK A   0     -10.825  12.160  63.671  1.00  0.00    -0.425 NA 
HETATM   20  H   UNK A   0     -11.281  12.168  62.759  1.00  0.00     0.000 HD 
BRANCH  19  21
HETATM   21  C   UNK A   0     -10.725  13.320  64.453  1.00  0.00    -0.415 A  
HETATM   22  C   UNK A   0     -11.891  15.115  65.618  1.00  0.00     0.049 A  
HETATM   23  C   UNK A   0     -10.671  15.618  66.070  1.00  0.00    -0.322 A  
HETATM   24  C   UNK A   0      -9.508  13.912  64.803  1.00  0.00     0.963 A  
HETATM   25  C   UNK A   0     -11.911  13.979  64.804  1.00  0.00    -0.415 A  
HETATM   26  C   UNK A   0      -9.476  15.046  65.619  1.00  0.00    -0.179 A  
BRANCH  23  27
HETATM   27  C   UNK A   0     -10.655  16.767  67.011  1.00  0.00    -0.234 C  
ATOM     28  H   GLU A   1      -8.999  17.566  66.027  1.00  0.00     0.000 HD 
ATOM     29  N   GLU A   1      -9.635  17.684  66.816  1.00  0.00    -0.283 N  
HETATM   30  O   UNK A   0     -11.507  16.889  67.876  1.00  0.00    -0.033 OA 
BRANCH  29  31
ATOM     31  CA  GLU A   1      -9.448  18.832  67.730  1.00  0.00    -0.301 C  
ATOM     32  C   GLU A   1     -10.075  20.105  67.114  1.00  0.00    -0.450 C  
ATOM     33  O   GLU A   1     -10.562  19.928  65.864  1.00  0.00    -0.496 OA 
ATOM     34  OXT GLU A   1     -10.097  21.198  67.663  1.00  0.00    -0.082 OA 
BRANCH  31  35
ATOM     35  CB  GLU A   1      -7.950  19.033  68.019  1.00  0.00    -0.322 C  
BRANCH  35  36
ATOM     36  CG  GLU A   1      -7.030  18.280  67.050  1.00  0.00    -0.210 C  
ATOM     37  CD  GLU A   1      -6.168  17.254  67.742  1.00  0.00    -0.148 C  
ATOM     38  OE2 GLU A   1      -6.154  17.039  68.942  1.00  0.00    -0.156 OA 
ATOM     39  OE1 GLU A   1      -5.393  16.569  66.863  1.00  0.00    -0.303 OA 
ENDBRANCH  35  36
ENDBRANCH  31  35
ENDBRANCH  29  31
ENDBRANCH  23  27
ENDBRANCH  19  21
ENDBRANCH  18  19
ENDBRANCH   3  18
TORSDOF 7
ENDMDL
MODEL      259
REMARK 921   NORMALIZED FREE ENERGY PREDICTED BY IDOCK:   -0.53 KCAL/MOL
REMARK 922        TOTAL FREE ENERGY PREDICTED BY IDOCK:   -1.97 KCAL/MOL
REMARK 923 INTER-LIGAND FREE ENERGY PREDICTED BY IDOCK:   -3.44 KCAL/MOL
REMARK 924 INTRA-LIGAND FREE ENERGY PREDICTED BY IDOCK:    1.46 KCAL/MOL
REMARK 927      BINDING AFFINITY PREDICTED BY RF-SCORE:    0.00 PKD
ROOT
HETATM    1  C   UNK A   0      -5.127   5.216  66.596  1.00  0.00    -0.008 C  
HETATM    2  N   UNK A   0      -6.458   4.993  66.051  1.00  0.00    -0.039 NA 
HETATM    3  C   UNK A   0      -7.298   3.925  66.667  1.00  0.00    -0.072 C  
HETATM    4  O   UNK A   0      -5.359   7.505  65.001  1.00  0.00    -0.028 OA 
HETATM    5  C   UNK A   0      -8.069   3.198  65.536  1.00  0.00    -0.086 C  
HETATM    6  C   UNK A   0      -8.336   7.505  63.325  1.00  0.00     0.153 C  
HETATM    7  N   UNK A   0      -8.757   4.154  64.651  1.00  0.00    -0.126 NA 
HETATM    8  H   UNK A   0      -9.651   3.905  64.226  1.00  0.00     0.000 HD 
HETATM    9  H2  UNK A   0      -8.892   9.231  62.356  1.00  0.00     0.000 HD 
HETATM   10  C   UNK A   0      -8.183   5.397  64.398  1.00  0.00    -0.133 C  
HETATM   11  H   UNK A   0      -6.965   8.946  63.640  1.00  0.00     0.000 HD 
HETATM   12  C   UNK A   0      -7.044   5.786  65.027  1.00  0.00    -0.064 C  
HETATM   13  H1  UNK A   0     -10.010   7.886  62.156  1.00  0.00     0.000 HD 
HETATM   14  C   UNK A   0      -6.469   7.151  64.611  1.00  0.00    -0.037 C  
HETATM   15  N   UNK A   0      -8.792   6.251  63.527  1.00  0.00    -0.059 NA 
HETATM   16  N   UNK A   0      -9.148   8.263  62.550  1.00  0.00    -0.262 NA 
HETATM   17  N   UNK A   0      -7.247   7.982  63.822  1.00  0.00    -0.087 N  
ENDROOT
BRANCH   3  18
HETATM   18  C   UNK A   0      -8.268   4.535  67.715  1.00  0.00    -0.099 C  
BRANCH  18  19
HETATM   19  N   UNK A   0      -9.447   5.148  67.072  1.00  0.00    -0.130 NA 
HETATM   20  H   UNK A   0     -10.104   4.592  66.524  1.00  0.00     0.000 HD 
BRANCH  19  21
HETATM   21  C   UNK A   0      -9.621   6.529  67.247  1.00  0.00    -0.126 A  
HETATM   22  C   UNK A   0      -9.347   8.462  68.706  1.00  0.00    -0.143 A  
HETATM   23  C   UNK A   0      -9.857   9.291  67.707  1.00  0.00    -0.210 A  
HETATM   24  C   UNK A   0     -10.252   7.352  66.310  1.00  0.00     0.175 A  
HETATM   25  C   UNK A   0      -9.243   7.087  68.475  1.00  0.00    -0.137 A  
HETATM   26  C   UNK A   0     -10.358   8.728  66.529  1.00  0.00    -0.254 A  
BRANCH  23  27
HETATM   27  C   UNK A   0      -9.878  10.761  67.915  1.00  0.00    -0.167 C  
ATOM     28  H   GLU A   1      -8.632  11.026  66.265  1.00  0.00     0.000 HD 
ATOM     29  N   GLU A   1      -9.111  11.502  67.030  1.00  0.00    -0.170 N  
HETATM   30  O   UNK A   0     -10.552  11.266  68.799  1.00  0.00    -0.188 OA 
BRANCH  29  31
ATOM     31  CA  GLU A   1      -8.974  12.968  67.170  1.00  0.00    -0.223 C  
ATOM     32  C   GLU A   1      -8.262  13.306  68.501  1.00  0.00    -0.084 C  
ATOM     33  O   GLU A   1      -8.007  12.228  69.278  1.00  0.00     0.278 OA 
ATOM     34  OXT GLU A   1      -7.986  14.440  68.867  1.00  0.00    -0.143 OA 
BRANCH  31  35
ATOM     35  CB  GLU A   1     -10.361  13.632  67.096  1.00  0.00    -0.250 C  
BRANCH  35  36
ATOM     36  CG  GLU A   1     -11.312  12.960  66.098  1.00  0.00    -0.356 C  
ATOM     37  CD  GLU A   1     -12.639  13.669  65.989  1.00  0.00    -0.386 C  
ATOM     38  OE2 GLU A   1     -12.968  14.654  66.631  1.00  0.00     0.511 OA 
ATOM     39  OE1 GLU A   1     -13.451  13.086  65.071  1.00  0.00    -0.484 OA 
ENDBRANCH  35  36
ENDBRANCH  31  35
ENDBRANCH  29  31
ENDBRANCH  23  27
ENDBRANCH  19  21
ENDBRANCH  18  19
ENDBRANCH   3  18
TORSDOF 7
ENDMDL
MODEL      260
REMARK 921   NORMALIZED FREE ENERGY PREDICTED BY IDOCK:   -0.33 KCAL/MOL
REMARK 922        TOTAL FREE ENERGY PREDICTED BY IDOCK:   -1.70 KCAL/MOL
REMARK 923 INTER-LIGAND FREE ENERGY PREDICTED BY IDOCK:   -5.48 KCAL/MOL
REMARK 924 INTRA-LIGAND FREE ENERGY PREDICTED BY IDOCK:    3.78 KCAL/MOL
REMARK 927      BINDING AFFINITY PREDICTED BY RF-SCORE:    0.00 PKD
ROOT
HETATM    1  C   UNK A   0      -5.646  18.171  69.711  1.00  0.00    -0.228 C  
HETATM    2  N   UNK A   0      -6.244  17.856  68.422  1.00  0.00    -0.181 NA 
HETATM    3  C   UNK A   0      -7.022  16.589  68.301  1.00  0.00    -0.143 C  
HETATM    4  O   UNK A   0      -5.318  20.642  68.437  1.00  0.00    -0.238 OA 
HETATM    5  C   UNK A   0      -6.721  15.963  66.915  1.00  0.00     0.083 C  
HETATM    6  C   UNK A   0      -6.476  20.502  65.226  1.00  0.00    -0.266 C  
HETATM    7  N   UNK A   0      -6.887  16.947  65.832  1.00  0.00     0.126 NA 
HETATM    8  H   UNK A   0      -7.228  16.650  64.918  1.00  0.00     0.000 HD 
HETATM    9  H2  UNK A   0      -6.659  22.271  64.193  1.00  0.00     0.000 HD 
HETATM   10  C   UNK A   0      -6.574  18.285  66.060  1.00  0.00    -0.255 C  
HETATM   11  H   UNK A   0      -5.972  22.049  66.412  1.00  0.00     0.000 HD 
HETATM   12  C   UNK A   0      -6.209  18.720  67.294  1.00  0.00    -0.178 C  
HETATM   13  H1  UNK A   0      -7.068  20.833  63.263  1.00  0.00     0.000 HD 
HETATM   14  C   UNK A   0      -5.820  20.205  67.405  1.00  0.00    -0.182 C  
HETATM   15  N   UNK A   0      -6.666  19.180  65.035  1.00  0.00    -0.472 NA 
HETATM   16  N   UNK A   0      -6.758  21.257  64.138  1.00  0.00    -0.502 NA 
HETATM   17  N   UNK A   0      -6.084  21.038  66.331  1.00  0.00    -0.258 N  
ENDROOT
BRANCH   3  18
HETATM   18  C   UNK A   0      -8.539  16.865  68.484  1.00  0.00    -0.251 C  
BRANCH  18  19
HETATM   19  N   UNK A   0      -9.346  16.151  67.475  1.00  0.00    -0.216 NA 
HETATM   20  H   UNK A   0      -9.711  16.628  66.650  1.00  0.00     0.000 HD 
BRANCH  19  21
HETATM   21  C   UNK A   0      -9.589  14.788  67.702  1.00  0.00    -0.208 A  
HETATM   22  C   UNK A   0      -9.462  12.511  66.844  1.00  0.00    -0.219 A  
HETATM   23  C   UNK A   0      -9.966  12.026  68.051  1.00  0.00    -0.197 A  
HETATM   24  C   UNK A   0     -10.215  14.298  68.852  1.00  0.00    -0.203 A  
HETATM   25  C   UNK A   0      -9.288  13.888  66.672  1.00  0.00    -0.282 A  
HETATM   26  C   UNK A   0     -10.391  12.924  69.035  1.00  0.00     0.040 A  
BRANCH  23  27
HETATM   27  C   UNK A   0     -10.061  10.560  68.268  1.00  0.00    -0.160 C  
ATOM     28  H   GLU A   1      -8.407  10.627  69.536  1.00  0.00     0.000 HD 
ATOM     29  N   GLU A   1      -9.086  10.012  69.087  1.00  0.00    -0.172 N  
HETATM   30  O   UNK A   0     -10.961   9.902  67.769  1.00  0.00    -0.282 OA 
BRANCH  29  31
ATOM     31  CA  GLU A   1      -9.011   8.554  69.323  1.00  0.00    -0.146 C  
ATOM     32  C   GLU A   1     -10.429   7.939  69.285  1.00  0.00    -0.216 C  
ATOM     33  O   GLU A   1     -11.420   8.849  69.143  1.00  0.00     0.293 OA 
ATOM     34  OXT GLU A   1     -10.667   6.746  69.418  1.00  0.00    -0.224 OA 
BRANCH  31  35
ATOM     35  CB  GLU A   1      -8.320   8.278  70.671  1.00  0.00    -0.121 C  
BRANCH  35  36
ATOM     36  CG  GLU A   1      -6.985   7.534  70.537  1.00  0.00    -0.052 C  
ATOM     37  CD  GLU A   1      -6.669   6.680  71.740  1.00  0.00    -0.062 C  
ATOM     38  OE2 GLU A   1      -7.361   6.589  72.741  1.00  0.00    -0.088 OA 
ATOM     39  OE1 GLU A   1      -5.507   5.998  71.585  1.00  0.00    -0.020 OA 
ENDBRANCH  35  36
ENDBRANCH  31  35
ENDBRANCH  29  31
ENDBRANCH  23  27
ENDBRANCH  19  21
ENDBRANCH  18  19
ENDBRANCH   3  18
TORSDOF 7
ENDMDL
MODEL      261
REMARK 921   NORMALIZED FREE ENERGY PREDICTED BY IDOCK:   -0.07 KCAL/MOL
REMARK 922        TOTAL FREE ENERGY PREDICTED BY IDOCK:   -1.33 KCAL/MOL
REMARK 923 INTER-LIGAND FREE ENERGY PREDICTED BY IDOCK:   -6.50 KCAL/MOL
REMARK 924 INTRA-LIGAND FREE ENERGY PREDICTED BY IDOCK:    5.17 KCAL/MOL
REMARK 927      BINDING AFFINITY PREDICTED BY RF-SCORE:    0.00 PKD
ROOT
HETATM    1  C   UNK A   0      -8.330  10.324  67.931  1.00  0.00    -0.114 C  
HETATM    2  N   UNK A   0      -9.363  11.258  67.510  1.00  0.00    -0.161 NA 
HETATM    3  C   UNK A   0     -10.782  10.803  67.558  1.00  0.00    -0.264 C  
HETATM    4  O   UNK A   0      -6.810  12.674  67.833  1.00  0.00    -0.085 OA 
HETATM    5  C   UNK A   0     -11.516  11.361  66.312  1.00  0.00     0.050 C  
HETATM    6  C   UNK A   0      -8.722  15.298  66.771  1.00  0.00    -0.270 C  
HETATM    7  N   UNK A   0     -11.290  12.808  66.156  1.00  0.00    -0.312 NA 
HETATM    8  H   UNK A   0     -12.025  13.402  65.771  1.00  0.00     0.000 HD 
HETATM    9  H2  UNK A   0      -7.934  17.190  66.937  1.00  0.00     0.000 HD 
HETATM   10  C   UNK A   0     -10.070  13.362  66.536  1.00  0.00    -0.280 C  
HETATM   11  H   UNK A   0      -6.908  15.215  67.640  1.00  0.00     0.000 HD 
HETATM   12  C   UNK A   0      -9.114  12.608  67.138  1.00  0.00    -0.210 C  
HETATM   13  H1  UNK A   0      -9.524  17.122  66.185  1.00  0.00     0.000 HD 
HETATM   14  C   UNK A   0      -7.783  13.316  67.446  1.00  0.00    -0.140 C  
HETATM   15  N   UNK A   0      -9.843  14.691  66.329  1.00  0.00    -0.285 NA 
HETATM   16  N   UNK A   0      -8.733  16.643  66.616  1.00  0.00    -0.223 NA 
HETATM   17  N   UNK A   0      -7.723  14.693  67.315  1.00  0.00    -0.257 N  
ENDROOT
BRANCH   3  18
HETATM   18  C   UNK A   0     -11.458  11.274  68.874  1.00  0.00    -0.297 C  
BRANCH  18  19
HETATM   19  N   UNK A   0     -10.640  10.935  70.056  1.00  0.00    -0.439 NA 
HETATM   20  H   UNK A   0     -10.018  11.618  70.487  1.00  0.00     0.000 HD 
BRANCH  19  21
HETATM   21  C   UNK A   0     -10.757   9.630  70.556  1.00  0.00    -0.311 A  
HETATM   22  C   UNK A   0      -9.618   7.593  71.258  1.00  0.00    -0.171 A  
HETATM   23  C   UNK A   0     -10.843   7.026  71.611  1.00  0.00    -0.249 A  
HETATM   24  C   UNK A   0     -11.982   8.999  70.789  1.00  0.00    -0.214 A  
HETATM   25  C   UNK A   0      -9.583   8.884  70.723  1.00  0.00    -0.283 A  
HETATM   26  C   UNK A   0     -12.030   7.711  71.327  1.00  0.00    -0.330 A  
BRANCH  23  27
HETATM   27  C   UNK A   0     -10.873   5.695  72.267  1.00  0.00    -0.242 C  
ATOM     28  H   GLU A   1      -9.759   4.884  70.702  1.00  0.00     0.000 HD 
ATOM     29  N   GLU A   1     -10.247   4.672  71.572  1.00  0.00    -0.183 N  
HETATM   30  O   UNK A   0     -11.398   5.537  73.358  1.00  0.00    -0.234 OA 
BRANCH  29  31
ATOM     31  CA  GLU A   1     -10.271   3.278  72.068  1.00  0.00    -0.039 C  
ATOM     32  C   GLU A   1     -10.580   3.262  73.583  1.00  0.00    -0.190 C  
ATOM     33  O   GLU A   1     -10.665   4.492  74.141  1.00  0.00    -0.264 OA 
ATOM     34  OXT GLU A   1     -10.693   2.244  74.253  1.00  0.00    -0.145 OA 
BRANCH  31  35
ATOM     35  CB  GLU A   1      -8.926   2.592  71.766  1.00  0.00    -0.135 C  
BRANCH  35  36
ATOM     36  CG  GLU A   1      -7.937   3.486  71.008  1.00  0.00    -0.058 C  
ATOM     37  CD  GLU A   1      -7.208   4.448  71.912  1.00  0.00    -0.063 C  
ATOM     38  OE2 GLU A   1      -7.381   4.553  73.115  1.00  0.00    -0.076 OA 
ATOM     39  OE1 GLU A   1      -6.307   5.199  71.231  1.00  0.00    -0.028 OA 
ENDBRANCH  35  36
ENDBRANCH  31  35
ENDBRANCH  29  31
ENDBRANCH  23  27
ENDBRANCH  19  21
ENDBRANCH  18  19
ENDBRANCH   3  18
TORSDOF 7
ENDMDL
MODEL      262
REMARK 921   NORMALIZED FREE ENERGY PREDICTED BY IDOCK:    0.14 KCAL/MOL
REMARK 922        TOTAL FREE ENERGY PREDICTED BY IDOCK:   -1.04 KCAL/MOL
REMARK 923 INTER-LIGAND FREE ENERGY PREDICTED BY IDOCK:    0.38 KCAL/MOL
REMARK 924 INTRA-LIGAND FREE ENERGY PREDICTED BY IDOCK:   -1.42 KCAL/MOL
REMARK 927      BINDING AFFINITY PREDICTED BY RF-SCORE:    0.00 PKD
ROOT
HETATM    1  C   UNK A   0      -9.797  18.511  67.267  1.00  0.00    -0.313 C  
HETATM    2  N   UNK A   0      -9.239  17.184  67.055  1.00  0.00    -0.235 NA 
HETATM    3  C   UNK A   0      -8.217  16.690  68.023  1.00  0.00    -0.185 C  
HETATM    4  O   UNK A   0     -11.591  17.562  65.338  1.00  0.00     0.753 OA 
HETATM    5  C   UNK A   0      -7.133  15.913  67.233  1.00  0.00    -0.207 C  
HETATM    6  C   UNK A   0     -10.715  14.418  64.326  1.00  0.00     0.197 C  
HETATM    7  N   UNK A   0      -7.734  14.911  66.336  1.00  0.00     0.030 NA 
HETATM    8  H   UNK A   0      -7.251  14.031  66.156  1.00  0.00     0.000 HD 
HETATM    9  H2  UNK A   0     -12.058  13.372  63.172  1.00  0.00     0.000 HD 
HETATM   10  C   UNK A   0      -8.964  15.170  65.736  1.00  0.00     0.283 C  
HETATM   11  H   UNK A   0     -12.396  15.498  64.073  1.00  0.00     0.000 HD 
HETATM   12  C   UNK A   0      -9.669  16.291  66.035  1.00  0.00    -0.339 C  
HETATM   13  H1  UNK A   0     -10.536  12.536  63.466  1.00  0.00     0.000 HD 
HETATM   14  C   UNK A   0     -10.978  16.500  65.255  1.00  0.00    -0.162 C  
HETATM   15  N   UNK A   0      -9.483  14.267  64.856  1.00  0.00    -0.095 NA 
HETATM   16  N   UNK A   0     -11.130  13.355  63.598  1.00  0.00    -0.503 NA 
HETATM   17  N   UNK A   0     -11.466  15.452  64.492  1.00  0.00    -0.646 N  
ENDROOT
BRANCH   3  18
HETATM   18  C   UNK A   0      -8.882  15.798  69.105  1.00  0.00    -0.250 C  
BRANCH  18  19
HETATM   19  N   UNK A   0      -8.202  14.492  69.225  1.00  0.00    -0.360 NA 
HETATM   20  H   UNK A   0      -7.185  14.419  69.214  1.00  0.00     0.000 HD 
BRANCH  19  21
HETATM   21  C   UNK A   0      -9.019  13.359  69.352  1.00  0.00     1.076 A  
HETATM   22  C   UNK A   0     -11.188  12.457  70.000  1.00  0.00     0.187 A  
HETATM   23  C   UNK A   0     -10.780  11.184  69.601  1.00  0.00    -0.144 A  
HETATM   24  C   UNK A   0      -8.582  12.059  69.083  1.00  0.00     0.490 A  
HETATM   25  C   UNK A   0     -10.303  13.533  69.885  1.00  0.00     1.088 A  
HETATM   26  C   UNK A   0      -9.459  10.976  69.192  1.00  0.00    -0.064 A  
BRANCH  23  27
HETATM   27  C   UNK A   0     -11.750  10.060  69.634  1.00  0.00    -0.034 C  
ATOM     28  H   GLU A   1     -10.778   9.252  71.292  1.00  0.00     0.000 HD 
ATOM     29  N   GLU A   1     -11.532   9.111  70.619  1.00  0.00    -0.269 N  
HETATM   30  O   UNK A   0     -12.685  10.007  68.851  1.00  0.00     0.923 OA 
BRANCH  29  31
ATOM     31  CA  GLU A   1     -12.370   7.896  70.716  1.00  0.00     0.022 C  
ATOM     32  C   GLU A   1     -13.127   7.883  72.066  1.00  0.00    -0.231 C  
ATOM     33  O   GLU A   1     -12.799   8.904  72.890  1.00  0.00    -0.321 OA 
ATOM     34  OXT GLU A   1     -13.917   7.012  72.404  1.00  0.00     0.110 OA 
BRANCH  31  35
ATOM     35  CB  GLU A   1     -11.493   6.641  70.557  1.00  0.00    -0.432 C  
BRANCH  35  36
ATOM     36  CG  GLU A   1     -11.655   5.946  69.199  1.00  0.00     0.575 C  
ATOM     37  CD  GLU A   1     -10.388   5.961  68.381  1.00  0.00    -0.210 C  
ATOM     38  OE2 GLU A   1      -9.338   6.485  68.716  1.00  0.00    -0.131 OA 
ATOM     39  OE1 GLU A   1     -10.539   5.305  67.203  1.00  0.00    -0.227 OA 
ENDBRANCH  35  36
ENDBRANCH  31  35
ENDBRANCH  29  31
ENDBRANCH  23  27
ENDBRANCH  19  21
ENDBRANCH  18  19
ENDBRANCH   3  18
TORSDOF 7
ENDMDL
MODEL      263
REMARK 921   NORMALIZED FREE ENERGY PREDICTED BY IDOCK:    1.49 KCAL/MOL
REMARK 922        TOTAL FREE ENERGY PREDICTED BY IDOCK:    0.86 KCAL/MOL
REMARK 923 INTER-LIGAND FREE ENERGY PREDICTED BY IDOCK:   -3.07 KCAL/MOL
REMARK 924 INTRA-LIGAND FREE ENERGY PREDICTED BY IDOCK:    3.93 KCAL/MOL
REMARK 927      BINDING AFFINITY PREDICTED BY RF-SCORE:    0.00 PKD
ROOT
HETATM    1  C   UNK A   0      -9.674  12.697  67.995  1.00  0.00    -0.215 C  
HETATM    2  N   UNK A   0     -10.294  12.097  66.824  1.00  0.00    -0.212 NA 
HETATM    3  C   UNK A   0     -10.535  10.625  66.834  1.00  0.00    -0.249 C  
HETATM    4  O   UNK A   0     -10.518  15.021  66.682  1.00  0.00    -0.273 OA 
HETATM    5  C   UNK A   0     -10.233  10.071  65.418  1.00  0.00    -0.156 C  
HETATM    6  C   UNK A   0     -12.009  14.247  63.707  1.00  0.00    -0.040 C  
HETATM    7  N   UNK A   0     -10.927  10.848  64.376  1.00  0.00    -0.244 NA 
HETATM    8  H   UNK A   0     -11.264  10.385  63.532  1.00  0.00     0.000 HD 
HETATM    9  H2  UNK A   0     -13.012  15.745  62.718  1.00  0.00     0.000 HD 
HETATM   10  C   UNK A   0     -11.121  12.217  64.548  1.00  0.00    -0.325 C  
HETATM   11  H   UNK A   0     -11.963  15.943  64.793  1.00  0.00     0.000 HD 
HETATM   12  C   UNK A   0     -10.766  12.836  65.704  1.00  0.00    -0.273 C  
HETATM   13  H1  UNK A   0     -12.975  14.202  61.870  1.00  0.00     0.000 HD 
HETATM   14  C   UNK A   0     -10.965  14.361  65.747  1.00  0.00    -0.314 C  
HETATM   15  N   UNK A   0     -11.705  12.942  63.552  1.00  0.00    -0.597 NA 
HETATM   16  N   UNK A   0     -12.722  14.767  62.680  1.00  0.00     1.282 NA 
HETATM   17  N   UNK A   0     -11.689  14.961  64.732  1.00  0.00    -0.410 N  
ENDROOT
BRANCH   3  18
HETATM   18  C   UNK A   0     -11.995  10.318  67.266  1.00  0.00     2.341 C  
BRANCH  18  19
HETATM   19  N   UNK A   0     -12.179  10.493  68.720  1.00  0.00    -0.780 NA 
HETATM   20  H   UNK A   0     -12.905  11.102  69.096  1.00  0.00     0.000 HD 
BRANCH  19  21
HETATM   21  C   UNK A   0     -11.309   9.784  69.561  1.00  0.00    -0.083 A  
HETATM   22  C   UNK A   0     -10.712   9.161  71.841  1.00  0.00    -0.334 A  
HETATM   23  C   UNK A   0      -9.678   8.362  71.354  1.00  0.00    -0.260 A  
HETATM   24  C   UNK A   0     -10.188   9.086  69.100  1.00  0.00    -0.213 A  
HETATM   25  C   UNK A   0     -11.513   9.875  70.944  1.00  0.00    -0.456 A  
HETATM   26  C   UNK A   0      -9.383   8.366  69.987  1.00  0.00    -0.159 A  
BRANCH  23  27
HETATM   27  C   UNK A   0      -8.889   7.529  72.298  1.00  0.00    -0.129 C  
ATOM     28  H   GLU A   1      -8.823   5.984  70.900  1.00  0.00     0.000 HD 
ATOM     29  N   GLU A   1      -8.566   6.259  71.848  1.00  0.00    -0.128 N  
HETATM   30  O   UNK A   0      -8.538   7.963  73.384  1.00  0.00    -0.177 OA 
BRANCH  29  31
ATOM     31  CA  GLU A   1      -7.856   5.293  72.715  1.00  0.00    -0.099 C  
ATOM     32  C   GLU A   1      -8.868   4.551  73.618  1.00  0.00    -0.105 C  
ATOM     33  O   GLU A   1     -10.141   4.994  73.498  1.00  0.00    -0.151 OA 
ATOM     34  OXT GLU A   1      -8.567   3.672  74.415  1.00  0.00    -0.087 OA 
BRANCH  31  35
ATOM     35  CB  GLU A   1      -6.794   6.027  73.554  1.00  0.00    -0.080 C  
BRANCH  35  36
ATOM     36  CG  GLU A   1      -6.398   7.395  72.985  1.00  0.00    -0.059 C  
ATOM     37  CD  GLU A   1      -5.564   7.287  71.733  1.00  0.00    -0.036 C  
ATOM     38  OE2 GLU A   1      -5.200   6.243  71.217  1.00  0.00    -0.017 OA 
ATOM     39  OE1 GLU A   1      -5.259   8.506  71.221  1.00  0.00    -0.029 OA 
ENDBRANCH  35  36
ENDBRANCH  31  35
ENDBRANCH  29  31
ENDBRANCH  23  27
ENDBRANCH  19  21
ENDBRANCH  18  19
ENDBRANCH   3  18
TORSDOF 7
ENDMDL
MODEL      264
REMARK 921   NORMALIZED FREE ENERGY PREDICTED BY IDOCK:    4.80 KCAL/MOL
REMARK 922        TOTAL FREE ENERGY PREDICTED BY IDOCK:    5.53 KCAL/MOL
REMARK 923 INTER-LIGAND FREE ENERGY PREDICTED BY IDOCK:   -3.86 KCAL/MOL
REMARK 924 INTRA-LIGAND FREE ENERGY PREDICTED BY IDOCK:    9.39 KCAL/MOL
REMARK 927      BINDING AFFINITY PREDICTED BY RF-SCORE:    0.00 PKD
ROOT
HETATM    1  C   UNK A   0      -7.763  14.846  66.283  1.00  0.00     1.574 C  
HETATM    2  N   UNK A   0      -7.394  15.998  67.093  1.00  0.00    -0.203 NA 
HETATM    3  C   UNK A   0      -7.888  17.340  66.670  1.00  0.00    -0.260 C  
HETATM    4  O   UNK A   0      -6.749  13.519  68.530  1.00  0.00    -0.080 OA 
HETATM    5  C   UNK A   0      -6.760  18.374  66.913  1.00  0.00    -0.187 C  
HETATM    6  C   UNK A   0      -5.588  15.765  70.829  1.00  0.00    -0.023 C  
HETATM    7  N   UNK A   0      -6.216  18.269  68.278  1.00  0.00    -0.183 NA 
HETATM    8  H   UNK A   0      -5.889  19.104  68.765  1.00  0.00     0.000 HD 
HETATM    9  H2  UNK A   0      -5.107  15.061  72.700  1.00  0.00     0.000 HD 
HETATM   10  C   UNK A   0      -6.149  17.025  68.901  1.00  0.00    -0.170 C  
HETATM   11  H   UNK A   0      -5.990  13.795  70.950  1.00  0.00     0.000 HD 
HETATM   12  C   UNK A   0      -6.664  15.916  68.311  1.00  0.00    -0.118 C  
HETATM   13  H1  UNK A   0      -4.798  16.778  72.460  1.00  0.00     0.000 HD 
HETATM   14  C   UNK A   0      -6.467  14.589  69.065  1.00  0.00    -0.099 C  
HETATM   15  N   UNK A   0      -5.585  16.924  70.138  1.00  0.00    -0.219 NA 
HETATM   16  N   UNK A   0      -5.126  15.883  72.096  1.00  0.00    -0.129 NA 
HETATM   17  N   UNK A   0      -6.003  14.634  70.369  1.00  0.00    -0.156 N  
ENDROOT
BRANCH   3  18
HETATM   18  C   UNK A   0      -9.179  17.712  67.450  1.00  0.00    -0.247 C  
BRANCH  18  19
HETATM   19  N   UNK A   0      -9.267  16.985  68.732  1.00  0.00    -0.265 NA 
HETATM   20  H   UNK A   0      -9.053  17.441  69.619  1.00  0.00     0.000 HD 
BRANCH  19  21
HETATM   21  C   UNK A   0      -9.657  15.639  68.674  1.00  0.00    -0.202 A  
HETATM   22  C   UNK A   0     -11.027  13.859  69.617  1.00  0.00    -0.052 A  
HETATM   23  C   UNK A   0     -10.570  12.982  68.633  1.00  0.00    -0.257 A  
HETATM   24  C   UNK A   0      -9.109  14.715  67.780  1.00  0.00    -0.191 A  
HETATM   25  C   UNK A   0     -10.560  15.176  69.639  1.00  0.00    -0.274 A  
HETATM   26  C   UNK A   0      -9.570  13.396  67.747  1.00  0.00    -0.213 A  
BRANCH  23  27
HETATM   27  C   UNK A   0     -11.137  11.612  68.551  1.00  0.00    -0.235 C  
ATOM     28  H   GLU A   1      -9.215  10.803  68.548  1.00  0.00     0.000 HD 
ATOM     29  N   GLU A   1     -10.209  10.584  68.481  1.00  0.00    -0.166 N  
HETATM   30  O   UNK A   0     -12.343  11.423  68.570  1.00  0.00    -0.504 OA 
BRANCH  29  31
ATOM     31  CA  GLU A   1     -10.632   9.177  68.313  1.00  0.00    -0.174 C  
ATOM     32  C   GLU A   1      -9.517   8.227  68.810  1.00  0.00    -0.148 C  
ATOM     33  O   GLU A   1      -8.385   8.861  69.193  1.00  0.00    -0.119 OA 
ATOM     34  OXT GLU A   1      -9.604   7.007  68.819  1.00  0.00    -0.140 OA 
BRANCH  31  35
ATOM     35  CB  GLU A   1     -10.977   8.907  66.837  1.00  0.00     0.229 C  
BRANCH  35  36
ATOM     36  CG  GLU A   1     -10.617  10.067  65.900  1.00  0.00     0.001 C  
ATOM     37  CD  GLU A   1      -9.370   9.800  65.094  1.00  0.00    -0.260 C  
ATOM     38  OE2 GLU A   1      -8.680   8.797  65.173  1.00  0.00    -0.186 OA 
ATOM     39  OE1 GLU A   1      -9.091  10.818  64.240  1.00  0.00    -0.199 OA 
ENDBRANCH  35  36
ENDBRANCH  31  35
ENDBRANCH  29  31
ENDBRANCH  23  27
ENDBRANCH  19  21
ENDBRANCH  18  19
ENDBRANCH   3  18
TORSDOF 7
ENDMDL
MODEL      265
REMARK 921   NORMALIZED FREE ENERGY PREDICTED BY IDOCK:    4.96 KCAL/MOL
REMARK 922        TOTAL FREE ENERGY PREDICTED BY IDOCK:    5.76 KCAL/MOL
REMARK 923 INTER-LIGAND FREE ENERGY PREDICTED BY IDOCK:    3.15 KCAL/MOL
REMARK 924 INTRA-LIGAND FREE ENERGY PREDICTED BY IDOCK:    2.61 KCAL/MOL
REMARK 927      BINDING AFFINITY PREDICTED BY RF-SCORE:    0.00 PKD
ROOT
HETATM    1  C   UNK A   0     -10.172   9.120  63.712  1.00  0.00     3.586 C  
HETATM    2  N   UNK A   0      -9.929  10.232  64.618  1.00  0.00    -0.336 NA 
HETATM    3  C   UNK A   0     -11.068  11.142  64.932  1.00  0.00    -0.047 C  
HETATM    4  O   UNK A   0      -7.665   8.364  64.704  1.00  0.00    -0.098 OA 
HETATM    5  C   UNK A   0     -10.529  12.594  64.995  1.00  0.00    -0.308 C  
HETATM    6  C   UNK A   0      -6.476  10.714  66.881  1.00  0.00    -0.084 C  
HETATM    7  N   UNK A   0      -9.344  12.692  65.866  1.00  0.00    -0.446 NA 
HETATM    8  H   UNK A   0      -9.180  13.537  66.413  1.00  0.00     0.000 HD 
HETATM    9  H2  UNK A   0      -4.819  10.235  68.000  1.00  0.00     0.000 HD 
HETATM   10  C   UNK A   0      -8.450  11.627  65.938  1.00  0.00     0.137 C  
HETATM   11  H   UNK A   0      -5.903   8.823  66.491  1.00  0.00     0.000 HD 
HETATM   12  C   UNK A   0      -8.698  10.458  65.293  1.00  0.00    -0.179 C  
HETATM   13  H1  UNK A   0      -5.421  11.871  68.245  1.00  0.00     0.000 HD 
HETATM   14  C   UNK A   0      -7.602   9.381  65.390  1.00  0.00    -0.100 C  
HETATM   15  N   UNK A   0      -7.322  11.749  66.694  1.00  0.00    -0.350 NA 
HETATM   16  N   UNK A   0      -5.496  10.966  67.781  1.00  0.00    -0.039 NA 
HETATM   17  N   UNK A   0      -6.571   9.570  66.294  1.00  0.00    -0.070 N  
ENDROOT
BRANCH   3  18
HETATM   18  C   UNK A   0     -11.742  10.726  66.268  1.00  0.00     1.325 C  
BRANCH  18  19
HETATM   19  N   UNK A   0     -10.745  10.521  67.337  1.00  0.00    -0.263 NA 
HETATM   20  H   UNK A   0     -10.124  11.272  67.639  1.00  0.00     0.000 HD 
BRANCH  19  21
HETATM   21  C   UNK A   0     -10.690   9.245  67.919  1.00  0.00    -0.188 A  
HETATM   22  C   UNK A   0     -10.832   6.835  67.592  1.00  0.00    -0.361 A  
HETATM   23  C   UNK A   0     -10.545   6.632  68.942  1.00  0.00    -0.264 A  
HETATM   24  C   UNK A   0     -10.536   9.029  69.291  1.00  0.00    -0.226 A  
HETATM   25  C   UNK A   0     -10.915   8.137  67.092  1.00  0.00     0.093 A  
HETATM   26  C   UNK A   0     -10.449   7.732  69.802  1.00  0.00    -0.233 A  
BRANCH  23  27
HETATM   27  C   UNK A   0     -10.363   5.250  69.454  1.00  0.00    -0.243 C  
ATOM     28  H   GLU A   1      -8.296   5.520  69.486  1.00  0.00     0.000 HD 
ATOM     29  N   GLU A   1      -9.050   4.851  69.643  1.00  0.00    -0.102 N  
HETATM   30  O   UNK A   0     -11.321   4.537  69.707  1.00  0.00     2.664 OA 
BRANCH  29  31
ATOM     31  CA  GLU A   1      -8.718   3.473  70.069  1.00  0.00    -0.075 C  
ATOM     32  C   GLU A   1      -9.362   3.177  71.444  1.00  0.00    -0.137 C  
ATOM     33  O   GLU A   1      -9.992   4.239  71.996  1.00  0.00    -0.167 OA 
ATOM     34  OXT GLU A   1      -9.280   2.104  72.026  1.00  0.00    -0.078 OA 
BRANCH  31  35
ATOM     35  CB  GLU A   1      -7.190   3.295  70.118  1.00  0.00    -0.041 C  
BRANCH  35  36
ATOM     36  CG  GLU A   1      -6.438   4.147  69.089  1.00  0.00    -0.036 C  
ATOM     37  CD  GLU A   1      -7.089   4.130  67.728  1.00  0.00    -0.060 C  
ATOM     38  OE2 GLU A   1      -8.088   3.495  67.433  1.00  0.00    -0.081 OA 
ATOM     39  OE1 GLU A   1      -6.433   4.923  66.843  1.00  0.00    -0.042 OA 
ENDBRANCH  35  36
ENDBRANCH  31  35
ENDBRANCH  29  31
ENDBRANCH  23  27
ENDBRANCH  19  21
ENDBRANCH  18  19
ENDBRANCH   3  18
TORSDOF 7
ENDMDL
MODEL      266
REMARK 921   NORMALIZED FREE ENERGY PREDICTED BY IDOCK:    6.03 KCAL/MOL
REMARK 922        TOTAL FREE ENERGY PREDICTED BY IDOCK:    7.26 KCAL/MOL
REMARK 923 INTER-LIGAND FREE ENERGY PREDICTED BY IDOCK:    4.68 KCAL/MOL
REMARK 924 INTRA-LIGAND FREE ENERGY PREDICTED BY IDOCK:    2.58 KCAL/MOL
REMARK 927      BINDING AFFINITY PREDICTED BY RF-SCORE:    0.00 PKD
ROOT
HETATM    1  C   UNK A   0      -5.585  17.651  72.621  1.00  0.00     2.617 C  
HETATM    2  N   UNK A   0      -5.639  16.710  71.512  1.00  0.00     0.400 NA 
HETATM    3  C   UNK A   0      -6.016  15.298  71.808  1.00  0.00     0.757 C  
HETATM    4  O   UNK A   0      -5.447  19.454  70.483  1.00  0.00    -0.214 OA 
HETATM    5  C   UNK A   0      -5.143  14.365  70.930  1.00  0.00    -0.117 C  
HETATM    6  C   UNK A   0      -5.429  17.784  67.502  1.00  0.00    -0.134 C  
HETATM    7  N   UNK A   0      -5.172  14.775  69.515  1.00  0.00    -0.088 NA 
HETATM    8  H   UNK A   0      -5.118  14.072  68.778  1.00  0.00     0.000 HD 
HETATM    9  H2  UNK A   0      -5.674  18.886  65.783  1.00  0.00     0.000 HD 
HETATM   10  C   UNK A   0      -5.273  16.125  69.189  1.00  0.00    -0.110 C  
HETATM   11  H   UNK A   0      -5.715  19.724  67.961  1.00  0.00     0.000 HD 
HETATM   12  C   UNK A   0      -5.441  17.069  70.150  1.00  0.00    -0.223 C  
HETATM   13  H1  UNK A   0      -5.409  17.165  65.520  1.00  0.00     0.000 HD 
HETATM   14  C   UNK A   0      -5.468  18.531  69.671  1.00  0.00    -0.214 C  
HETATM   15  N   UNK A   0      -5.233  16.503  67.879  1.00  0.00    -0.112 NA 
HETATM   16  N   UNK A   0      -5.509  17.952  66.161  1.00  0.00    -0.177 NA 
HETATM   17  N   UNK A   0      -5.555  18.779  68.312  1.00  0.00    -0.189 N  
ENDROOT
BRANCH   3  18
HETATM   18  C   UNK A   0      -7.530  15.075  71.545  1.00  0.00     2.900 C  
BRANCH  18  19
HETATM   19  N   UNK A   0      -7.802  14.828  70.115  1.00  0.00    -0.237 NA 
HETATM   20  H   UNK A   0      -7.920  15.597  69.455  1.00  0.00     0.000 HD 
BRANCH  19  21
HETATM   21  C   UNK A   0      -7.892  13.490  69.707  1.00  0.00     1.185 A  
HETATM   22  C   UNK A   0      -9.204  11.773  68.578  1.00  0.00    -0.152 A  
HETATM   23  C   UNK A   0      -8.175  10.852  68.778  1.00  0.00    -0.151 A  
HETATM   24  C   UNK A   0      -6.931  12.522  70.015  1.00  0.00     0.715 A  
HETATM   25  C   UNK A   0      -9.062  13.081  69.053  1.00  0.00     0.488 A  
HETATM   26  C   UNK A   0      -7.061  11.214  69.543  1.00  0.00    -0.088 A  
BRANCH  23  27
HETATM   27  C   UNK A   0      -8.285   9.492  68.192  1.00  0.00    -0.114 C  
ATOM     28  H   GLU A   1      -9.467   8.881  69.797  1.00  0.00     0.000 HD 
ATOM     29  N   GLU A   1      -9.008   8.576  68.939  1.00  0.00    -0.145 N  
HETATM   30  O   UNK A   0      -7.784   9.226  67.111  1.00  0.00    -0.094 OA 
BRANCH  29  31
ATOM     31  CA  GLU A   1      -9.129   7.164  68.516  1.00  0.00    -0.132 C  
ATOM     32  C   GLU A   1     -10.065   7.058  67.289  1.00  0.00    -0.204 C  
ATOM     33  O   GLU A   1     -10.636   8.231  66.930  1.00  0.00    -0.321 OA 
ATOM     34  OXT GLU A   1     -10.324   6.013  66.707  1.00  0.00    -0.200 OA 
BRANCH  31  35
ATOM     35  CB  GLU A   1      -9.646   6.309  69.687  1.00  0.00    -0.163 C  
BRANCH  35  36
ATOM     36  CG  GLU A   1     -10.408   7.115  70.747  1.00  0.00    -0.219 C  
ATOM     37  CD  GLU A   1      -9.649   7.240  72.044  1.00  0.00    -0.150 C  
ATOM     38  OE2 GLU A   1      -8.559   6.742  72.273  1.00  0.00    -0.121 OA 
ATOM     39  OE1 GLU A   1     -10.320   7.991  72.953  1.00  0.00    -0.315 OA 
ENDBRANCH  35  36
ENDBRANCH  31  35
ENDBRANCH  29  31
ENDBRANCH  23  27
ENDBRANCH  19  21
ENDBRANCH  18  19
ENDBRANCH   3  18
TORSDOF 7
ENDMDL
MODEL      267
REMARK 921   NORMALIZED FREE ENERGY PREDICTED BY IDOCK:    6.56 KCAL/MOL
REMARK 922        TOTAL FREE ENERGY PREDICTED BY IDOCK:    8.02 KCAL/MOL
REMARK 923 INTER-LIGAND FREE ENERGY PREDICTED BY IDOCK:    3.34 KCAL/MOL
REMARK 924 INTRA-LIGAND FREE ENERGY PREDICTED BY IDOCK:    4.68 KCAL/MOL
REMARK 927      BINDING AFFINITY PREDICTED BY RF-SCORE:    0.00 PKD
ROOT
HETATM    1  C   UNK A   0      -8.011  15.306  69.961  1.00  0.00     0.270 C  
HETATM    2  N   UNK A   0      -8.186  16.670  69.485  1.00  0.00     0.148 NA 
HETATM    3  C   UNK A   0      -7.077  17.640  69.717  1.00  0.00     0.441 C  
HETATM    4  O   UNK A   0     -10.274  14.945  68.352  1.00  0.00    -0.221 OA 
HETATM    5  C   UNK A   0      -7.698  19.012  70.086  1.00  0.00     1.152 C  
HETATM    6  C   UNK A   0     -11.268  17.917  66.991  1.00  0.00     0.519 C  
HETATM    7  N   UNK A   0      -8.736  19.411  69.120  1.00  0.00    -0.223 NA 
HETATM    8  H   UNK A   0      -8.871  20.396  68.891  1.00  0.00     0.000 HD 
HETATM    9  H2  UNK A   0     -12.693  17.866  65.510  1.00  0.00     0.000 HD 
HETATM   10  C   UNK A   0      -9.533  18.438  68.520  1.00  0.00    -0.334 C  
HETATM   11  H   UNK A   0     -11.762  16.010  66.575  1.00  0.00     0.000 HD 
HETATM   12  C   UNK A   0      -9.309  17.117  68.736  1.00  0.00    -0.252 C  
HETATM   13  H1  UNK A   0     -12.174  19.484  65.973  1.00  0.00     0.000 HD 
HETATM   14  C   UNK A   0     -10.299  16.142  68.075  1.00  0.00    -0.271 C  
HETATM   15  N   UNK A   0     -10.535  18.819  67.677  1.00  0.00    -0.421 NA 
HETATM   16  N   UNK A   0     -12.110  18.472  66.088  1.00  0.00     3.708 NA 
HETATM   17  N   UNK A   0     -11.187  16.639  67.137  1.00  0.00     0.119 N  
ENDROOT
BRANCH   3  18
HETATM   18  C   UNK A   0      -6.176  17.745  68.457  1.00  0.00    -0.184 C  
BRANCH  18  19
HETATM   19  N   UNK A   0      -6.656  16.865  67.372  1.00  0.00    -0.148 NA 
HETATM   20  H   UNK A   0      -6.979  17.245  66.482  1.00  0.00     0.000 HD 
BRANCH  19  21
HETATM   21  C   UNK A   0      -6.647  15.485  67.622  1.00  0.00    -0.169 A  
HETATM   22  C   UNK A   0      -7.563  13.295  67.070  1.00  0.00     0.157 A  
HETATM   23  C   UNK A   0      -6.689  12.698  67.979  1.00  0.00    -0.095 A  
HETATM   24  C   UNK A   0      -5.874  14.886  68.621  1.00  0.00    -0.090 A  
HETATM   25  C   UNK A   0      -7.546  14.683  66.906  1.00  0.00     0.269 A  
HETATM   26  C   UNK A   0      -5.881  13.500  68.792  1.00  0.00    -0.083 A  
BRANCH  23  27
HETATM   27  C   UNK A   0      -6.641  11.218  68.085  1.00  0.00    -0.057 C  
ATOM     28  H   GLU A   1      -8.026  11.049  66.535  1.00  0.00     0.000 HD 
ATOM     29  N   GLU A   1      -7.478  10.529  67.221  1.00  0.00    -0.094 N  
HETATM   30  O   UNK A   0      -5.889  10.662  68.870  1.00  0.00    -0.041 OA 
BRANCH  29  31
ATOM     31  CA  GLU A   1      -7.594   9.055  67.274  1.00  0.00    -0.088 C  
ATOM     32  C   GLU A   1      -8.228   8.528  65.965  1.00  0.00    -0.118 C  
ATOM     33  O   GLU A   1      -8.620   9.503  65.113  1.00  0.00    -0.142 OA 
ATOM     34  OXT GLU A   1      -8.416   7.345  65.718  1.00  0.00    -0.136 OA 
BRANCH  31  35
ATOM     35  CB  GLU A   1      -8.424   8.640  68.502  1.00  0.00    -0.131 C  
BRANCH  35  36
ATOM     36  CG  GLU A   1      -9.920   8.950  68.367  1.00  0.00    -0.198 C  
ATOM     37  CD  GLU A   1     -10.624   9.021  69.699  1.00  0.00    -0.224 C  
ATOM     38  OE2 GLU A   1     -10.100   8.829  70.785  1.00  0.00    -0.188 OA 
ATOM     39  OE1 GLU A   1     -11.936   9.338  69.562  1.00  0.00     0.460 OA 
ENDBRANCH  35  36
ENDBRANCH  31  35
ENDBRANCH  29  31
ENDBRANCH  23  27
ENDBRANCH  19  21
ENDBRANCH  18  19
ENDBRANCH   3  18
TORSDOF 7
ENDMDL
MODEL      268
REMARK 921   NORMALIZED FREE ENERGY PREDICTED BY IDOCK:    6.58 KCAL/MOL
REMARK 922        TOTAL FREE ENERGY PREDICTED BY IDOCK:    8.04 KCAL/MOL
REMARK 923 INTER-LIGAND FREE ENERGY PREDICTED BY IDOCK:    6.74 KCAL/MOL
REMARK 924 INTRA-LIGAND FREE ENERGY PREDICTED BY IDOCK:    1.30 KCAL/MOL
REMARK 927      BINDING AFFINITY PREDICTED BY RF-SCORE:    0.00 PKD
ROOT
HETATM    1  C   UNK A   0      -5.582  17.651  72.618  1.00  0.00     2.617 C  
HETATM    2  N   UNK A   0      -5.622  16.709  71.509  1.00  0.00     0.400 NA 
HETATM    3  C   UNK A   0      -6.018  15.301  71.799  1.00  0.00     0.757 C  
HETATM    4  O   UNK A   0      -5.381  19.449  70.481  1.00  0.00    -0.206 OA 
HETATM    5  C   UNK A   0      -5.135  14.359  70.942  1.00  0.00    -0.117 C  
HETATM    6  C   UNK A   0      -5.314  17.775  67.504  1.00  0.00    -0.131 C  
HETATM    7  N   UNK A   0      -5.129  14.766  69.526  1.00  0.00    -0.088 NA 
HETATM    8  H   UNK A   0      -5.066  14.062  68.791  1.00  0.00     0.000 HD 
HETATM    9  H2  UNK A   0      -5.512  18.876  65.779  1.00  0.00     0.000 HD 
HETATM   10  C   UNK A   0      -5.210  16.117  69.195  1.00  0.00    -0.110 C  
HETATM   11  H   UNK A   0      -5.593  19.718  67.953  1.00  0.00     0.000 HD 
HETATM   12  C   UNK A   0      -5.391  17.064  70.152  1.00  0.00    -0.208 C  
HETATM   13  H1  UNK A   0      -5.258  17.152  65.523  1.00  0.00     0.000 HD 
HETATM   14  C   UNK A   0      -5.393  18.526  69.671  1.00  0.00    -0.199 C  
HETATM   15  N   UNK A   0      -5.138  16.492  67.887  1.00  0.00    -0.107 NA 
HETATM   16  N   UNK A   0      -5.364  17.941  66.161  1.00  0.00    -0.175 NA 
HETATM   17  N   UNK A   0      -5.449  18.772  68.309  1.00  0.00    -0.189 N  
ENDROOT
BRANCH   3  18
HETATM   18  C   UNK A   0      -7.528  15.091  71.504  1.00  0.00     2.900 C  
BRANCH  18  19
HETATM   19  N   UNK A   0      -7.772  14.850  70.068  1.00  0.00    -0.332 NA 
HETATM   20  H   UNK A   0      -7.870  15.621  69.407  1.00  0.00     0.000 HD 
BRANCH  19  21
HETATM   21  C   UNK A   0      -7.862  13.513  69.654  1.00  0.00     0.945 A  
HETATM   22  C   UNK A   0      -8.869  11.901  68.128  1.00  0.00    -0.178 A  
HETATM   23  C   UNK A   0      -8.093  10.885  68.687  1.00  0.00    -0.143 A  
HETATM   24  C   UNK A   0      -7.194  12.462  70.289  1.00  0.00     1.819 A  
HETATM   25  C   UNK A   0      -8.758  13.204  68.622  1.00  0.00     0.045 A  
HETATM   26  C   UNK A   0      -7.295  11.156  69.803  1.00  0.00     0.126 A  
BRANCH  23  27
HETATM   27  C   UNK A   0      -8.140   9.521  68.100  1.00  0.00    -0.102 C  
ATOM     28  H   GLU A   1      -8.114  10.332  66.180  1.00  0.00     0.000 HD 
ATOM     29  N   GLU A   1      -8.178   9.467  66.716  1.00  0.00    -0.112 N  
HETATM   30  O   UNK A   0      -8.122   8.526  68.807  1.00  0.00    -0.116 OA 
BRANCH  29  31
ATOM     31  CA  GLU A   1      -8.310   8.179  66.000  1.00  0.00    -0.131 C  
ATOM     32  C   GLU A   1      -6.917   7.679  65.552  1.00  0.00    -0.056 C  
ATOM     33  O   GLU A   1      -5.911   8.544  65.816  1.00  0.00    -0.046 OA 
ATOM     34  OXT GLU A   1      -6.719   6.624  64.965  1.00  0.00    -0.047 OA 
BRANCH  31  35
ATOM     35  CB  GLU A   1      -9.257   8.344  64.797  1.00  0.00     0.548 C  
BRANCH  35  36
ATOM     36  CG  GLU A   1      -9.971   9.701  64.758  1.00  0.00     0.184 C  
ATOM     37  CD  GLU A   1      -9.476  10.589  63.643  1.00  0.00    -0.304 C  
ATOM     38  OE2 GLU A   1      -8.587  10.305  62.857  1.00  0.00    -0.157 OA 
ATOM     39  OE1 GLU A   1     -10.149  11.767  63.598  1.00  0.00    -0.345 OA 
ENDBRANCH  35  36
ENDBRANCH  31  35
ENDBRANCH  29  31
ENDBRANCH  23  27
ENDBRANCH  19  21
ENDBRANCH  18  19
ENDBRANCH   3  18
TORSDOF 7
ENDMDL
MODEL      269
REMARK 921   NORMALIZED FREE ENERGY PREDICTED BY IDOCK:    6.82 KCAL/MOL
REMARK 922        TOTAL FREE ENERGY PREDICTED BY IDOCK:    8.38 KCAL/MOL
REMARK 923 INTER-LIGAND FREE ENERGY PREDICTED BY IDOCK:   -3.45 KCAL/MOL
REMARK 924 INTRA-LIGAND FREE ENERGY PREDICTED BY IDOCK:   11.84 KCAL/MOL
REMARK 927      BINDING AFFINITY PREDICTED BY RF-SCORE:    0.00 PKD
ROOT
HETATM    1  C   UNK A   0      -8.339  10.216  67.827  1.00  0.00    -0.114 C  
HETATM    2  N   UNK A   0      -9.079  11.291  67.182  1.00  0.00    -0.156 NA 
HETATM    3  C   UNK A   0     -10.410  10.969  66.592  1.00  0.00    -0.240 C  
HETATM    4  O   UNK A   0      -6.831  12.405  68.709  1.00  0.00    -0.083 OA 
HETATM    5  C   UNK A   0     -10.554  11.749  65.260  1.00  0.00    -0.278 C  
HETATM    6  C   UNK A   0      -8.055  15.313  67.398  1.00  0.00    -0.182 C  
HETATM    7  N   UNK A   0     -10.235  13.177  65.435  1.00  0.00    -0.330 NA 
HETATM    8  H   UNK A   0     -10.729  13.882  64.887  1.00  0.00     0.000 HD 
HETATM    9  H2  UNK A   0      -7.337  17.084  68.156  1.00  0.00     0.000 HD 
HETATM   10  C   UNK A   0      -9.256  13.560  66.349  1.00  0.00    -0.119 C  
HETATM   11  H   UNK A   0      -6.755  14.948  68.892  1.00  0.00     0.000 HD 
HETATM   12  C   UNK A   0      -8.654  12.648  67.155  1.00  0.00    -0.199 C  
HETATM   13  H1  UNK A   0      -8.486  17.265  66.834  1.00  0.00     0.000 HD 
HETATM   14  C   UNK A   0      -7.540  13.181  68.073  1.00  0.00    -0.144 C  
HETATM   15  N   UNK A   0      -8.919  14.876  66.458  1.00  0.00    -0.371 NA 
HETATM   16  N   UNK A   0      -7.955  16.662  67.463  1.00  0.00    -0.164 NA 
HETATM   17  N   UNK A   0      -7.384  14.551  68.193  1.00  0.00    -0.115 N  
ENDROOT
BRANCH   3  18
HETATM   18  C   UNK A   0     -11.546  11.329  67.588  1.00  0.00    -0.210 C  
BRANCH  18  19
HETATM   19  N   UNK A   0     -11.182  10.980  68.975  1.00  0.00    -0.234 NA 
HETATM   20  H   UNK A   0     -11.209  11.673  69.723  1.00  0.00     0.000 HD 
BRANCH  19  21
HETATM   21  C   UNK A   0     -10.795   9.654  69.217  1.00  0.00    -0.205 A  
HETATM   22  C   UNK A   0      -9.038   8.129  69.941  1.00  0.00    -0.151 A  
HETATM   23  C   UNK A   0      -9.912   7.050  69.799  1.00  0.00    -0.179 A  
HETATM   24  C   UNK A   0     -11.614   8.551  68.953  1.00  0.00     1.110 A  
HETATM   25  C   UNK A   0      -9.480   9.420  69.639  1.00  0.00    -0.200 A  
HETATM   26  C   UNK A   0     -11.184   7.257  69.254  1.00  0.00     0.026 A  
BRANCH  23  27
HETATM   27  C   UNK A   0      -9.473   5.692  70.210  1.00  0.00    -0.161 C  
ATOM     28  H   GLU A   1      -7.819   5.830  68.948  1.00  0.00     0.000 HD 
ATOM     29  N   GLU A   1      -8.326   5.222  69.591  1.00  0.00    -0.097 N  
HETATM   30  O   UNK A   0     -10.082   5.059  71.057  1.00  0.00    -0.207 OA 
BRANCH  29  31
ATOM     31  CA  GLU A   1      -7.822   3.854  69.843  1.00  0.00    -0.051 C  
ATOM     32  C   GLU A   1      -8.689   3.162  70.921  1.00  0.00    -0.075 C  
ATOM     33  O   GLU A   1      -9.638   3.962  71.460  1.00  0.00    -0.144 OA 
ATOM     34  OXT GLU A   1      -8.522   2.013  71.307  1.00  0.00    -0.055 OA 
BRANCH  31  35
ATOM     35  CB  GLU A   1      -6.344   3.912  70.269  1.00  0.00    -0.027 C  
BRANCH  35  36
ATOM     36  CG  GLU A   1      -5.730   5.314  70.173  1.00  0.00    -0.016 C  
ATOM     37  CD  GLU A   1      -5.959   5.960  68.829  1.00  0.00    -0.020 C  
ATOM     38  OE2 GLU A   1      -6.537   5.443  67.888  1.00  0.00    -0.046 OA 
ATOM     39  OE1 GLU A   1      -5.446   7.216  68.777  1.00  0.00    -0.017 OA 
ENDBRANCH  35  36
ENDBRANCH  31  35
ENDBRANCH  29  31
ENDBRANCH  23  27
ENDBRANCH  19  21
ENDBRANCH  18  19
ENDBRANCH   3  18
TORSDOF 7
ENDMDL
MODEL      270
REMARK 921   NORMALIZED FREE ENERGY PREDICTED BY IDOCK:    7.13 KCAL/MOL
REMARK 922        TOTAL FREE ENERGY PREDICTED BY IDOCK:    8.82 KCAL/MOL
REMARK 923 INTER-LIGAND FREE ENERGY PREDICTED BY IDOCK:    7.56 KCAL/MOL
REMARK 924 INTRA-LIGAND FREE ENERGY PREDICTED BY IDOCK:    1.26 KCAL/MOL
REMARK 927      BINDING AFFINITY PREDICTED BY RF-SCORE:    0.00 PKD
ROOT
HETATM    1  C   UNK A   0     -11.263  11.762  72.292  1.00  0.00     7.247 C  
HETATM    2  N   UNK A   0     -10.939  12.184  70.937  1.00  0.00     1.829 NA 
HETATM    3  C   UNK A   0     -10.667  11.128  69.920  1.00  0.00     0.095 C  
HETATM    4  O   UNK A   0     -11.966  14.466  72.473  1.00  0.00    -0.072 OA 
HETATM    5  C   UNK A   0      -9.503  11.608  69.017  1.00  0.00     0.139 C  
HETATM    6  C   UNK A   0     -11.312  16.077  69.532  1.00  0.00    -0.344 C  
HETATM    7  N   UNK A   0      -9.740  12.970  68.509  1.00  0.00    -0.367 NA 
HETATM    8  H   UNK A   0      -9.410  13.235  67.581  1.00  0.00     0.000 HD 
HETATM    9  H2  UNK A   0     -12.050  17.982  69.297  1.00  0.00     0.000 HD 
HETATM   10  C   UNK A   0     -10.418  13.894  69.302  1.00  0.00     0.024 C  
HETATM   11  H   UNK A   0     -12.389  16.605  71.149  1.00  0.00     0.000 HD 
HETATM   12  C   UNK A   0     -10.949  13.537  70.499  1.00  0.00     1.256 C  
HETATM   13  H1  UNK A   0     -11.081  17.399  67.947  1.00  0.00     0.000 HD 
HETATM   14  C   UNK A   0     -11.611  14.662  71.313  1.00  0.00    -0.192 C  
HETATM   15  N   UNK A   0     -10.577  15.172  68.853  1.00  0.00    -0.233 NA 
HETATM   16  N   UNK A   0     -11.492  17.244  68.868  1.00  0.00     0.146 NA 
HETATM   17  N   UNK A   0     -11.831  15.881  70.696  1.00  0.00    -0.374 N  
ENDROOT
BRANCH   3  18
HETATM   18  C   UNK A   0     -11.946  10.833  69.090  1.00  0.00    -0.230 C  
BRANCH  18  19
HETATM   19  N   UNK A   0     -11.617  10.441  67.706  1.00  0.00    -0.653 NA 
HETATM   20  H   UNK A   0     -11.909  11.006  66.908  1.00  0.00     0.000 HD 
BRANCH  19  21
HETATM   21  C   UNK A   0     -10.884   9.257  67.537  1.00  0.00    -0.112 A  
HETATM   22  C   UNK A   0     -10.805   6.837  67.815  1.00  0.00    -0.339 A  
HETATM   23  C   UNK A   0      -9.552   6.806  67.202  1.00  0.00    -0.177 A  
HETATM   24  C   UNK A   0      -9.575   9.223  67.049  1.00  0.00    -0.223 A  
HETATM   25  C   UNK A   0     -11.457   8.061  67.989  1.00  0.00     1.182 A  
HETATM   26  C   UNK A   0      -8.914   8.005  66.867  1.00  0.00    -0.160 A  
BRANCH  23  27
HETATM   27  C   UNK A   0      -8.901   5.498  66.931  1.00  0.00    -0.112 C  
ATOM     28  H   GLU A   1      -9.993   4.620  68.475  1.00  0.00     0.000 HD 
ATOM     29  N   GLU A   1      -9.272   4.461  67.772  1.00  0.00    -0.127 N  
HETATM   30  O   UNK A   0      -8.113   5.362  66.009  1.00  0.00    -0.104 OA 
BRANCH  29  31
ATOM     31  CA  GLU A   1      -8.642   3.126  67.669  1.00  0.00    -0.100 C  
ATOM     32  C   GLU A   1      -7.927   2.776  68.995  1.00  0.00    -0.052 C  
ATOM     33  O   GLU A   1      -7.944   3.774  69.909  1.00  0.00    -0.051 OA 
ATOM     34  OXT GLU A   1      -7.346   1.721  69.208  1.00  0.00    -0.042 OA 
BRANCH  31  35
ATOM     35  CB  GLU A   1      -7.661   3.100  66.483  1.00  0.00    -0.077 C  
BRANCH  35  36
ATOM     36  CG  GLU A   1      -8.252   2.483  65.210  1.00  0.00    -0.088 C  
ATOM     37  CD  GLU A   1      -7.281   2.484  64.056  1.00  0.00    -0.056 C  
ATOM     38  OE2 GLU A   1      -6.151   2.943  64.085  1.00  0.00    -0.017 OA 
ATOM     39  OE1 GLU A   1      -7.807   1.896  62.951  1.00  0.00    -0.053 OA 
ENDBRANCH  35  36
ENDBRANCH  31  35
ENDBRANCH  29  31
ENDBRANCH  23  27
ENDBRANCH  19  21
ENDBRANCH  18  19
ENDBRANCH   3  18
TORSDOF 7
ENDMDL
MODEL      271
REMARK 921   NORMALIZED FREE ENERGY PREDICTED BY IDOCK:   15.19 KCAL/MOL
REMARK 922        TOTAL FREE ENERGY PREDICTED BY IDOCK:   20.18 KCAL/MOL
REMARK 923 INTER-LIGAND FREE ENERGY PREDICTED BY IDOCK:   -2.59 KCAL/MOL
REMARK 924 INTRA-LIGAND FREE ENERGY PREDICTED BY IDOCK:   22.76 KCAL/MOL
REMARK 927      BINDING AFFINITY PREDICTED BY RF-SCORE:    0.00 PKD
ROOT
HETATM    1  C   UNK A   0      -7.810  14.805  66.253  1.00  0.00     1.427 C  
HETATM    2  N   UNK A   0      -7.176  15.765  67.144  1.00  0.00    -0.213 NA 
HETATM    3  C   UNK A   0      -7.268  17.212  66.796  1.00  0.00    -0.225 C  
HETATM    4  O   UNK A   0      -7.292  13.131  68.437  1.00  0.00    -0.101 OA 
HETATM    5  C   UNK A   0      -5.912  17.882  67.133  1.00  0.00    -0.138 C  
HETATM    6  C   UNK A   0      -5.662  14.843  70.903  1.00  0.00    -0.094 C  
HETATM    7  N   UNK A   0      -5.476  17.558  68.502  1.00  0.00    -0.153 NA 
HETATM    8  H   UNK A   0      -4.955  18.244  69.050  1.00  0.00     0.000 HD 
HETATM    9  H2  UNK A   0      -5.471  13.934  72.738  1.00  0.00     0.000 HD 
HETATM   10  C   UNK A   0      -5.777  16.312  69.046  1.00  0.00    -0.125 C  
HETATM   11  H   UNK A   0      -6.589  13.056  70.888  1.00  0.00     0.000 HD 
HETATM   12  C   UNK A   0      -6.549  15.420  68.373  1.00  0.00    -0.113 C  
HETATM   13  H1  UNK A   0      -4.696  15.511  72.616  1.00  0.00     0.000 HD 
HETATM   14  C   UNK A   0      -6.752  14.051  69.046  1.00  0.00    -0.109 C  
HETATM   15  N   UNK A   0      -5.314  15.993  70.289  1.00  0.00    -0.151 NA 
HETATM   16  N   UNK A   0      -5.240  14.762  72.188  1.00  0.00    -0.130 NA 
HETATM   17  N   UNK A   0      -6.349  13.897  70.362  1.00  0.00    -0.378 N  
ENDROOT
BRANCH   3  18
HETATM   18  C   UNK A   0      -8.440  17.881  67.564  1.00  0.00    -0.232 C  
BRANCH  18  19
HETATM   19  N   UNK A   0      -8.654  17.252  68.882  1.00  0.00    -0.222 NA 
HETATM   20  H   UNK A   0      -8.492  17.764  69.749  1.00  0.00     0.000 HD 
BRANCH  19  21
HETATM   21  C   UNK A   0      -9.089  15.919  68.888  1.00  0.00    -0.233 A  
HETATM   22  C   UNK A   0     -10.584  14.253  69.852  1.00  0.00     0.211 A  
HETATM   23  C   UNK A   0     -10.097  13.297  68.962  1.00  0.00     0.126 A  
HETATM   24  C   UNK A   0      -8.520  14.918  68.096  1.00  0.00    -0.146 A  
HETATM   25  C   UNK A   0     -10.070  15.553  69.818  1.00  0.00    -0.291 A  
HETATM   26  C   UNK A   0      -9.027  13.616  68.119  1.00  0.00    -0.191 A  
BRANCH  23  27
HETATM   27  C   UNK A   0     -10.708  11.943  68.933  1.00  0.00    -0.199 C  
ATOM     28  H   GLU A   1     -11.116  12.070  70.974  1.00  0.00     0.000 HD 
ATOM     29  N   GLU A   1     -11.164  11.468  70.152  1.00  0.00    -0.052 N  
HETATM   30  O   UNK A   0     -10.814  11.318  67.890  1.00  0.00    -0.199 OA 
BRANCH  29  31
ATOM     31  CA  GLU A   1     -11.719  10.103  70.286  1.00  0.00    -0.282 C  
ATOM     32  C   GLU A   1     -12.463   9.966  71.635  1.00  0.00    -0.415 C  
ATOM     33  O   GLU A   1     -12.370  11.058  72.428  1.00  0.00     0.686 OA 
ATOM     34  OXT GLU A   1     -13.048   8.955  72.000  1.00  0.00    -0.346 OA 
BRANCH  31  35
ATOM     35  CB  GLU A   1     -10.590   9.064  70.164  1.00  0.00    -0.250 C  
BRANCH  35  36
ATOM     36  CG  GLU A   1      -9.187   9.683  70.122  1.00  0.00    -0.287 C  
ATOM     37  CD  GLU A   1      -8.429   9.501  71.413  1.00  0.00     0.637 C  
ATOM     38  OE2 GLU A   1      -8.862   8.953  72.413  1.00  0.00    -0.396 OA 
ATOM     39  OE1 GLU A   1      -7.176  10.017  71.342  1.00  0.00    -0.003 OA 
ENDBRANCH  35  36
ENDBRANCH  31  35
ENDBRANCH  29  31
ENDBRANCH  23  27
ENDBRANCH  19  21
ENDBRANCH  18  19
ENDBRANCH   3  18
TORSDOF 7
ENDMDL
MODEL      272
REMARK 921   NORMALIZED FREE ENERGY PREDICTED BY IDOCK:   19.82 KCAL/MOL
REMARK 922        TOTAL FREE ENERGY PREDICTED BY IDOCK:   26.70 KCAL/MOL
REMARK 923 INTER-LIGAND FREE ENERGY PREDICTED BY IDOCK:   24.49 KCAL/MOL
REMARK 924 INTRA-LIGAND FREE ENERGY PREDICTED BY IDOCK:    2.21 KCAL/MOL
REMARK 927      BINDING AFFINITY PREDICTED BY RF-SCORE:    0.00 PKD
ROOT
HETATM    1  C   UNK A   0     -10.354  11.329  72.823  1.00  0.00    14.867 C  
HETATM    2  N   UNK A   0     -10.941  11.517  71.505  1.00  0.00     3.024 NA 
HETATM    3  C   UNK A   0     -11.048  10.329  70.609  1.00  0.00    -0.280 C  
HETATM    4  O   UNK A   0     -11.432  13.891  73.162  1.00  0.00     1.769 OA 
HETATM    5  C   UNK A   0     -10.726  10.780  69.161  1.00  0.00    -0.227 C  
HETATM    6  C   UNK A   0     -12.907  14.965  70.274  1.00  0.00    -0.220 C  
HETATM    7  N   UNK A   0     -11.508  11.969  68.780  1.00  0.00    -0.274 NA 
HETATM    8  H   UNK A   0     -11.819  12.089  67.816  1.00  0.00     0.000 HD 
HETATM    9  H2  UNK A   0     -14.062  16.664  70.361  1.00  0.00     0.000 HD 
HETATM   10  C   UNK A   0     -11.822  12.927  69.741  1.00  0.00    -0.310 C  
HETATM   11  H   UNK A   0     -12.993  15.646  72.168  1.00  0.00     0.000 HD 
HETATM   12  C   UNK A   0     -11.501  12.741  71.048  1.00  0.00     1.625 C  
HETATM   13  H1  UNK A   0     -13.903  15.968  68.752  1.00  0.00     0.000 HD 
HETATM   14  C   UNK A   0     -11.836  13.901  72.002  1.00  0.00     0.850 C  
HETATM   15  N   UNK A   0     -12.489  14.056  69.369  1.00  0.00    -0.451 NA 
HETATM   16  N   UNK A   0     -13.685  15.941  69.748  1.00  0.00     0.711 NA 
HETATM   17  N   UNK A   0     -12.633  14.932  71.533  1.00  0.00    -0.307 N  
ENDROOT
BRANCH   3  18
HETATM   18  C   UNK A   0     -12.464   9.701  70.708  1.00  0.00    -0.169 C  
BRANCH  18  19
HETATM   19  N   UNK A   0     -12.904   9.147  69.411  1.00  0.00     1.959 NA 
HETATM   20  H   UNK A   0     -13.832   9.342  69.036  1.00  0.00     0.000 HD 
BRANCH  19  21
HETATM   21  C   UNK A   0     -11.987   8.341  68.721  1.00  0.00     2.464 A  
HETATM   22  C   UNK A   0     -10.743   6.247  68.651  1.00  0.00    -0.357 A  
HETATM   23  C   UNK A   0     -10.210   6.602  67.412  1.00  0.00    -0.243 A  
HETATM   24  C   UNK A   0     -11.341   8.739  67.546  1.00  0.00     1.001 A  
HETATM   25  C   UNK A   0     -11.617   7.122  69.302  1.00  0.00     0.237 A  
HETATM   26  C   UNK A   0     -10.468   7.872  66.884  1.00  0.00    -0.388 A  
BRANCH  23  27
HETATM   27  C   UNK A   0      -9.357   5.634  66.676  1.00  0.00    -0.144 C  
ATOM     28  H   GLU A   1      -7.643   6.607  67.354  1.00  0.00     0.000 HD 
ATOM     29  N   GLU A   1      -7.992   5.854  66.762  1.00  0.00    -0.101 N  
HETATM   30  O   UNK A   0      -9.846   4.699  66.061  1.00  0.00    -0.181 OA 
BRANCH  29  31
ATOM     31  CA  GLU A   1      -7.029   5.017  66.012  1.00  0.00    -0.066 C  
ATOM     32  C   GLU A   1      -6.138   5.910  65.118  1.00  0.00    -0.026 C  
ATOM     33  O   GLU A   1      -6.478   7.220  65.135  1.00  0.00    -0.040 OA 
ATOM     34  OXT GLU A   1      -5.232   5.491  64.410  1.00  0.00    -0.009 OA 
BRANCH  31  35
ATOM     35  CB  GLU A   1      -7.787   3.970  65.175  1.00  0.00    -0.089 C  
BRANCH  35  36
ATOM     36  CG  GLU A   1      -6.920   2.781  64.745  1.00  0.00    -0.049 C  
ATOM     37  CD  GLU A   1      -6.905   2.580  63.251  1.00  0.00    -0.031 C  
ATOM     38  OE2 GLU A   1      -7.526   3.250  62.442  1.00  0.00    -0.046 OA 
ATOM     39  OE1 GLU A   1      -6.099   1.550  62.886  1.00  0.00    -0.008 OA 
ENDBRANCH  35  36
ENDBRANCH  31  35
ENDBRANCH  29  31
ENDBRANCH  23  27
ENDBRANCH  19  21
ENDBRANCH  18  19
ENDBRANCH   3  18
TORSDOF 7
ENDMDL
MODEL      273
REMARK 921   NORMALIZED FREE ENERGY PREDICTED BY IDOCK:   20.57 KCAL/MOL
REMARK 922        TOTAL FREE ENERGY PREDICTED BY IDOCK:   27.76 KCAL/MOL
REMARK 923 INTER-LIGAND FREE ENERGY PREDICTED BY IDOCK:   13.83 KCAL/MOL
REMARK 924 INTRA-LIGAND FREE ENERGY PREDICTED BY IDOCK:   13.93 KCAL/MOL
REMARK 927      BINDING AFFINITY PREDICTED BY RF-SCORE:    0.00 PKD
ROOT
HETATM    1  C   UNK A   0      -7.098  20.066  70.085  1.00  0.00     0.183 C  
HETATM    2  N   UNK A   0      -6.826  18.646  69.919  1.00  0.00     0.115 NA 
HETATM    3  C   UNK A   0      -6.150  17.926  71.037  1.00  0.00     1.028 C  
HETATM    4  O   UNK A   0      -8.652  19.564  67.811  1.00  0.00    -0.300 OA 
HETATM    5  C   UNK A   0      -5.140  16.920  70.429  1.00  0.00    -0.219 C  
HETATM    6  C   UNK A   0      -8.336  16.305  66.835  1.00  0.00    -0.232 C  
HETATM    7  N   UNK A   0      -5.768  16.086  69.389  1.00  0.00    -0.120 NA 
HETATM    8  H   UNK A   0      -5.472  15.119  69.262  1.00  0.00     0.000 HD 
HETATM    9  H2  UNK A   0      -9.633  15.602  65.401  1.00  0.00     0.000 HD 
HETATM   10  C   UNK A   0      -6.767  16.626  68.582  1.00  0.00    -0.163 C  
HETATM   11  H   UNK A   0      -9.646  17.746  66.322  1.00  0.00     0.000 HD 
HETATM   12  C   UNK A   0      -7.242  17.880  68.796  1.00  0.00    -0.275 C  
HETATM   13  H1  UNK A   0      -8.428  14.435  65.936  1.00  0.00     0.000 HD 
HETATM   14  C   UNK A   0      -8.293  18.389  67.794  1.00  0.00    -0.262 C  
HETATM   15  N   UNK A   0      -7.298  15.870  67.579  1.00  0.00    -0.153 NA 
HETATM   16  N   UNK A   0      -8.834  15.369  65.992  1.00  0.00    -0.434 NA 
HETATM   17  N   UNK A   0      -8.850  17.485  66.906  1.00  0.00    -0.243 N  
ENDROOT
BRANCH   3  18
HETATM   18  C   UNK A   0      -7.197  17.210  71.932  1.00  0.00     8.121 C  
BRANCH  18  19
HETATM   19  N   UNK A   0      -6.852  15.790  72.142  1.00  0.00     3.761 NA 
HETATM   20  H   UNK A   0      -6.514  15.452  73.043  1.00  0.00     0.000 HD 
BRANCH  19  21
HETATM   21  C   UNK A   0      -7.008  14.929  71.046  1.00  0.00     0.967 A  
HETATM   22  C   UNK A   0      -5.952  13.775  69.177  1.00  0.00    -0.087 A  
HETATM   23  C   UNK A   0      -7.169  13.171  68.860  1.00  0.00    -0.048 A  
HETATM   24  C   UNK A   0      -8.243  14.421  70.634  1.00  0.00     2.411 A  
HETATM   25  C   UNK A   0      -5.881  14.658  70.259  1.00  0.00    -0.146 A  
HETATM   26  C   UNK A   0      -8.326  13.535  69.557  1.00  0.00     1.076 A  
BRANCH  23  27
HETATM   27  C   UNK A   0      -7.224  12.161  67.772  1.00  0.00    -0.113 C  
ATOM     28  H   GLU A   1      -6.646  10.670  69.110  1.00  0.00     0.000 HD 
ATOM     29  N   GLU A   1      -6.865  10.872  68.135  1.00  0.00    -0.066 N  
HETATM   30  O   UNK A   0      -7.587  12.462  66.646  1.00  0.00     0.076 OA 
BRANCH  29  31
ATOM     31  CA  GLU A   1      -6.795   9.784  67.135  1.00  0.00    -0.083 C  
ATOM     32  C   GLU A   1      -6.074  10.283  65.861  1.00  0.00    -0.103 C  
ATOM     33  O   GLU A   1      -5.754  11.597  65.889  1.00  0.00    -0.123 OA 
ATOM     34  OXT GLU A   1      -5.845   9.587  64.881  1.00  0.00    -0.062 OA 
BRANCH  31  35
ATOM     35  CB  GLU A   1      -8.213   9.279  66.811  1.00  0.00    -0.115 C  
BRANCH  35  36
ATOM     36  CG  GLU A   1      -9.016   8.865  68.050  1.00  0.00    -0.140 C  
ATOM     37  CD  GLU A   1      -9.362   7.397  68.058  1.00  0.00    -0.135 C  
ATOM     38  OE2 GLU A   1      -9.076   6.600  67.179  1.00  0.00    -0.124 OA 
ATOM     39  OE1 GLU A   1     -10.035   7.041  69.182  1.00  0.00    -0.159 OA 
ENDBRANCH  35  36
ENDBRANCH  31  35
ENDBRANCH  29  31
ENDBRANCH  23  27
ENDBRANCH  19  21
ENDBRANCH  18  19
ENDBRANCH   3  18
TORSDOF 7
ENDMDL
MODEL      274
REMARK 921   NORMALIZED FREE ENERGY PREDICTED BY IDOCK:   21.81 KCAL/MOL
REMARK 922        TOTAL FREE ENERGY PREDICTED BY IDOCK:   29.50 KCAL/MOL
REMARK 923 INTER-LIGAND FREE ENERGY PREDICTED BY IDOCK:   23.47 KCAL/MOL
REMARK 924 INTRA-LIGAND FREE ENERGY PREDICTED BY IDOCK:    6.03 KCAL/MOL
REMARK 927      BINDING AFFINITY PREDICTED BY RF-SCORE:    0.00 PKD
ROOT
HETATM    1  C   UNK A   0     -10.974  11.396  65.317  1.00  0.00    -0.184 C  
HETATM    2  N   UNK A   0     -10.469  10.052  65.077  1.00  0.00    -0.055 NA 
HETATM    3  C   UNK A   0      -9.303   9.895  64.161  1.00  0.00    -0.237 C  
HETATM    4  O   UNK A   0     -12.342  10.024  67.339  1.00  0.00     2.715 OA 
HETATM    5  C   UNK A   0      -9.523   8.622  63.304  1.00  0.00     1.880 C  
HETATM    6  C   UNK A   0     -11.624   6.685  67.222  1.00  0.00     0.617 C  
HETATM    7  N   UNK A   0      -9.867   7.461  64.143  1.00  0.00     3.241 NA 
HETATM    8  H   UNK A   0      -9.557   6.527  63.875  1.00  0.00     0.000 HD 
HETATM    9  H2  UNK A   0     -12.233   5.517  68.801  1.00  0.00     0.000 HD 
HETATM   10  C   UNK A   0     -10.617   7.644  65.303  1.00  0.00     4.610 C  
HETATM   11  H   UNK A   0     -12.507   7.827  68.626  1.00  0.00     0.000 HD 
HETATM   12  C   UNK A   0     -10.959   8.887  65.728  1.00  0.00     2.749 C  
HETATM   13  H1  UNK A   0     -11.445   4.635  67.497  1.00  0.00     0.000 HD 
HETATM   14  C   UNK A   0     -11.848   8.956  66.983  1.00  0.00     4.318 C  
HETATM   15  N   UNK A   0     -10.988   6.558  66.039  1.00  0.00     0.351 NA 
HETATM   16  N   UNK A   0     -11.777   5.516  67.889  1.00  0.00     1.580 NA 
HETATM   17  N   UNK A   0     -12.044   7.799  67.717  1.00  0.00     2.675 N  
ENDROOT
BRANCH   3  18
HETATM   18  C   UNK A   0      -7.982   9.812  64.974  1.00  0.00    -0.131 C  
BRANCH  18  19
HETATM   19  N   UNK A   0      -8.185  10.211  66.381  1.00  0.00    -0.119 NA 
HETATM   20  H   UNK A   0      -8.535  11.137  66.627  1.00  0.00     0.000 HD 
BRANCH  19  21
HETATM   21  C   UNK A   0      -7.873   9.259  67.362  1.00  0.00    -0.099 A  
HETATM   22  C   UNK A   0      -8.695   7.585  68.931  1.00  0.00    -0.132 A  
HETATM   23  C   UNK A   0      -7.383   7.281  69.298  1.00  0.00    -0.087 A  
HETATM   24  C   UNK A   0      -6.577   9.037  67.837  1.00  0.00    -0.060 A  
HETATM   25  C   UNK A   0      -8.932   8.578  67.976  1.00  0.00    -0.141 A  
HETATM   26  C   UNK A   0      -6.327   8.045  68.789  1.00  0.00    -0.044 A  
BRANCH  23  27
HETATM   27  C   UNK A   0      -7.126   6.163  70.240  1.00  0.00    -0.074 C  
ATOM     28  H   GLU A   1      -8.941   6.535  71.198  1.00  0.00     0.000 HD 
ATOM     29  N   GLU A   1      -8.096   5.964  71.210  1.00  0.00    -0.116 N  
HETATM   30  O   UNK A   0      -6.133   5.461  70.135  1.00  0.00    -0.020 OA 
BRANCH  29  31
ATOM     31  CA  GLU A   1      -7.930   4.939  72.264  1.00  0.00    -0.110 C  
ATOM     32  C   GLU A   1      -6.435   4.567  72.408  1.00  0.00    -0.026 C  
ATOM     33  O   GLU A   1      -5.629   5.167  71.503  1.00  0.00    -0.005 OA 
ATOM     34  OXT GLU A   1      -6.000   3.767  73.225  1.00  0.00    -0.007 OA 
BRANCH  31  35
ATOM     35  CB  GLU A   1      -8.783   3.702  71.929  1.00  0.00    -0.122 C  
BRANCH  35  36
ATOM     36  CG  GLU A   1      -8.137   2.772  70.895  1.00  0.00    -0.060 C  
ATOM     37  CD  GLU A   1      -9.062   2.440  69.751  1.00  0.00    -0.114 C  
ATOM     38  OE2 GLU A   1     -10.213   2.826  69.640  1.00  0.00     0.721 OA 
ATOM     39  OE1 GLU A   1      -8.459   1.651  68.826  1.00  0.00    -0.052 OA 
ENDBRANCH  35  36
ENDBRANCH  31  35
ENDBRANCH  29  31
ENDBRANCH  23  27
ENDBRANCH  19  21
ENDBRANCH  18  19
ENDBRANCH   3  18
TORSDOF 7
ENDMDL
MODEL      275
REMARK 921   NORMALIZED FREE ENERGY PREDICTED BY IDOCK:   23.69 KCAL/MOL
REMARK 922        TOTAL FREE ENERGY PREDICTED BY IDOCK:   32.16 KCAL/MOL
REMARK 923 INTER-LIGAND FREE ENERGY PREDICTED BY IDOCK:   16.79 KCAL/MOL
REMARK 924 INTRA-LIGAND FREE ENERGY PREDICTED BY IDOCK:   15.37 KCAL/MOL
REMARK 927      BINDING AFFINITY PREDICTED BY RF-SCORE:    0.00 PKD
ROOT
HETATM    1  C   UNK A   0      -7.264  16.332  71.141  1.00  0.00     3.720 C  
HETATM    2  N   UNK A   0      -7.707  17.706  70.957  1.00  0.00     5.328 NA 
HETATM    3  C   UNK A   0      -6.880  18.795  71.552  1.00  0.00     2.978 C  
HETATM    4  O   UNK A   0      -9.224  15.923  69.184  1.00  0.00    -0.225 OA 
HETATM    5  C   UNK A   0      -7.834  19.877  72.120  1.00  0.00     2.650 C  
HETATM    6  C   UNK A   0     -10.753  18.871  68.380  1.00  0.00     0.107 C  
HETATM    7  N   UNK A   0      -8.844  20.281  71.126  1.00  0.00     1.500 NA 
HETATM    8  H   UNK A   0      -9.182  21.243  71.102  1.00  0.00     0.000 HD 
HETATM    9  H2  UNK A   0     -11.986  18.895  66.735  1.00  0.00     0.000 HD 
HETATM   10  C   UNK A   0      -9.334  19.344  70.219  1.00  0.00     1.238 C  
HETATM   11  H   UNK A   0     -10.750  17.065  67.489  1.00  0.00     0.000 HD 
HETATM   12  C   UNK A   0      -8.830  18.084  70.170  1.00  0.00     2.524 C  
HETATM   13  H1  UNK A   0     -11.901  20.420  67.610  1.00  0.00     0.000 HD 
HETATM   14  C   UNK A   0      -9.501  17.120  69.176  1.00  0.00    -0.085 C  
HETATM   15  N   UNK A   0     -10.316  19.707  69.345  1.00  0.00    -0.565 NA 
HETATM   16  N   UNK A   0     -11.615  19.447  67.509  1.00  0.00     0.514 NA 
HETATM   17  N   UNK A   0     -10.391  17.640  68.252  1.00  0.00    -0.368 N  
ENDROOT
BRANCH   3  18
HETATM   18  C   UNK A   0      -5.916  19.388  70.488  1.00  0.00    -0.163 C  
BRANCH  18  19
HETATM   19  N   UNK A   0      -6.010  18.661  69.207  1.00  0.00    -0.233 NA 
HETATM   20  H   UNK A   0      -6.059  19.156  68.316  1.00  0.00     0.000 HD 
BRANCH  19  21
HETATM   21  C   UNK A   0      -6.029  17.260  69.270  1.00  0.00    -0.216 A  
HETATM   22  C   UNK A   0      -7.033  15.184  68.481  1.00  0.00    -0.105 A  
HETATM   23  C   UNK A   0      -6.134  14.452  69.256  1.00  0.00    -0.105 A  
HETATM   24  C   UNK A   0      -5.226  16.516  70.139  1.00  0.00    -0.184 A  
HETATM   25  C   UNK A   0      -6.984  16.581  68.502  1.00  0.00    -0.154 A  
HETATM   26  C   UNK A   0      -5.264  15.119  70.125  1.00  0.00    -0.116 A  
BRANCH  23  27
HETATM   27  C   UNK A   0      -6.123  12.970  69.161  1.00  0.00    -0.095 C  
ATOM     28  H   GLU A   1      -7.840  13.020  67.979  1.00  0.00     0.000 HD 
ATOM     29  N   GLU A   1      -7.168  12.409  68.444  1.00  0.00    -0.102 N  
HETATM   30  O   UNK A   0      -5.230  12.309  69.668  1.00  0.00    -0.069 OA 
BRANCH  29  31
ATOM     31  CA  GLU A   1      -7.328  10.942  68.338  1.00  0.00    -0.094 C  
ATOM     32  C   GLU A   1      -6.117  10.331  67.596  1.00  0.00    -0.056 C  
ATOM     33  O   GLU A   1      -5.238  11.247  67.129  1.00  0.00    -0.046 OA 
ATOM     34  OXT GLU A   1      -5.966   9.134  67.392  1.00  0.00    -0.049 OA 
BRANCH  31  35
ATOM     35  CB  GLU A   1      -8.648  10.611  67.618  1.00  0.00    -0.118 C  
BRANCH  35  36
ATOM     36  CG  GLU A   1      -9.587   9.716  68.436  1.00  0.00    -0.154 C  
ATOM     37  CD  GLU A   1      -9.537   8.271  68.006  1.00  0.00    -0.153 C  
ATOM     38  OE2 GLU A   1      -8.858   7.830  67.093  1.00  0.00    -0.122 OA 
ATOM     39  OE1 GLU A   1     -10.341   7.488  68.768  1.00  0.00    -0.194 OA 
ENDBRANCH  35  36
ENDBRANCH  31  35
ENDBRANCH  29  31
ENDBRANCH  23  27
ENDBRANCH  19  21
ENDBRANCH  18  19
ENDBRANCH   3  18
TORSDOF 7
ENDMDL
MODEL      276
REMARK 921   NORMALIZED FREE ENERGY PREDICTED BY IDOCK:   26.24 KCAL/MOL
REMARK 922        TOTAL FREE ENERGY PREDICTED BY IDOCK:   35.75 KCAL/MOL
REMARK 923 INTER-LIGAND FREE ENERGY PREDICTED BY IDOCK:   -4.45 KCAL/MOL
REMARK 924 INTRA-LIGAND FREE ENERGY PREDICTED BY IDOCK:   40.20 KCAL/MOL
REMARK 927      BINDING AFFINITY PREDICTED BY RF-SCORE:    0.00 PKD
ROOT
HETATM    1  C   UNK A   0      -7.930   3.317  67.079  1.00  0.00    -0.079 C  
HETATM    2  N   UNK A   0      -7.975   4.732  67.417  1.00  0.00    -0.094 NA 
HETATM    3  C   UNK A   0      -8.539   5.118  68.742  1.00  0.00    -0.086 C  
HETATM    4  O   UNK A   0      -6.298   4.328  65.040  1.00  0.00    -0.032 OA 
HETATM    5  C   UNK A   0      -9.376   6.410  68.559  1.00  0.00    -0.122 C  
HETATM    6  C   UNK A   0      -6.094   7.733  65.243  1.00  0.00    -0.038 C  
HETATM    7  N   UNK A   0      -8.617   7.445  67.835  1.00  0.00    -0.125 NA 
HETATM    8  H   UNK A   0      -8.757   8.431  68.057  1.00  0.00     0.000 HD 
HETATM    9  H2  UNK A   0      -4.693   8.682  64.074  1.00  0.00     0.000 HD 
HETATM   10  C   UNK A   0      -7.709   7.072  66.848  1.00  0.00    -0.103 C  
HETATM   11  H   UNK A   0      -5.022   6.376  64.212  1.00  0.00     0.000 HD 
HETATM   12  C   UNK A   0      -7.436   5.765  66.602  1.00  0.00    -0.084 C  
HETATM   13  H1  UNK A   0      -5.706   9.762  65.028  1.00  0.00     0.000 HD 
HETATM   14  C   UNK A   0      -6.469   5.478  65.440  1.00  0.00    -0.039 C  
HETATM   15  N   UNK A   0      -7.058   8.037  66.137  1.00  0.00    -0.062 NA 
HETATM   16  N   UNK A   0      -5.450   8.815  64.745  1.00  0.00    -0.043 NA 
HETATM   17  N   UNK A   0      -5.771   6.537  64.885  1.00  0.00    -0.029 N  
ENDROOT
BRANCH   3  18
HETATM   18  C   UNK A   0      -7.401   5.320  69.778  1.00  0.00    -0.064 C  
BRANCH  18  19
HETATM   19  N   UNK A   0      -7.533   6.609  70.486  1.00  0.00    -0.085 NA 
HETATM   20  H   UNK A   0      -7.405   6.678  71.495  1.00  0.00     0.000 HD 
BRANCH  19  21
HETATM   21  C   UNK A   0      -7.842   7.733  69.706  1.00  0.00    -0.106 A  
HETATM   22  C   UNK A   0      -7.960   8.715  67.479  1.00  0.00    -0.106 A  
HETATM   23  C   UNK A   0      -8.482   9.890  68.022  1.00  0.00    -0.117 A  
HETATM   24  C   UNK A   0      -8.239   8.961  70.245  1.00  0.00    -0.134 A  
HETATM   25  C   UNK A   0      -7.633   7.651  68.324  1.00  0.00    -0.114 A  
HETATM   26  C   UNK A   0      -8.572  10.031  69.411  1.00  0.00    -0.182 A  
BRANCH  23  27
HETATM   27  C   UNK A   0      -8.919  10.984  67.118  1.00  0.00    -0.143 C  
ATOM     28  H   GLU A   1      -8.946  12.316  68.722  1.00  0.00     0.000 HD 
ATOM     29  N   GLU A   1      -9.142  12.209  67.727  1.00  0.00    -0.181 N  
HETATM   30  O   UNK A   0      -9.044  10.803  65.917  1.00  0.00    -0.175 OA 
BRANCH  29  31
ATOM     31  CA  GLU A   1      -9.660  13.365  66.962  1.00  0.00    -0.244 C  
ATOM     32  C   GLU A   1      -9.071  14.678  67.529  1.00  0.00    -0.190 C  
ATOM     33  O   GLU A   1      -8.307  14.508  68.632  1.00  0.00    -0.157 OA 
ATOM     34  OXT GLU A   1      -9.301  15.790  67.072  1.00  0.00    -0.210 OA 
BRANCH  31  35
ATOM     35  CB  GLU A   1     -11.198  13.377  67.010  1.00  0.00    -0.328 C  
BRANCH  35  36
ATOM     36  CG  GLU A   1     -11.773  13.110  68.406  1.00  0.00    -0.386 C  
ATOM     37  CD  GLU A   1     -11.129  13.959  69.474  1.00  0.00    -0.128 C  
ATOM     38  OE2 GLU A   1     -10.228  14.760  69.290  1.00  0.00    -0.228 OA 
ATOM     39  OE1 GLU A   1     -11.680  13.739  70.695  1.00  0.00    -0.231 OA 
ENDBRANCH  35  36
ENDBRANCH  31  35
ENDBRANCH  29  31
ENDBRANCH  23  27
ENDBRANCH  19  21
ENDBRANCH  18  19
ENDBRANCH   3  18
TORSDOF 7
ENDMDL
MODEL      277
REMARK 921   NORMALIZED FREE ENERGY PREDICTED BY IDOCK:   27.04 KCAL/MOL
REMARK 922        TOTAL FREE ENERGY PREDICTED BY IDOCK:   36.88 KCAL/MOL
REMARK 923 INTER-LIGAND FREE ENERGY PREDICTED BY IDOCK:    3.47 KCAL/MOL
REMARK 924 INTRA-LIGAND FREE ENERGY PREDICTED BY IDOCK:   33.41 KCAL/MOL
REMARK 927      BINDING AFFINITY PREDICTED BY RF-SCORE:    0.00 PKD
ROOT
HETATM    1  C   UNK A   0      -7.929   3.318  67.079  1.00  0.00    -0.079 C  
HETATM    2  N   UNK A   0      -7.966   4.732  67.422  1.00  0.00    -0.094 NA 
HETATM    3  C   UNK A   0      -8.531   5.117  68.747  1.00  0.00    -0.087 C  
HETATM    4  O   UNK A   0      -6.284   4.325  65.049  1.00  0.00    -0.025 OA 
HETATM    5  C   UNK A   0      -9.358   6.416  68.565  1.00  0.00    -0.122 C  
HETATM    6  C   UNK A   0      -6.057   7.727  65.264  1.00  0.00    -0.038 C  
HETATM    7  N   UNK A   0      -8.590   7.448  67.848  1.00  0.00    -0.125 NA 
HETATM    8  H   UNK A   0      -8.724   8.434  68.073  1.00  0.00     0.000 HD 
HETATM    9  H2  UNK A   0      -4.646   8.670  64.103  1.00  0.00     0.000 HD 
HETATM   10  C   UNK A   0      -7.681   7.072  66.862  1.00  0.00    -0.103 C  
HETATM   11  H   UNK A   0      -4.991   6.366  64.231  1.00  0.00     0.000 HD 
HETATM   12  C   UNK A   0      -7.417   5.764  66.612  1.00  0.00    -0.084 C  
HETATM   13  H1  UNK A   0      -5.654   9.754  65.057  1.00  0.00     0.000 HD 
HETATM   14  C   UNK A   0      -6.449   5.474  65.452  1.00  0.00    -0.039 C  
HETATM   15  N   UNK A   0      -7.022   8.035  66.156  1.00  0.00    -0.058 NA 
HETATM   16  N   UNK A   0      -5.404   8.807  64.772  1.00  0.00    -0.039 NA 
HETATM   17  N   UNK A   0      -5.742   6.531  64.903  1.00  0.00    -0.029 N  
ENDROOT
BRANCH   3  18
HETATM   18  C   UNK A   0      -7.394   5.308  69.787  1.00  0.00    -0.064 C  
BRANCH  18  19
HETATM   19  N   UNK A   0      -7.522   6.593  70.503  1.00  0.00    -0.085 NA 
HETATM   20  H   UNK A   0      -7.403   6.653  71.514  1.00  0.00     0.000 HD 
BRANCH  19  21
HETATM   21  C   UNK A   0      -7.817   7.725  69.729  1.00  0.00    -0.106 A  
HETATM   22  C   UNK A   0      -7.466  10.109  69.366  1.00  0.00    -0.119 A  
HETATM   23  C   UNK A   0      -8.273  10.057  68.229  1.00  0.00    -0.106 A  
HETATM   24  C   UNK A   0      -8.727   7.719  68.668  1.00  0.00    -0.128 A  
HETATM   25  C   UNK A   0      -7.252   8.948  70.114  1.00  0.00    -0.057 A  
HETATM   26  C   UNK A   0      -8.945   8.872  67.910  1.00  0.00    -0.142 A  
BRANCH  23  27
HETATM   27  C   UNK A   0      -8.422  11.267  67.380  1.00  0.00    -0.137 C  
ATOM     28  H   GLU A   1     -10.077  10.417  66.438  1.00  0.00     0.000 HD 
ATOM     29  N   GLU A   1      -9.452  11.223  66.454  1.00  0.00    -0.194 N  
HETATM   30  O   UNK A   0      -7.691  12.234  67.522  1.00  0.00    -0.137 OA 
BRANCH  29  31
ATOM     31  CA  GLU A   1      -9.665  12.324  65.489  1.00  0.00    -0.161 C  
ATOM     32  C   GLU A   1     -11.174  12.480  65.190  1.00  0.00    -0.304 C  
ATOM     33  O   GLU A   1     -11.952  11.544  65.781  1.00  0.00    -0.167 OA 
ATOM     34  OXT GLU A   1     -11.646  13.332  64.449  1.00  0.00    -0.350 OA 
BRANCH  31  35
ATOM     35  CB  GLU A   1      -8.867  12.050  64.200  1.00  0.00     0.979 C  
BRANCH  35  36
ATOM     36  CG  GLU A   1      -8.983  10.606  63.700  1.00  0.00    -0.211 C  
ATOM     37  CD  GLU A   1     -10.411  10.123  63.637  1.00  0.00     0.843 C  
ATOM     38  OE2 GLU A   1     -11.390  10.771  63.969  1.00  0.00     0.373 OA 
ATOM     39  OE1 GLU A   1     -10.497   8.858  63.152  1.00  0.00     4.669 OA 
ENDBRANCH  35  36
ENDBRANCH  31  35
ENDBRANCH  29  31
ENDBRANCH  23  27
ENDBRANCH  19  21
ENDBRANCH  18  19
ENDBRANCH   3  18
TORSDOF 7
ENDMDL
MODEL      278
REMARK 921   NORMALIZED FREE ENERGY PREDICTED BY IDOCK:   32.78 KCAL/MOL
REMARK 922        TOTAL FREE ENERGY PREDICTED BY IDOCK:   44.96 KCAL/MOL
REMARK 923 INTER-LIGAND FREE ENERGY PREDICTED BY IDOCK:   41.46 KCAL/MOL
REMARK 924 INTRA-LIGAND FREE ENERGY PREDICTED BY IDOCK:    3.50 KCAL/MOL
REMARK 927      BINDING AFFINITY PREDICTED BY RF-SCORE:    0.00 PKD
ROOT
HETATM    1  C   UNK A   0     -11.141  20.798  71.135  1.00  0.00     6.382 C  
HETATM    2  N   UNK A   0     -10.039  19.848  71.123  1.00  0.00     0.618 NA 
HETATM    3  C   UNK A   0      -9.922  18.894  72.263  1.00  0.00     4.982 C  
HETATM    4  O   UNK A   0     -10.278  21.132  68.492  1.00  0.00     0.492 OA 
HETATM    5  C   UNK A   0      -8.421  18.733  72.613  1.00  0.00    10.044 C  
HETATM    6  C   UNK A   0      -7.551  19.173  67.863  1.00  0.00    -0.269 C  
HETATM    7  N   UNK A   0      -7.617  18.434  71.415  1.00  0.00     5.625 NA 
HETATM    8  H   UNK A   0      -6.800  17.828  71.486  1.00  0.00     0.000 HD 
HETATM    9  H2  UNK A   0      -6.937  18.981  65.909  1.00  0.00     0.000 HD 
HETATM   10  C   UNK A   0      -7.978  18.981  70.186  1.00  0.00     1.353 C  
HETATM   11  H   UNK A   0      -8.798  20.182  66.645  1.00  0.00     0.000 HD 
HETATM   12  C   UNK A   0      -9.115  19.712  70.050  1.00  0.00     0.928 C  
HETATM   13  H1  UNK A   0      -5.924  18.146  67.082  1.00  0.00     0.000 HD 
HETATM   14  C   UNK A   0      -9.369  20.323  68.661  1.00  0.00     0.187 C  
HETATM   15  N   UNK A   0      -7.194  18.754  69.095  1.00  0.00    -0.265 NA 
HETATM   16  N   UNK A   0      -6.735  18.729  66.877  1.00  0.00    -0.192 NA 
HETATM   17  N   UNK A   0      -8.576  19.910  67.604  1.00  0.00    -0.324 N  
ENDROOT
BRANCH   3  18
HETATM   18  C   UNK A   0     -10.571  17.532  71.898  1.00  0.00     3.462 C  
BRANCH  18  19
HETATM   19  N   UNK A   0      -9.564  16.455  71.820  1.00  0.00     5.480 NA 
HETATM   20  H   UNK A   0      -8.718  16.474  72.389  1.00  0.00     0.000 HD 
BRANCH  19  21
HETATM   21  C   UNK A   0      -9.825  15.404  70.928  1.00  0.00     1.155 A  
HETATM   22  C   UNK A   0     -11.260  13.528  70.331  1.00  0.00     0.453 A  
HETATM   23  C   UNK A   0     -10.495  13.303  69.187  1.00  0.00     0.054 A  
HETATM   24  C   UNK A   0      -8.993  15.082  69.851  1.00  0.00     0.247 A  
HETATM   25  C   UNK A   0     -10.914  14.567  71.200  1.00  0.00     0.554 A  
HETATM   26  C   UNK A   0      -9.330  14.048  68.975  1.00  0.00     0.131 A  
BRANCH  23  27
HETATM   27  C   UNK A   0     -10.917  12.261  68.216  1.00  0.00    -0.232 C  
ATOM     28  H   GLU A   1      -9.246  11.113  68.701  1.00  0.00     0.000 HD 
ATOM     29  N   GLU A   1     -10.064  11.176  68.096  1.00  0.00    -0.173 N  
HETATM   30  O   UNK A   0     -11.962  12.362  67.593  1.00  0.00    -0.454 OA 
BRANCH  29  31
ATOM     31  CA  GLU A   1     -10.318  10.105  67.107  1.00  0.00    -0.238 C  
ATOM     32  C   GLU A   1     -11.167   8.983  67.750  1.00  0.00     0.511 C  
ATOM     33  O   GLU A   1     -11.410   9.164  69.069  1.00  0.00     0.118 OA 
ATOM     34  OXT GLU A   1     -11.554   7.985  67.157  1.00  0.00     1.200 OA 
BRANCH  31  35
ATOM     35  CB  GLU A   1      -8.981   9.557  66.575  1.00  0.00    -0.173 C  
BRANCH  35  36
ATOM     36  CG  GLU A   1      -7.803  10.521  66.762  1.00  0.00    -0.121 C  
ATOM     37  CD  GLU A   1      -8.192  11.964  66.556  1.00  0.00    -0.026 C  
ATOM     38  OE2 GLU A   1      -9.304  12.357  66.245  1.00  0.00    -0.230 OA 
ATOM     39  OE1 GLU A   1      -7.148  12.804  66.767  1.00  0.00     0.178 OA 
ENDBRANCH  35  36
ENDBRANCH  31  35
ENDBRANCH  29  31
ENDBRANCH  23  27
ENDBRANCH  19  21
ENDBRANCH  18  19
ENDBRANCH   3  18
TORSDOF 7
ENDMDL
MODEL      279
REMARK 921   NORMALIZED FREE ENERGY PREDICTED BY IDOCK:   34.42 KCAL/MOL
REMARK 922        TOTAL FREE ENERGY PREDICTED BY IDOCK:   47.27 KCAL/MOL
REMARK 923 INTER-LIGAND FREE ENERGY PREDICTED BY IDOCK:   24.19 KCAL/MOL
REMARK 924 INTRA-LIGAND FREE ENERGY PREDICTED BY IDOCK:   23.07 KCAL/MOL
REMARK 927      BINDING AFFINITY PREDICTED BY RF-SCORE:    0.00 PKD
ROOT
HETATM    1  C   UNK A   0     -10.122   9.252  65.754  1.00  0.00    -0.022 C  
HETATM    2  N   UNK A   0      -9.303  10.322  66.305  1.00  0.00    -0.162 NA 
HETATM    3  C   UNK A   0      -7.825  10.232  66.133  1.00  0.00    -0.129 C  
HETATM    4  O   UNK A   0     -12.129  11.121  66.317  1.00  0.00     0.433 OA 
HETATM    5  C   UNK A   0      -7.152  10.732  67.437  1.00  0.00    -0.091 C  
HETATM    6  C   UNK A   0     -10.799  13.910  67.776  1.00  0.00    -0.250 C  
HETATM    7  N   UNK A   0      -7.692  12.037  67.857  1.00  0.00    -0.123 NA 
HETATM    8  H   UNK A   0      -7.087  12.716  68.320  1.00  0.00     0.000 HD 
HETATM    9  H2  UNK A   0     -12.011  15.559  67.975  1.00  0.00     0.000 HD 
HETATM   10  C   UNK A   0      -9.030  12.340  67.619  1.00  0.00    -0.181 C  
HETATM   11  H   UNK A   0     -12.603  13.544  66.959  1.00  0.00     0.000 HD 
HETATM   12  C   UNK A   0      -9.828  11.492  66.920  1.00  0.00    -0.197 C  
HETATM   13  H1  UNK A   0     -10.397  15.748  68.655  1.00  0.00     0.000 HD 
HETATM   14  C   UNK A   0     -11.304  11.903  66.783  1.00  0.00    -0.330 C  
HETATM   15  N   UNK A   0      -9.540  13.522  68.068  1.00  0.00    -0.214 NA 
HETATM   16  N   UNK A   0     -11.086  15.173  68.169  1.00  0.00    -0.290 NA 
HETATM   17  N   UNK A   0     -11.670  13.184  67.161  1.00  0.00    -0.360 N  
ENDROOT
BRANCH   3  18
HETATM   18  C   UNK A   0      -7.370  11.064  64.903  1.00  0.00     0.554 C  
BRANCH  18  19
HETATM   19  N   UNK A   0      -6.277  11.994  65.251  1.00  0.00     1.700 NA 
HETATM   20  H   UNK A   0      -5.331  11.861  64.893  1.00  0.00     0.000 HD 
BRANCH  19  21
HETATM   21  C   UNK A   0      -6.599  13.066  66.095  1.00  0.00     3.599 A  
HETATM   22  C   UNK A   0      -8.350  14.414  67.123  1.00  0.00    -0.214 A  
HETATM   23  C   UNK A   0      -7.384  15.150  67.809  1.00  0.00    -0.182 A  
HETATM   24  C   UNK A   0      -5.643  13.898  66.685  1.00  0.00     2.682 A  
HETATM   25  C   UNK A   0      -7.952  13.386  66.263  1.00  0.00     1.411 A  
HETATM   26  C   UNK A   0      -6.028  14.926  67.549  1.00  0.00     0.031 A  
BRANCH  23  27
HETATM   27  C   UNK A   0      -7.809  16.177  68.795  1.00  0.00    -0.203 C  
ATOM     28  H   GLU A   1      -7.871  17.616  67.287  1.00  0.00     0.000 HD 
ATOM     29  N   GLU A   1      -7.981  17.456  68.289  1.00  0.00    -0.243 N  
HETATM   30  O   UNK A   0      -8.010  15.888  69.964  1.00  0.00     0.233 OA 
BRANCH  29  31
ATOM     31  CA  GLU A   1      -8.321  18.593  69.172  1.00  0.00     0.037 C  
ATOM     32  C   GLU A   1      -7.428  18.567  70.434  1.00  0.00     2.073 C  
ATOM     33  O   GLU A   1      -6.613  17.489  70.510  1.00  0.00     0.727 OA 
ATOM     34  OXT GLU A   1      -7.468  19.405  71.324  1.00  0.00     1.862 OA 
BRANCH  31  35
ATOM     35  CB  GLU A   1      -9.814  18.536  69.545  1.00  0.00     0.211 C  
BRANCH  35  36
ATOM     36  CG  GLU A   1     -10.123  17.579  70.702  1.00  0.00     2.275 C  
ATOM     37  CD  GLU A   1     -11.091  18.163  71.700  1.00  0.00     3.159 C  
ATOM     38  OE2 GLU A   1     -11.574  19.282  71.643  1.00  0.00     5.968 OA 
ATOM     39  OE1 GLU A   1     -11.386  17.286  72.693  1.00  0.00     0.431 OA 
ENDBRANCH  35  36
ENDBRANCH  31  35
ENDBRANCH  29  31
ENDBRANCH  23  27
ENDBRANCH  19  21
ENDBRANCH  18  19
ENDBRANCH   3  18
TORSDOF 7
ENDMDL
MODEL      280
REMARK 921   NORMALIZED FREE ENERGY PREDICTED BY IDOCK:   50.57 KCAL/MOL
REMARK 922        TOTAL FREE ENERGY PREDICTED BY IDOCK:   70.04 KCAL/MOL
REMARK 923 INTER-LIGAND FREE ENERGY PREDICTED BY IDOCK:   53.33 KCAL/MOL
REMARK 924 INTRA-LIGAND FREE ENERGY PREDICTED BY IDOCK:   16.71 KCAL/MOL
REMARK 927      BINDING AFFINITY PREDICTED BY RF-SCORE:    0.00 PKD
ROOT
HETATM    1  C   UNK A   0      -7.694  16.326  71.946  1.00  0.00     8.603 C  
HETATM    2  N   UNK A   0      -7.973  17.740  72.147  1.00  0.00    11.997 NA 
HETATM    3  C   UNK A   0      -7.183  18.471  73.180  1.00  0.00     7.303 C  
HETATM    4  O   UNK A   0      -9.274  16.808  69.686  1.00  0.00     0.129 OA 
HETATM    5  C   UNK A   0      -8.130  19.456  73.912  1.00  0.00     7.053 C  
HETATM    6  C   UNK A   0     -10.360  20.047  69.647  1.00  0.00     0.256 C  
HETATM    7  N   UNK A   0      -8.893  20.279  72.958  1.00  0.00     1.913 NA 
HETATM    8  H   UNK A   0      -9.136  21.242  73.193  1.00  0.00     0.000 HD 
HETATM    9  H2  UNK A   0     -11.251  20.740  67.928  1.00  0.00     0.000 HD 
HETATM   10  C   UNK A   0      -9.282  19.738  71.735  1.00  0.00     3.275 C  
HETATM   11  H   UNK A   0     -10.345  18.612  68.234  1.00  0.00     0.000 HD 
HETATM   12  C   UNK A   0      -8.889  18.493  71.362  1.00  0.00     7.941 C  
HETATM   13  H1  UNK A   0     -11.203  21.903  69.249  1.00  0.00     0.000 HD 
HETATM   14  C   UNK A   0      -9.440  17.979  70.020  1.00  0.00     1.558 C  
HETATM   15  N   UNK A   0     -10.044  20.483  70.884  1.00  0.00     0.637 NA 
HETATM   16  N   UNK A   0     -10.988  20.975  68.885  1.00  0.00     0.795 NA 
HETATM   17  N   UNK A   0     -10.089  18.874  69.187  1.00  0.00    -0.490 N  
ENDROOT
BRANCH   3  18
HETATM   18  C   UNK A   0      -5.987  19.212  72.524  1.00  0.00     1.475 C  
BRANCH  18  19
HETATM   19  N   UNK A   0      -5.667  18.656  71.195  1.00  0.00    -0.031 NA 
HETATM   20  H   UNK A   0      -5.333  19.249  70.435  1.00  0.00     0.000 HD 
BRANCH  19  21
HETATM   21  C   UNK A   0      -5.842  17.275  71.024  1.00  0.00     0.636 A  
HETATM   22  C   UNK A   0      -7.049  15.485  69.894  1.00  0.00    -0.047 A  
HETATM   23  C   UNK A   0      -6.257  14.537  70.543  1.00  0.00    -0.165 A  
HETATM   24  C   UNK A   0      -5.150  16.312  71.764  1.00  0.00     0.211 A  
HETATM   25  C   UNK A   0      -6.846  16.845  70.147  1.00  0.00     0.784 A  
HETATM   26  C   UNK A   0      -5.342  14.950  71.518  1.00  0.00    -0.072 A  
BRANCH  23  27
HETATM   27  C   UNK A   0      -6.408  13.100  70.203  1.00  0.00     0.043 C  
ATOM     28  H   GLU A   1      -8.296  13.473  69.403  1.00  0.00     0.000 HD 
ATOM     29  N   GLU A   1      -7.614  12.747  69.620  1.00  0.00     0.744 N  
HETATM   30  O   UNK A   0      -5.507  12.302  70.410  1.00  0.00    -0.118 OA 
BRANCH  29  31
ATOM     31  CA  GLU A   1      -7.933  11.337  69.306  1.00  0.00     0.086 C  
ATOM     32  C   GLU A   1      -6.917  10.781  68.281  1.00  0.00    -0.069 C  
ATOM     33  O   GLU A   1      -6.034  11.701  67.828  1.00  0.00    -0.045 OA 
ATOM     34  OXT GLU A   1      -6.918   9.631  67.862  1.00  0.00    -0.077 OA 
BRANCH  31  35
ATOM     35  CB  GLU A   1      -9.374  11.233  68.774  1.00  0.00    -0.136 C  
BRANCH  35  36
ATOM     36  CG  GLU A   1     -10.375  10.702  69.808  1.00  0.00    -0.146 C  
ATOM     37  CD  GLU A   1     -11.431  11.716  70.172  1.00  0.00    -0.118 C  
ATOM     38  OE2 GLU A   1     -11.498  12.853  69.735  1.00  0.00    -0.228 OA 
ATOM     39  OE1 GLU A   1     -12.331  11.214  71.055  1.00  0.00    -0.371 OA 
ENDBRANCH  35  36
ENDBRANCH  31  35
ENDBRANCH  29  31
ENDBRANCH  23  27
ENDBRANCH  19  21
ENDBRANCH  18  19
ENDBRANCH   3  18
TORSDOF 7
ENDMDL
MODEL      281
REMARK 921   NORMALIZED FREE ENERGY PREDICTED BY IDOCK:   56.74 KCAL/MOL
REMARK 922        TOTAL FREE ENERGY PREDICTED BY IDOCK:   78.73 KCAL/MOL
REMARK 923 INTER-LIGAND FREE ENERGY PREDICTED BY IDOCK:   41.83 KCAL/MOL
REMARK 924 INTRA-LIGAND FREE ENERGY PREDICTED BY IDOCK:   36.90 KCAL/MOL
REMARK 927      BINDING AFFINITY PREDICTED BY RF-SCORE:    0.00 PKD
ROOT
HETATM    1  C   UNK A   0      -9.186   8.419  64.961  1.00  0.00     0.389 C  
HETATM    2  N   UNK A   0      -8.379   9.588  65.276  1.00  0.00    -0.132 NA 
HETATM    3  C   UNK A   0      -6.926   9.549  64.941  1.00  0.00    -0.106 C  
HETATM    4  O   UNK A   0     -11.230  10.246  65.530  1.00  0.00     0.554 OA 
HETATM    5  C   UNK A   0      -6.143  10.242  66.084  1.00  0.00    -0.087 C  
HETATM    6  C   UNK A   0      -9.920  13.258  66.471  1.00  0.00    -0.280 C  
HETATM    7  N   UNK A   0      -6.712  11.563  66.405  1.00  0.00    -0.358 NA 
HETATM    8  H   UNK A   0      -6.103  12.323  66.707  1.00  0.00     0.000 HD 
HETATM    9  H2  UNK A   0     -11.202  14.860  66.613  1.00  0.00     0.000 HD 
HETATM   10  C   UNK A   0      -8.086  11.768  66.294  1.00  0.00     0.115 C  
HETATM   11  H   UNK A   0     -11.779  12.706  65.927  1.00  0.00     0.000 HD 
HETATM   12  C   UNK A   0      -8.903  10.800  65.804  1.00  0.00    -0.188 C  
HETATM   13  H1  UNK A   0      -9.537  15.211  67.066  1.00  0.00     0.000 HD 
HETATM   14  C   UNK A   0     -10.408  11.120  65.796  1.00  0.00    -0.260 C  
HETATM   15  N   UNK A   0      -8.614  12.972  66.655  1.00  0.00    -0.428 NA 
HETATM   16  N   UNK A   0     -10.239  14.547  66.740  1.00  0.00    -0.262 NA 
HETATM   17  N   UNK A   0     -10.808  12.419  66.058  1.00  0.00    -0.265 N  
ENDROOT
BRANCH   3  18
HETATM   18  C   UNK A   0      -6.667  10.238  63.574  1.00  0.00    -0.087 C  
BRANCH  18  19
HETATM   19  N   UNK A   0      -5.686  11.334  63.696  1.00  0.00    -0.122 NA 
HETATM   20  H   UNK A   0      -4.772  11.285  63.246  1.00  0.00     0.000 HD 
BRANCH  19  21
HETATM   21  C   UNK A   0      -6.068  12.447  64.461  1.00  0.00     7.508 A  
HETATM   22  C   UNK A   0      -7.865  13.629  65.605  1.00  0.00     4.339 A  
HETATM   23  C   UNK A   0      -6.956  14.592  66.044  1.00  0.00     5.171 A  
HETATM   24  C   UNK A   0      -5.198  13.488  64.796  1.00  0.00    13.381 A  
HETATM   25  C   UNK A   0      -7.419  12.571  64.808  1.00  0.00     5.985 A  
HETATM   26  C   UNK A   0      -5.632  14.549  65.595  1.00  0.00     9.954 A  
BRANCH  23  27
HETATM   27  C   UNK A   0      -7.410  15.662  66.968  1.00  0.00    -0.168 C  
ATOM     28  H   GLU A   1      -7.957  16.850  65.344  1.00  0.00     0.000 HD 
ATOM     29  N   GLU A   1      -7.886  16.813  66.361  1.00  0.00    -0.298 N  
HETATM   30  O   UNK A   0      -7.381  15.508  68.178  1.00  0.00    -0.108 OA 
BRANCH  29  31
ATOM     31  CA  GLU A   1      -8.294  17.991  67.158  1.00  0.00    -0.233 C  
ATOM     32  C   GLU A   1      -7.234  18.285  68.246  1.00  0.00    -0.259 C  
ATOM     33  O   GLU A   1      -6.234  17.374  68.300  1.00  0.00    -0.156 OA 
ATOM     34  OXT GLU A   1      -7.294  19.220  69.032  1.00  0.00    -0.345 OA 
BRANCH  31  35
ATOM     35  CB  GLU A   1      -9.679  17.745  67.783  1.00  0.00    -0.285 C  
BRANCH  35  36
ATOM     36  CG  GLU A   1     -10.213  16.325  67.556  1.00  0.00    -0.270 C  
ATOM     37  CD  GLU A   1     -10.845  15.734  68.791  1.00  0.00    -0.274 C  
ATOM     38  OE2 GLU A   1     -10.916  16.284  69.878  1.00  0.00    -0.337 OA 
ATOM     39  OE1 GLU A   1     -11.349  14.496  68.560  1.00  0.00    -0.260 OA 
ENDBRANCH  35  36
ENDBRANCH  31  35
ENDBRANCH  29  31
ENDBRANCH  23  27
ENDBRANCH  19  21
ENDBRANCH  18  19
ENDBRANCH   3  18
TORSDOF 7
ENDMDL
MODEL      282
REMARK 921   NORMALIZED FREE ENERGY PREDICTED BY IDOCK:   57.72 KCAL/MOL
REMARK 922        TOTAL FREE ENERGY PREDICTED BY IDOCK:   80.12 KCAL/MOL
REMARK 923 INTER-LIGAND FREE ENERGY PREDICTED BY IDOCK:   57.60 KCAL/MOL
REMARK 924 INTRA-LIGAND FREE ENERGY PREDICTED BY IDOCK:   22.52 KCAL/MOL
REMARK 927      BINDING AFFINITY PREDICTED BY RF-SCORE:    0.00 PKD
ROOT
HETATM    1  C   UNK A   0      -7.694  16.326  71.946  1.00  0.00     8.603 C  
HETATM    2  N   UNK A   0      -7.964  17.735  72.192  1.00  0.00    11.997 NA 
HETATM    3  C   UNK A   0      -7.149  18.435  73.226  1.00  0.00     7.556 C  
HETATM    4  O   UNK A   0      -9.323  16.874  69.736  1.00  0.00     0.309 OA 
HETATM    5  C   UNK A   0      -8.076  19.402  74.006  1.00  0.00     7.459 C  
HETATM    6  C   UNK A   0     -10.399  20.116  69.809  1.00  0.00     0.377 C  
HETATM    7  N   UNK A   0      -8.858  20.253  73.092  1.00  0.00     2.149 NA 
HETATM    8  H   UNK A   0      -9.092  21.210  73.358  1.00  0.00     0.000 HD 
HETATM    9  H2  UNK A   0     -11.326  20.858  68.130  1.00  0.00     0.000 HD 
HETATM   10  C   UNK A   0      -9.275  19.747  71.863  1.00  0.00     3.385 C  
HETATM   11  H   UNK A   0     -10.420  18.719  68.358  1.00  0.00     0.000 HD 
HETATM   12  C   UNK A   0      -8.895  18.511  71.448  1.00  0.00     7.941 C  
HETATM   13  H1  UNK A   0     -11.244  21.984  69.481  1.00  0.00     0.000 HD 
HETATM   14  C   UNK A   0      -9.477  18.035  70.105  1.00  0.00     1.937 C  
HETATM   15  N   UNK A   0     -10.053  20.516  71.051  1.00  0.00     0.833 NA 
HETATM   16  N   UNK A   0     -11.040  21.065  69.088  1.00  0.00     0.749 NA 
HETATM   17  N   UNK A   0     -10.142  18.955  69.312  1.00  0.00    -0.444 N  
ENDROOT
BRANCH   3  18
HETATM   18  C   UNK A   0      -5.965  19.191  72.564  1.00  0.00     1.475 C  
BRANCH  18  19
HETATM   19  N   UNK A   0      -5.676  18.670  71.213  1.00  0.00     0.012 NA 
HETATM   20  H   UNK A   0      -5.358  19.283  70.463  1.00  0.00     0.000 HD 
BRANCH  19  21
HETATM   21  C   UNK A   0      -5.860  17.295  71.009  1.00  0.00     0.636 A  
HETATM   22  C   UNK A   0      -7.098  15.539  69.858  1.00  0.00    -0.047 A  
HETATM   23  C   UNK A   0      -6.294  14.573  70.463  1.00  0.00    -0.125 A  
HETATM   24  C   UNK A   0      -5.155  16.310  71.707  1.00  0.00     0.211 A  
HETATM   25  C   UNK A   0      -6.885  16.891  70.143  1.00  0.00     0.784 A  
HETATM   26  C   UNK A   0      -5.357  14.956  71.428  1.00  0.00    -0.089 A  
BRANCH  23  27
HETATM   27  C   UNK A   0      -6.458  13.145  70.088  1.00  0.00     0.145 C  
ATOM     28  H   GLU A   1      -5.836  12.561  71.990  1.00  0.00     0.000 HD 
ATOM     29  N   GLU A   1      -6.116  12.227  71.068  1.00  0.00     0.417 N  
HETATM   30  O   UNK A   0      -6.888  12.823  68.992  1.00  0.00    -0.097 OA 
BRANCH  29  31
ATOM     31  CA  GLU A   1      -6.151  10.772  70.804  1.00  0.00    -0.002 C  
ATOM     32  C   GLU A   1      -6.491  10.513  69.317  1.00  0.00    -0.055 C  
ATOM     33  O   GLU A   1      -6.771  11.634  68.614  1.00  0.00    -0.064 OA 
ATOM     34  OXT GLU A   1      -6.556   9.402  68.809  1.00  0.00    -0.051 OA 
BRANCH  31  35
ATOM     35  CB  GLU A   1      -7.173  10.095  71.736  1.00  0.00     2.092 C  
BRANCH  35  36
ATOM     36  CG  GLU A   1      -6.748   8.698  72.204  1.00  0.00    -0.072 C  
ATOM     37  CD  GLU A   1      -6.798   8.544  73.703  1.00  0.00    -0.047 C  
ATOM     38  OE2 GLU A   1      -7.108   9.422  74.492  1.00  0.00    -0.299 OA 
ATOM     39  OE1 GLU A   1      -6.460   7.290  74.095  1.00  0.00    -0.076 OA 
ENDBRANCH  35  36
ENDBRANCH  31  35
ENDBRANCH  29  31
ENDBRANCH  23  27
ENDBRANCH  19  21
ENDBRANCH  18  19
ENDBRANCH   3  18
TORSDOF 7
ENDMDL
