MODEL        1
REMARK 921   NORMALIZED FREE ENERGY PREDICTED BY IDOCK:   -5.96 KCAL/MOL
REMARK 922        TOTAL FREE ENERGY PREDICTED BY IDOCK:   -8.65 KCAL/MOL
REMARK 923 INTER-LIGAND FREE ENERGY PREDICTED BY IDOCK:   -7.70 KCAL/MOL
REMARK 924 INTRA-LIGAND FREE ENERGY PREDICTED BY IDOCK:   -0.95 KCAL/MOL
REMARK 927      BINDING AFFINITY PREDICTED BY RF-SCORE:    0.00 PKD
ROOT
HETATM    1  C   UNL     1      -9.441  20.520  67.295  1.00  0.00    -0.559 C  
HETATM    2  C   UNL     1     -10.040  19.493  68.247  1.00  0.00    -0.542 C  
ENDROOT
BRANCH   2   3
HETATM    3  C   UNL     1     -10.841  18.430  67.498  1.00  0.00    -0.304 C  
BRANCH   3   4
HETATM    4  C   UNL     1     -10.525  17.003  67.978  1.00  0.00    -0.353 C  
BRANCH   4   5
HETATM    5  N   UNL     1     -10.224  16.041  66.891  1.00  0.00    -0.274 NA 
HETATM    6  C   UNL     1      -9.061  16.459  66.084  1.00  0.00    -0.326 C  
HETATM    7  C   UNL     1      -7.738  16.434  66.853  1.00  0.00    -0.276 C  
HETATM    8  C   UNL     1      -7.484  15.069  67.489  1.00  0.00    -0.226 C  
HETATM    9  C   UNL     1      -8.702  14.549  68.252  1.00  0.00    -0.173 C  
HETATM   10  C   UNL     1      -9.969  14.651  67.390  1.00  0.00    -0.231 C  
BRANCH  10  11
HETATM   11  C   UNL     1     -11.219  14.034  68.064  1.00  0.00    -0.279 C  
HETATM   12  N   UNL     1     -11.019  13.773  69.412  1.00  0.00    -0.418 N  
HETATM   13  O   UNL     1     -12.284  13.898  67.464  1.00  0.00    -0.366 OA 
HETATM   14  H   UNL     1     -10.126  14.075  69.804  1.00  0.00     0.000 HD 
BRANCH  12  15
HETATM   15  C   UNL     1     -11.911  13.136  70.304  1.00  0.00    -0.292 A  
HETATM   16  C   UNL     1     -11.975  11.732  70.449  1.00  0.00    -0.422 A  
HETATM   17  C   UNL     1     -11.139  10.741  69.689  1.00  0.00    -0.339 C  
HETATM   18  C   UNL     1     -12.848  11.177  71.407  1.00  0.00    -0.544 A  
HETATM   19  C   UNL     1     -13.616  11.986  72.240  1.00  0.00    -0.164 A  
HETATM   20  C   UNL     1     -13.546  13.366  72.106  1.00  0.00    -0.660 A  
HETATM   21  C   UNL     1     -12.702  13.954  71.150  1.00  0.00    -0.441 A  
HETATM   22  C   UNL     1     -12.742  15.458  71.015  1.00  0.00    -0.510 C  
ENDBRANCH  12  15
ENDBRANCH  10  11
ENDBRANCH   4   5
ENDBRANCH   3   4
ENDBRANCH   2   3
TORSDOF 5
ENDMDL
MODEL        2
REMARK 921   NORMALIZED FREE ENERGY PREDICTED BY IDOCK:   -5.88 KCAL/MOL
REMARK 922        TOTAL FREE ENERGY PREDICTED BY IDOCK:   -8.55 KCAL/MOL
REMARK 923 INTER-LIGAND FREE ENERGY PREDICTED BY IDOCK:   -7.62 KCAL/MOL
REMARK 924 INTRA-LIGAND FREE ENERGY PREDICTED BY IDOCK:   -0.93 KCAL/MOL
REMARK 927      BINDING AFFINITY PREDICTED BY RF-SCORE:    0.00 PKD
ROOT
HETATM    1  C   UNL     1     -13.208   9.132  72.289  1.00  0.00    -0.528 C  
HETATM    2  C   UNL     1     -12.525  10.230  71.484  1.00  0.00    -0.524 C  
ENDROOT
BRANCH   2   3
HETATM    3  C   UNL     1     -13.248  11.568  71.631  1.00  0.00    -0.389 C  
BRANCH   3   4
HETATM    4  C   UNL     1     -12.318  12.772  71.401  1.00  0.00     0.037 C  
BRANCH   4   5
HETATM    5  N   UNL     1     -12.995  13.980  70.874  1.00  0.00    -0.308 NA 
HETATM    6  C   UNL     1     -13.927  14.569  71.856  1.00  0.00    -0.481 C  
HETATM    7  C   UNL     1     -13.233  15.152  73.090  1.00  0.00    -0.603 C  
HETATM    8  C   UNL     1     -12.157  16.164  72.702  1.00  0.00    -0.652 C  
HETATM    9  C   UNL     1     -11.228  15.633  71.610  1.00  0.00    -0.345 C  
HETATM   10  C   UNL     1     -12.037  15.050  70.443  1.00  0.00    -0.333 C  
BRANCH  10  11
HETATM   11  C   UNL     1     -11.157  14.599  69.252  1.00  0.00    -0.269 C  
HETATM   12  N   UNL     1     -11.913  14.174  68.168  1.00  0.00    -0.474 N  
HETATM   13  O   UNL     1      -9.933  14.711  69.265  1.00  0.00    -0.188 OA 
HETATM   14  H   UNL     1     -12.925  14.274  68.254  1.00  0.00     0.000 HD 
BRANCH  12  15
HETATM   15  C   UNL     1     -11.438  13.619  66.957  1.00  0.00    -0.343 A  
HETATM   16  C   UNL     1     -11.002  14.412  65.872  1.00  0.00    -0.312 A  
HETATM   17  C   UNL     1     -10.994  15.915  65.841  1.00  0.00    -0.151 C  
HETATM   18  C   UNL     1     -10.482  13.782  64.723  1.00  0.00    -0.448 A  
HETATM   19  C   UNL     1     -10.351  12.398  64.655  1.00  0.00    -0.332 A  
HETATM   20  C   UNL     1     -10.769  11.618  65.724  1.00  0.00    -0.331 A  
HETATM   21  C   UNL     1     -11.309  12.210  66.878  1.00  0.00    -0.402 A  
HETATM   22  C   UNL     1     -11.811  11.289  67.964  1.00  0.00    -0.244 C  
ENDBRANCH  12  15
ENDBRANCH  10  11
ENDBRANCH   4   5
ENDBRANCH   3   4
ENDBRANCH   2   3
TORSDOF 5
ENDMDL
MODEL        3
REMARK 921   NORMALIZED FREE ENERGY PREDICTED BY IDOCK:   -5.74 KCAL/MOL
REMARK 922        TOTAL FREE ENERGY PREDICTED BY IDOCK:   -8.37 KCAL/MOL
REMARK 923 INTER-LIGAND FREE ENERGY PREDICTED BY IDOCK:   -7.85 KCAL/MOL
REMARK 924 INTRA-LIGAND FREE ENERGY PREDICTED BY IDOCK:   -0.52 KCAL/MOL
REMARK 927      BINDING AFFINITY PREDICTED BY RF-SCORE:    0.00 PKD
ROOT
HETATM    1  C   UNL     1     -12.631  15.385  73.776  1.00  0.00    -0.747 C  
HETATM    2  C   UNL     1     -12.152  16.156  72.553  1.00  0.00    -0.644 C  
ENDROOT
BRANCH   2   3
HETATM    3  C   UNL     1     -12.811  15.646  71.273  1.00  0.00    -0.550 C  
BRANCH   3   4
HETATM    4  C   UNL     1     -11.991  14.539  70.585  1.00  0.00    -0.319 C  
BRANCH   4   5
HETATM    5  N   UNL     1     -11.964  14.624  69.106  1.00  0.00    -0.308 NA 
HETATM    6  C   UNL     1     -11.544  15.957  68.632  1.00  0.00    -0.380 C  
HETATM    7  C   UNL     1     -10.086  16.295  68.959  1.00  0.00    -0.259 C  
HETATM    8  C   UNL     1      -9.132  15.219  68.443  1.00  0.00    -0.189 C  
HETATM    9  C   UNL     1      -9.586  13.810  68.825  1.00  0.00    -0.044 C  
HETATM   10  C   UNL     1     -11.067  13.602  68.475  1.00  0.00    -0.275 C  
BRANCH  10  11
HETATM   11  C   UNL     1     -11.559  12.156  68.732  1.00  0.00    -0.327 C  
HETATM   12  N   UNL     1     -11.205  11.693  69.991  1.00  0.00    -0.489 N  
HETATM   13  O   UNL     1     -12.267  11.555  67.926  1.00  0.00    -0.586 OA 
HETATM   14  H   UNL     1     -10.740  12.362  70.606  1.00  0.00     0.000 HD 
BRANCH  12  15
HETATM   15  C   UNL     1     -11.415  10.398  70.518  1.00  0.00    -0.345 A  
HETATM   16  C   UNL     1     -10.658   9.276  70.113  1.00  0.00    -0.266 A  
HETATM   17  C   UNL     1      -9.562   9.292  69.084  1.00  0.00    -0.161 C  
HETATM   18  C   UNL     1     -10.885   8.031  70.734  1.00  0.00    -0.244 A  
HETATM   19  C   UNL     1     -11.810   7.895  71.765  1.00  0.00    -0.333 A  
HETATM   20  C   UNL     1     -12.547   8.999  72.172  1.00  0.00    -0.461 A  
HETATM   21  C   UNL     1     -12.361  10.251  71.563  1.00  0.00    -0.488 A  
HETATM   22  C   UNL     1     -13.256  11.383  72.010  1.00  0.00    -0.432 C  
ENDBRANCH  12  15
ENDBRANCH  10  11
ENDBRANCH   4   5
ENDBRANCH   3   4
ENDBRANCH   2   3
TORSDOF 5
ENDMDL
MODEL        4
REMARK 921   NORMALIZED FREE ENERGY PREDICTED BY IDOCK:   -5.73 KCAL/MOL
REMARK 922        TOTAL FREE ENERGY PREDICTED BY IDOCK:   -8.35 KCAL/MOL
REMARK 923 INTER-LIGAND FREE ENERGY PREDICTED BY IDOCK:   -7.41 KCAL/MOL
REMARK 924 INTRA-LIGAND FREE ENERGY PREDICTED BY IDOCK:   -0.94 KCAL/MOL
REMARK 927      BINDING AFFINITY PREDICTED BY RF-SCORE:    0.00 PKD
ROOT
HETATM    1  C   UNL     1      -9.143  16.328  66.106  1.00  0.00    -0.377 C  
HETATM    2  C   UNL     1     -10.438  16.628  65.364  1.00  0.00    -0.253 C  
ENDROOT
BRANCH   2   3
HETATM    3  C   UNL     1     -11.034  15.368  64.739  1.00  0.00    -0.411 C  
BRANCH   3   4
HETATM    4  C   UNL     1     -10.432  14.077  65.321  1.00  0.00    -0.382 C  
BRANCH   4   5
HETATM    5  N   UNL     1     -11.425  13.020  65.627  1.00  0.00    -0.321 NA 
HETATM    6  C   UNL     1     -11.808  12.252  64.426  1.00  0.00    -0.388 C  
HETATM    7  C   UNL     1     -10.670  11.409  63.846  1.00  0.00    -0.462 C  
HETATM    8  C   UNL     1     -10.064  10.484  64.899  1.00  0.00    -0.403 C  
HETATM    9  C   UNL     1      -9.744  11.219  66.201  1.00  0.00    -0.251 C  
HETATM   10  C   UNL     1     -10.948  12.050  66.666  1.00  0.00    -0.287 C  
BRANCH  10  11
HETATM   11  C   UNL     1     -10.730  12.729  68.041  1.00  0.00    -0.230 C  
HETATM   12  N   UNL     1     -11.926  13.072  68.657  1.00  0.00    -0.308 N  
HETATM   13  O   UNL     1      -9.613  12.845  68.542  1.00  0.00    -0.198 OA 
HETATM   14  H   UNL     1     -12.780  12.781  68.181  1.00  0.00     0.000 HD 
BRANCH  12  15
HETATM   15  C   UNL     1     -12.093  13.778  69.869  1.00  0.00    -0.348 A  
HETATM   16  C   UNL     1     -11.929  15.178  69.967  1.00  0.00    -0.374 A  
HETATM   17  C   UNL     1     -11.549  16.090  68.834  1.00  0.00    -0.354 C  
HETATM   18  C   UNL     1     -12.177  15.817  71.199  1.00  0.00    -0.473 A  
HETATM   19  C   UNL     1     -12.620  15.101  72.308  1.00  0.00    -0.422 A  
HETATM   20  C   UNL     1     -12.792  13.728  72.211  1.00  0.00    -0.357 A  
HETATM   21  C   UNL     1     -12.537  13.054  71.005  1.00  0.00    -0.386 A  
HETATM   22  C   UNL     1     -12.673  11.551  71.003  1.00  0.00    -0.426 C  
ENDBRANCH  12  15
ENDBRANCH  10  11
ENDBRANCH   4   5
ENDBRANCH   3   4
ENDBRANCH   2   3
TORSDOF 5
ENDMDL
MODEL        5
REMARK 921   NORMALIZED FREE ENERGY PREDICTED BY IDOCK:   -5.68 KCAL/MOL
REMARK 922        TOTAL FREE ENERGY PREDICTED BY IDOCK:   -8.28 KCAL/MOL
REMARK 923 INTER-LIGAND FREE ENERGY PREDICTED BY IDOCK:   -7.46 KCAL/MOL
REMARK 924 INTRA-LIGAND FREE ENERGY PREDICTED BY IDOCK:   -0.83 KCAL/MOL
REMARK 927      BINDING AFFINITY PREDICTED BY RF-SCORE:    0.00 PKD
ROOT
HETATM    1  C   UNL     1     -12.923  10.739  71.637  1.00  0.00    -0.581 C  
HETATM    2  C   UNL     1     -12.156  10.663  70.324  1.00  0.00    -0.423 C  
ENDROOT
BRANCH   2   3
HETATM    3  C   UNL     1     -12.090  12.023  69.632  1.00  0.00    -0.295 C  
BRANCH   3   4
HETATM    4  C   UNL     1     -11.945  13.188  70.627  1.00  0.00    -0.162 C  
BRANCH   4   5
HETATM    5  N   UNL     1     -12.955  14.261  70.468  1.00  0.00    -0.282 NA 
HETATM    6  C   UNL     1     -13.924  14.282  71.581  1.00  0.00    -0.392 C  
HETATM    7  C   UNL     1     -13.307  14.675  72.927  1.00  0.00    -0.585 C  
HETATM    8  C   UNL     1     -12.568  16.008  72.837  1.00  0.00    -0.577 C  
HETATM    9  C   UNL     1     -11.626  16.069  71.634  1.00  0.00    -0.538 C  
HETATM   10  C   UNL     1     -12.348  15.627  70.354  1.00  0.00    -0.391 C  
BRANCH  10  11
HETATM   11  C   UNL     1     -11.482  15.775  69.079  1.00  0.00    -0.391 C  
HETATM   12  N   UNL     1     -10.363  16.568  69.290  1.00  0.00    -0.303 N  
HETATM   13  O   UNL     1     -11.735  15.164  68.042  1.00  0.00    -0.345 OA 
HETATM   14  H   UNL     1     -10.209  16.890  70.247  1.00  0.00     0.000 HD 
BRANCH  12  15
HETATM   15  C   UNL     1      -9.411  16.980  68.330  1.00  0.00    -0.266 A  
HETATM   16  C   UNL     1      -9.586  18.128  67.524  1.00  0.00    -0.280 A  
HETATM   17  C   UNL     1     -10.780  19.040  67.558  1.00  0.00    -0.532 C  
HETATM   18  C   UNL     1      -8.560  18.509  66.635  1.00  0.00    -0.295 A  
HETATM   19  C   UNL     1      -7.364  17.801  66.566  1.00  0.00    -0.283 A  
HETATM   20  C   UNL     1      -7.185  16.680  67.365  1.00  0.00    -0.184 A  
HETATM   21  C   UNL     1      -8.193  16.260  68.249  1.00  0.00    -0.173 A  
HETATM   22  C   UNL     1      -7.952  14.987  69.027  1.00  0.00    -0.180 C  
ENDBRANCH  12  15
ENDBRANCH  10  11
ENDBRANCH   4   5
ENDBRANCH   3   4
ENDBRANCH   2   3
TORSDOF 5
ENDMDL
MODEL        6
REMARK 921   NORMALIZED FREE ENERGY PREDICTED BY IDOCK:   -5.67 KCAL/MOL
REMARK 922        TOTAL FREE ENERGY PREDICTED BY IDOCK:   -8.28 KCAL/MOL
REMARK 923 INTER-LIGAND FREE ENERGY PREDICTED BY IDOCK:   -7.32 KCAL/MOL
REMARK 924 INTRA-LIGAND FREE ENERGY PREDICTED BY IDOCK:   -0.96 KCAL/MOL
REMARK 927      BINDING AFFINITY PREDICTED BY RF-SCORE:    0.00 PKD
ROOT
HETATM    1  C   UNL     1     -10.516  18.289  66.041  1.00  0.00    -0.380 C  
HETATM    2  C   UNL     1      -9.828  16.939  65.891  1.00  0.00    -0.241 C  
ENDROOT
BRANCH   2   3
HETATM    3  C   UNL     1     -10.739  15.915  65.216  1.00  0.00    -0.442 C  
BRANCH   3   4
HETATM    4  C   UNL     1     -10.384  14.467  65.595  1.00  0.00    -0.342 C  
BRANCH   4   5
HETATM    5  N   UNL     1     -11.549  13.557  65.705  1.00  0.00    -0.321 NA 
HETATM    6  C   UNL     1     -11.996  13.063  64.389  1.00  0.00    -0.397 C  
HETATM    7  C   UNL     1     -10.985  12.141  63.702  1.00  0.00    -0.527 C  
HETATM    8  C   UNL     1     -10.588  10.974  64.603  1.00  0.00    -0.369 C  
HETATM    9  C   UNL     1     -10.214  11.431  66.013  1.00  0.00    -0.289 C  
HETATM   10  C   UNL     1     -11.287  12.370  66.583  1.00  0.00    -0.339 C  
BRANCH  10  11
HETATM   11  C   UNL     1     -11.025  12.778  68.054  1.00  0.00    -0.239 C  
HETATM   12  N   UNL     1     -12.142  13.346  68.651  1.00  0.00    -0.314 N  
HETATM   13  O   UNL     1      -9.966  12.523  68.624  1.00  0.00    -0.196 OA 
HETATM   14  H   UNL     1     -12.996  13.361  68.092  1.00  0.00     0.000 HD 
BRANCH  12  15
HETATM   15  C   UNL     1     -12.229  13.906  69.946  1.00  0.00    -0.333 A  
HETATM   16  C   UNL     1     -12.536  13.138  71.091  1.00  0.00    -0.403 A  
HETATM   17  C   UNL     1     -12.821  11.662  71.098  1.00  0.00    -0.392 C  
HETATM   18  C   UNL     1     -12.541  13.759  72.357  1.00  0.00    -0.142 A  
HETATM   19  C   UNL     1     -12.209  15.103  72.504  1.00  0.00    -0.474 A  
HETATM   20  C   UNL     1     -11.896  15.856  71.381  1.00  0.00    -0.524 A  
HETATM   21  C   UNL     1     -11.900  15.276  70.102  1.00  0.00    -0.356 A  
HETATM   22  C   UNL     1     -11.625  16.181  68.924  1.00  0.00    -0.298 C  
ENDBRANCH  12  15
ENDBRANCH  10  11
ENDBRANCH   4   5
ENDBRANCH   3   4
ENDBRANCH   2   3
TORSDOF 5
ENDMDL
MODEL        7
REMARK 921   NORMALIZED FREE ENERGY PREDICTED BY IDOCK:   -5.67 KCAL/MOL
REMARK 922        TOTAL FREE ENERGY PREDICTED BY IDOCK:   -8.27 KCAL/MOL
REMARK 923 INTER-LIGAND FREE ENERGY PREDICTED BY IDOCK:   -7.87 KCAL/MOL
REMARK 924 INTRA-LIGAND FREE ENERGY PREDICTED BY IDOCK:   -0.41 KCAL/MOL
REMARK 927      BINDING AFFINITY PREDICTED BY RF-SCORE:    0.00 PKD
ROOT
HETATM    1  C   UNL     1     -11.327  12.218  63.675  1.00  0.00    -0.547 C  
HETATM    2  C   UNL     1     -12.555  12.468  64.540  1.00  0.00    -0.503 C  
ENDROOT
BRANCH   2   3
HETATM    3  C   UNL     1     -12.580  13.896  65.081  1.00  0.00    -0.466 C  
BRANCH   3   4
HETATM    4  C   UNL     1     -12.211  13.970  66.573  1.00  0.00    -0.451 C  
BRANCH   4   5
HETATM    5  N   UNL     1     -10.804  13.613  66.876  1.00  0.00    -0.282 NA 
HETATM    6  C   UNL     1      -9.872  14.715  66.572  1.00  0.00    -0.275 C  
HETATM    7  C   UNL     1     -10.050  15.939  67.474  1.00  0.00    -0.247 C  
HETATM    8  C   UNL     1      -9.968  15.563  68.952  1.00  0.00    -0.218 C  
HETATM    9  C   UNL     1     -10.843  14.357  69.293  1.00  0.00    -0.261 C  
HETATM   10  C   UNL     1     -10.596  13.208  68.305  1.00  0.00    -0.248 C  
BRANCH  10  11
HETATM   11  C   UNL     1     -11.368  11.914  68.663  1.00  0.00    -0.276 C  
HETATM   12  N   UNL     1     -11.177  11.535  69.985  1.00  0.00    -0.489 N  
HETATM   13  O   UNL     1     -12.132  11.368  67.870  1.00  0.00    -0.646 OA 
HETATM   14  H   UNL     1     -10.628  12.171  70.564  1.00  0.00     0.000 HD 
BRANCH  12  15
HETATM   15  C   UNL     1     -11.659  10.367  70.618  1.00  0.00    -0.349 A  
HETATM   16  C   UNL     1     -11.109   9.087  70.381  1.00  0.00    -0.279 A  
HETATM   17  C   UNL     1      -9.978   8.788  69.438  1.00  0.00    -0.196 C  
HETATM   18  C   UNL     1     -11.603   7.980  71.102  1.00  0.00    -0.307 A  
HETATM   19  C   UNL     1     -12.591   8.131  72.071  1.00  0.00    -0.366 A  
HETATM   20  C   UNL     1     -13.124   9.389  72.313  1.00  0.00    -0.509 A  
HETATM   21  C   UNL     1     -12.670  10.512  71.601  1.00  0.00    -0.550 A  
HETATM   22  C   UNL     1     -13.355  11.831  71.869  1.00  0.00    -0.401 C  
ENDBRANCH  12  15
ENDBRANCH  10  11
ENDBRANCH   4   5
ENDBRANCH   3   4
ENDBRANCH   2   3
TORSDOF 5
ENDMDL
MODEL        8
REMARK 921   NORMALIZED FREE ENERGY PREDICTED BY IDOCK:   -5.65 KCAL/MOL
REMARK 922        TOTAL FREE ENERGY PREDICTED BY IDOCK:   -8.25 KCAL/MOL
REMARK 923 INTER-LIGAND FREE ENERGY PREDICTED BY IDOCK:   -7.53 KCAL/MOL
REMARK 924 INTRA-LIGAND FREE ENERGY PREDICTED BY IDOCK:   -0.72 KCAL/MOL
REMARK 927      BINDING AFFINITY PREDICTED BY RF-SCORE:    0.00 PKD
ROOT
HETATM    1  C   UNL     1     -12.448  12.025  63.505  1.00  0.00    -0.654 C  
HETATM    2  C   UNL     1     -11.923  13.206  64.310  1.00  0.00    -0.470 C  
ENDROOT
BRANCH   2   3
HETATM    3  C   UNL     1     -10.397  13.209  64.377  1.00  0.00    -0.390 C  
BRANCH   3   4
HETATM    4  C   UNL     1      -9.867  12.949  65.798  1.00  0.00    -0.209 C  
BRANCH   4   5
HETATM    5  N   UNL     1     -10.034  11.554  66.271  1.00  0.00    -0.213 NA 
HETATM    6  C   UNL     1      -8.937  10.677  65.818  1.00  0.00    -0.182 C  
HETATM    7  C   UNL     1      -7.579  11.021  66.436  1.00  0.00    -0.135 C  
HETATM    8  C   UNL     1      -7.648  11.046  67.962  1.00  0.00    -0.092 C  
HETATM    9  C   UNL     1      -8.835  11.862  68.476  1.00  0.00    -0.108 C  
HETATM   10  C   UNL     1     -10.130  11.447  67.763  1.00  0.00    -0.181 C  
BRANCH  10  11
HETATM   11  C   UNL     1     -11.389  12.156  68.319  1.00  0.00    -0.289 C  
HETATM   12  N   UNL     1     -11.192  12.655  69.599  1.00  0.00    -0.478 N  
HETATM   13  O   UNL     1     -12.398  12.325  67.637  1.00  0.00    -0.312 OA 
HETATM   14  H   UNL     1     -10.251  12.563  69.982  1.00  0.00     0.000 HD 
BRANCH  12  15
HETATM   15  C   UNL     1     -12.149  13.277  70.433  1.00  0.00    -0.327 A  
HETATM   16  C   UNL     1     -12.893  12.569  71.403  1.00  0.00    -0.359 A  
HETATM   17  C   UNL     1     -12.789  11.093  71.672  1.00  0.00    -0.524 C  
HETATM   18  C   UNL     1     -13.782  13.274  72.240  1.00  0.00    -0.686 A  
HETATM   19  C   UNL     1     -13.910  14.657  72.156  1.00  0.00    -0.569 A  
HETATM   20  C   UNL     1     -13.172  15.356  71.211  1.00  0.00    -0.585 A  
HETATM   21  C   UNL     1     -12.290  14.685  70.348  1.00  0.00    -0.399 A  
HETATM   22  C   UNL     1     -11.583  15.507  69.297  1.00  0.00    -0.369 C  
ENDBRANCH  12  15
ENDBRANCH  10  11
ENDBRANCH   4   5
ENDBRANCH   3   4
ENDBRANCH   2   3
TORSDOF 5
ENDMDL
MODEL        9
REMARK 921   NORMALIZED FREE ENERGY PREDICTED BY IDOCK:   -5.65 KCAL/MOL
REMARK 922        TOTAL FREE ENERGY PREDICTED BY IDOCK:   -8.24 KCAL/MOL
REMARK 923 INTER-LIGAND FREE ENERGY PREDICTED BY IDOCK:   -7.64 KCAL/MOL
REMARK 924 INTRA-LIGAND FREE ENERGY PREDICTED BY IDOCK:   -0.61 KCAL/MOL
REMARK 927      BINDING AFFINITY PREDICTED BY RF-SCORE:    0.00 PKD
ROOT
HETATM    1  C   UNL     1     -12.941  15.781  73.450  1.00  0.00    -0.696 C  
HETATM    2  C   UNL     1     -12.141  16.059  72.184  1.00  0.00    -0.611 C  
ENDROOT
BRANCH   2   3
HETATM    3  C   UNL     1     -12.788  15.421  70.957  1.00  0.00    -0.525 C  
BRANCH   3   4
HETATM    4  C   UNL     1     -11.916  14.315  70.336  1.00  0.00    -0.332 C  
BRANCH   4   5
HETATM    5  N   UNL     1     -11.968  14.251  68.856  1.00  0.00    -0.332 NA 
HETATM    6  C   UNL     1     -11.644  15.548  68.230  1.00  0.00    -0.334 C  
HETATM    7  C   UNL     1     -10.193  15.987  68.441  1.00  0.00    -0.236 C  
HETATM    8  C   UNL     1      -9.210  14.912  67.981  1.00  0.00    -0.185 C  
HETATM    9  C   UNL     1      -9.568  13.529  68.525  1.00  0.00    -0.151 C  
HETATM   10  C   UNL     1     -11.050  13.215  68.280  1.00  0.00    -0.266 C  
BRANCH  10  11
HETATM   11  C   UNL     1     -11.451  11.780  68.705  1.00  0.00    -0.288 C  
HETATM   12  N   UNL     1     -10.880  11.408  69.914  1.00  0.00    -0.447 N  
HETATM   13  O   UNL     1     -12.264  11.114  68.067  1.00  0.00    -0.584 OA 
HETATM   14  H   UNL     1     -10.340  12.125  70.399  1.00  0.00     0.000 HD 
BRANCH  12  15
HETATM   15  C   UNL     1     -10.962  10.148  70.548  1.00  0.00    -0.310 A  
HETATM   16  C   UNL     1     -12.020   9.797  71.418  1.00  0.00    -0.493 A  
HETATM   17  C   UNL     1     -13.168  10.691  71.795  1.00  0.00    -0.526 C  
HETATM   18  C   UNL     1     -12.064   8.497  71.960  1.00  0.00    -0.428 A  
HETATM   19  C   UNL     1     -11.110   7.541  71.623  1.00  0.00    -0.270 A  
HETATM   20  C   UNL     1     -10.077   7.880  70.761  1.00  0.00    -0.201 A  
HETATM   21  C   UNL     1      -9.990   9.171  70.216  1.00  0.00    -0.246 A  
HETATM   22  C   UNL     1      -8.794   9.483  69.348  1.00  0.00    -0.172 C  
ENDBRANCH  12  15
ENDBRANCH  10  11
ENDBRANCH   4   5
ENDBRANCH   3   4
ENDBRANCH   2   3
TORSDOF 5
ENDMDL
MODEL       10
REMARK 921   NORMALIZED FREE ENERGY PREDICTED BY IDOCK:   -5.63 KCAL/MOL
REMARK 922        TOTAL FREE ENERGY PREDICTED BY IDOCK:   -8.23 KCAL/MOL
REMARK 923 INTER-LIGAND FREE ENERGY PREDICTED BY IDOCK:   -7.91 KCAL/MOL
REMARK 924 INTRA-LIGAND FREE ENERGY PREDICTED BY IDOCK:   -0.31 KCAL/MOL
REMARK 927      BINDING AFFINITY PREDICTED BY RF-SCORE:    0.00 PKD
ROOT
HETATM    1  C   UNL     1      -6.087  21.144  67.578  1.00  0.00    -0.420 C  
HETATM    2  C   UNL     1      -6.061  19.725  68.130  1.00  0.00    -0.261 C  
ENDROOT
BRANCH   2   3
HETATM    3  C   UNL     1      -7.187  19.491  69.135  1.00  0.00    -0.382 C  
BRANCH   3   4
HETATM    4  C   UNL     1      -8.155  18.380  68.692  1.00  0.00    -0.297 C  
BRANCH   4   5
HETATM    5  N   UNL     1      -9.590  18.731  68.810  1.00  0.00    -0.370 NA 
HETATM    6  C   UNL     1      -9.890  20.052  68.224  1.00  0.00    -0.354 C  
HETATM    7  C   UNL     1      -9.712  20.106  66.704  1.00  0.00    -0.568 C  
HETATM    8  C   UNL     1     -10.523  19.016  66.006  1.00  0.00    -0.530 C  
HETATM    9  C   UNL     1     -10.321  17.643  66.647  1.00  0.00    -0.333 C  
HETATM   10  C   UNL     1     -10.496  17.722  68.170  1.00  0.00    -0.377 C  
BRANCH  10  11
HETATM   11  C   UNL     1     -10.419  16.343  68.869  1.00  0.00    -0.285 C  
HETATM   12  N   UNL     1     -11.599  15.623  68.750  1.00  0.00    -0.370 N  
HETATM   13  O   UNL     1      -9.379  15.925  69.376  1.00  0.00    -0.255 OA 
HETATM   14  H   UNL     1     -12.330  16.043  68.174  1.00  0.00     0.000 HD 
BRANCH  12  15
HETATM   15  C   UNL     1     -11.904  14.374  69.336  1.00  0.00    -0.325 A  
HETATM   16  C   UNL     1     -11.586  13.142  68.720  1.00  0.00    -0.348 A  
HETATM   17  C   UNL     1     -10.913  12.986  67.385  1.00  0.00    -0.284 C  
HETATM   18  C   UNL     1     -11.865  11.939  69.400  1.00  0.00    -0.389 A  
HETATM   19  C   UNL     1     -12.408  11.942  70.681  1.00  0.00    -0.405 A  
HETATM   20  C   UNL     1     -12.711  13.151  71.293  1.00  0.00    -0.396 A  
HETATM   21  C   UNL     1     -12.464  14.369  70.638  1.00  0.00    -0.419 A  
HETATM   22  C   UNL     1     -12.893  15.636  71.339  1.00  0.00    -0.546 C  
ENDBRANCH  12  15
ENDBRANCH  10  11
ENDBRANCH   4   5
ENDBRANCH   3   4
ENDBRANCH   2   3
TORSDOF 5
ENDMDL
MODEL       11
REMARK 921   NORMALIZED FREE ENERGY PREDICTED BY IDOCK:   -5.63 KCAL/MOL
REMARK 922        TOTAL FREE ENERGY PREDICTED BY IDOCK:   -8.22 KCAL/MOL
REMARK 923 INTER-LIGAND FREE ENERGY PREDICTED BY IDOCK:   -7.25 KCAL/MOL
REMARK 924 INTRA-LIGAND FREE ENERGY PREDICTED BY IDOCK:   -0.97 KCAL/MOL
REMARK 927      BINDING AFFINITY PREDICTED BY RF-SCORE:    0.00 PKD
ROOT
HETATM    1  C   UNL     1     -11.416   6.400  69.873  1.00  0.00    -0.483 C  
HETATM    2  C   UNL     1     -11.021   6.832  71.279  1.00  0.00    -0.288 C  
ENDROOT
BRANCH   2   3
HETATM    3  C   UNL     1     -10.667   8.317  71.333  1.00  0.00    -0.282 C  
BRANCH   3   4
HETATM    4  C   UNL     1     -10.937   9.039  70.001  1.00  0.00    -0.214 C  
BRANCH   4   5
HETATM    5  N   UNL     1      -9.872   9.983  69.587  1.00  0.00    -0.226 NA 
HETATM    6  C   UNL     1      -8.614   9.290  69.249  1.00  0.00    -0.139 C  
HETATM    7  C   UNL     1      -8.712   8.412  67.999  1.00  0.00    -0.139 C  
HETATM    8  C   UNL     1      -9.225   9.203  66.797  1.00  0.00    -0.195 C  
HETATM    9  C   UNL     1     -10.473  10.020  67.131  1.00  0.00    -0.305 C  
HETATM   10  C   UNL     1     -10.264  10.833  68.416  1.00  0.00    -0.175 C  
BRANCH  10  11
HETATM   11  C   UNL     1     -11.450  11.772  68.747  1.00  0.00    -0.291 C  
HETATM   12  N   UNL     1     -11.274  12.441  69.951  1.00  0.00    -0.486 N  
HETATM   13  O   UNL     1     -12.378  11.954  67.962  1.00  0.00    -0.363 OA 
HETATM   14  H   UNL     1     -10.382  12.294  70.424  1.00  0.00     0.000 HD 
BRANCH  12  15
HETATM   15  C   UNL     1     -12.192  13.301  70.595  1.00  0.00    -0.338 A  
HETATM   16  C   UNL     1     -13.118  12.846  71.561  1.00  0.00    -0.390 A  
HETATM   17  C   UNL     1     -13.268  11.421  72.018  1.00  0.00    -0.432 C  
HETATM   18  C   UNL     1     -13.956  13.778  72.205  1.00  0.00    -0.672 A  
HETATM   19  C   UNL     1     -13.861  15.141  71.939  1.00  0.00    -0.607 A  
HETATM   20  C   UNL     1     -12.944  15.591  70.999  1.00  0.00    -0.550 A  
HETATM   21  C   UNL     1     -12.105  14.690  70.323  1.00  0.00    -0.380 A  
HETATM   22  C   UNL     1     -11.191  15.250  69.261  1.00  0.00    -0.291 C  
ENDBRANCH  12  15
ENDBRANCH  10  11
ENDBRANCH   4   5
ENDBRANCH   3   4
ENDBRANCH   2   3
TORSDOF 5
ENDMDL
MODEL       12
REMARK 921   NORMALIZED FREE ENERGY PREDICTED BY IDOCK:   -5.63 KCAL/MOL
REMARK 922        TOTAL FREE ENERGY PREDICTED BY IDOCK:   -8.22 KCAL/MOL
REMARK 923 INTER-LIGAND FREE ENERGY PREDICTED BY IDOCK:   -7.56 KCAL/MOL
REMARK 924 INTRA-LIGAND FREE ENERGY PREDICTED BY IDOCK:   -0.66 KCAL/MOL
REMARK 927      BINDING AFFINITY PREDICTED BY RF-SCORE:    0.00 PKD
ROOT
HETATM    1  C   UNL     1     -12.815   8.742  71.604  1.00  0.00    -0.392 C  
HETATM    2  C   UNL     1     -13.076  10.149  72.124  1.00  0.00    -0.463 C  
ENDROOT
BRANCH   2   3
HETATM    3  C   UNL     1     -12.982  11.188  71.007  1.00  0.00    -0.338 C  
BRANCH   3   4
HETATM    4  C   UNL     1     -12.539  12.570  71.521  1.00  0.00    -0.148 C  
BRANCH   4   5
HETATM    5  N   UNL     1     -13.202  13.715  70.852  1.00  0.00    -0.119 NA 
HETATM    6  C   UNL     1     -14.145  14.413  71.747  1.00  0.00    -0.475 C  
HETATM    7  C   UNL     1     -13.467  15.127  72.920  1.00  0.00    -0.589 C  
HETATM    8  C   UNL     1     -12.379  16.085  72.438  1.00  0.00    -0.581 C  
HETATM    9  C   UNL     1     -11.437  15.432  71.427  1.00  0.00    -0.465 C  
HETATM   10  C   UNL     1     -12.232  14.726  70.319  1.00  0.00    -0.338 C  
BRANCH  10  11
HETATM   11  C   UNL     1     -11.336  14.141  69.200  1.00  0.00    -0.279 C  
HETATM   12  N   UNL     1     -12.015  13.231  68.402  1.00  0.00    -0.338 N  
HETATM   13  O   UNL     1     -10.188  14.537  69.009  1.00  0.00    -0.234 OA 
HETATM   14  H   UNL     1     -13.010  13.112  68.595  1.00  0.00     0.000 HD 
BRANCH  12  15
HETATM   15  C   UNL     1     -11.483  12.450  67.351  1.00  0.00    -0.352 A  
HETATM   16  C   UNL     1     -10.704  11.293  67.577  1.00  0.00    -0.275 A  
HETATM   17  C   UNL     1     -10.326  10.750  68.927  1.00  0.00    -0.220 C  
HETATM   18  C   UNL     1     -10.264  10.531  66.475  1.00  0.00    -0.288 A  
HETATM   19  C   UNL     1     -10.618  10.874  65.173  1.00  0.00    -0.268 A  
HETATM   20  C   UNL     1     -11.392  12.004  64.949  1.00  0.00    -0.366 A  
HETATM   21  C   UNL     1     -11.832  12.797  66.021  1.00  0.00    -0.495 A  
HETATM   22  C   UNL     1     -12.605  14.051  65.689  1.00  0.00    -0.542 C  
ENDBRANCH  12  15
ENDBRANCH  10  11
ENDBRANCH   4   5
ENDBRANCH   3   4
ENDBRANCH   2   3
TORSDOF 5
ENDMDL
MODEL       13
REMARK 921   NORMALIZED FREE ENERGY PREDICTED BY IDOCK:   -5.63 KCAL/MOL
REMARK 922        TOTAL FREE ENERGY PREDICTED BY IDOCK:   -8.22 KCAL/MOL
REMARK 923 INTER-LIGAND FREE ENERGY PREDICTED BY IDOCK:   -7.46 KCAL/MOL
REMARK 924 INTRA-LIGAND FREE ENERGY PREDICTED BY IDOCK:   -0.76 KCAL/MOL
REMARK 927      BINDING AFFINITY PREDICTED BY RF-SCORE:    0.00 PKD
ROOT
HETATM    1  C   UNL     1     -12.694   7.777  71.741  1.00  0.00    -0.354 C  
HETATM    2  C   UNL     1     -11.485   8.114  72.604  1.00  0.00    -0.454 C  
ENDROOT
BRANCH   2   3
HETATM    3  C   UNL     1     -10.338   8.681  71.770  1.00  0.00    -0.386 C  
BRANCH   3   4
HETATM    4  C   UNL     1     -10.826   9.360  70.477  1.00  0.00    -0.277 C  
BRANCH   4   5
HETATM    5  N   UNL     1      -9.814  10.214  69.813  1.00  0.00    -0.230 NA 
HETATM    6  C   UNL     1      -8.593   9.462  69.462  1.00  0.00    -0.158 C  
HETATM    7  C   UNL     1      -8.815   8.398  68.383  1.00  0.00    -0.140 C  
HETATM    8  C   UNL     1      -9.452   8.995  67.130  1.00  0.00    -0.196 C  
HETATM    9  C   UNL     1     -10.664   9.868  67.456  1.00  0.00    -0.333 C  
HETATM   10  C   UNL     1     -10.328  10.873  68.567  1.00  0.00    -0.187 C  
BRANCH  10  11
HETATM   11  C   UNL     1     -11.478  11.865  68.865  1.00  0.00    -0.301 C  
HETATM   12  N   UNL     1     -11.303  12.530  70.071  1.00  0.00    -0.505 N  
HETATM   13  O   UNL     1     -12.377  12.085  68.055  1.00  0.00    -0.329 OA 
HETATM   14  H   UNL     1     -10.431  12.346  70.567  1.00  0.00     0.000 HD 
BRANCH  12  15
HETATM   15  C   UNL     1     -12.198  13.434  70.688  1.00  0.00    -0.350 A  
HETATM   16  C   UNL     1     -12.238  14.809  70.367  1.00  0.00    -0.395 A  
HETATM   17  C   UNL     1     -11.353  15.494  69.363  1.00  0.00    -0.321 C  
HETATM   18  C   UNL     1     -13.204  15.633  70.980  1.00  0.00    -0.435 A  
HETATM   19  C   UNL     1     -14.143  15.110  71.864  1.00  0.00    -0.649 A  
HETATM   20  C   UNL     1     -14.112  13.757  72.173  1.00  0.00    -0.604 A  
HETATM   21  C   UNL     1     -13.153  12.909  71.595  1.00  0.00    -0.430 A  
HETATM   22  C   UNL     1     -13.137  11.467  72.042  1.00  0.00    -0.423 C  
ENDBRANCH  12  15
ENDBRANCH  10  11
ENDBRANCH   4   5
ENDBRANCH   3   4
ENDBRANCH   2   3
TORSDOF 5
ENDMDL
MODEL       14
REMARK 921   NORMALIZED FREE ENERGY PREDICTED BY IDOCK:   -5.60 KCAL/MOL
REMARK 922        TOTAL FREE ENERGY PREDICTED BY IDOCK:   -8.18 KCAL/MOL
REMARK 923 INTER-LIGAND FREE ENERGY PREDICTED BY IDOCK:   -7.51 KCAL/MOL
REMARK 924 INTRA-LIGAND FREE ENERGY PREDICTED BY IDOCK:   -0.68 KCAL/MOL
REMARK 927      BINDING AFFINITY PREDICTED BY RF-SCORE:    0.00 PKD
ROOT
HETATM    1  C   UNL     1     -12.204  12.095  63.556  1.00  0.00    -0.670 C  
HETATM    2  C   UNL     1     -12.041  13.282  64.495  1.00  0.00    -0.461 C  
ENDROOT
BRANCH   2   3
HETATM    3  C   UNL     1     -10.580  13.716  64.605  1.00  0.00    -0.446 C  
BRANCH   3   4
HETATM    4  C   UNL     1      -9.889  13.156  65.860  1.00  0.00    -0.233 C  
BRANCH   4   5
HETATM    5  N   UNL     1     -10.226  11.746  66.169  1.00  0.00    -0.214 NA 
HETATM    6  C   UNL     1      -9.241  10.801  65.606  1.00  0.00    -0.199 C  
HETATM    7  C   UNL     1      -7.854  10.905  66.246  1.00  0.00    -0.158 C  
HETATM    8  C   UNL     1      -7.925  10.760  67.765  1.00  0.00    -0.110 C  
HETATM    9  C   UNL     1      -9.006  11.647  68.382  1.00  0.00    -0.176 C  
HETATM   10  C   UNL     1     -10.339  11.478  67.640  1.00  0.00    -0.186 C  
BRANCH  10  11
HETATM   11  C   UNL     1     -11.506  12.263  68.288  1.00  0.00    -0.315 C  
HETATM   12  N   UNL     1     -11.199  12.705  69.567  1.00  0.00    -0.465 N  
HETATM   13  O   UNL     1     -12.535  12.530  67.671  1.00  0.00    -0.105 OA 
HETATM   14  H   UNL     1     -10.247  12.529  69.891  1.00  0.00     0.000 HD 
BRANCH  12  15
HETATM   15  C   UNL     1     -12.056  13.372  70.472  1.00  0.00    -0.323 A  
HETATM   16  C   UNL     1     -12.223  14.776  70.473  1.00  0.00    -0.385 A  
HETATM   17  C   UNL     1     -11.525  15.735  69.550  1.00  0.00    -0.356 C  
HETATM   18  C   UNL     1     -13.146  15.359  71.364  1.00  0.00    -0.563 A  
HETATM   19  C   UNL     1     -13.924  14.577  72.213  1.00  0.00    -0.600 A  
HETATM   20  C   UNL     1     -13.769  13.198  72.206  1.00  0.00    -0.647 A  
HETATM   21  C   UNL     1     -12.846  12.583  71.345  1.00  0.00    -0.359 A  
HETATM   22  C   UNL     1     -12.682  11.085  71.453  1.00  0.00    -0.534 C  
ENDBRANCH  12  15
ENDBRANCH  10  11
ENDBRANCH   4   5
ENDBRANCH   3   4
ENDBRANCH   2   3
TORSDOF 5
ENDMDL
MODEL       15
REMARK 921   NORMALIZED FREE ENERGY PREDICTED BY IDOCK:   -5.58 KCAL/MOL
REMARK 922        TOTAL FREE ENERGY PREDICTED BY IDOCK:   -8.16 KCAL/MOL
REMARK 923 INTER-LIGAND FREE ENERGY PREDICTED BY IDOCK:   -7.84 KCAL/MOL
REMARK 924 INTRA-LIGAND FREE ENERGY PREDICTED BY IDOCK:   -0.31 KCAL/MOL
REMARK 927      BINDING AFFINITY PREDICTED BY RF-SCORE:    0.00 PKD
ROOT
HETATM    1  C   UNL     1     -12.307  12.140  63.562  1.00  0.00    -0.682 C  
HETATM    2  C   UNL     1     -12.102  13.592  63.973  1.00  0.00    -0.494 C  
ENDROOT
BRANCH   2   3
HETATM    3  C   UNL     1     -10.733  13.808  64.614  1.00  0.00    -0.427 C  
BRANCH   3   4
HETATM    4  C   UNL     1     -10.627  15.160  65.342  1.00  0.00    -0.391 C  
BRANCH   4   5
HETATM    5  N   UNL     1      -9.671  15.174  66.475  1.00  0.00    -0.255 NA 
HETATM    6  C   UNL     1      -8.504  16.037  66.209  1.00  0.00    -0.302 C  
HETATM    7  C   UNL     1      -8.849  17.526  66.113  1.00  0.00    -0.160 C  
HETATM    8  C   UNL     1      -9.597  18.008  67.354  1.00  0.00    -0.272 C  
HETATM    9  C   UNL     1     -10.756  17.084  67.728  1.00  0.00    -0.318 C  
HETATM   10  C   UNL     1     -10.295  15.620  67.763  1.00  0.00    -0.266 C  
BRANCH  10  11
HETATM   11  C   UNL     1     -11.394  14.643  68.248  1.00  0.00    -0.297 C  
HETATM   12  N   UNL     1     -11.178  14.209  69.549  1.00  0.00    -0.332 N  
HETATM   13  O   UNL     1     -12.384  14.383  67.567  1.00  0.00    -0.273 OA 
HETATM   14  H   UNL     1     -10.387  14.626  70.040  1.00  0.00     0.000 HD 
BRANCH  12  15
HETATM   15  C   UNL     1     -11.931  13.253  70.269  1.00  0.00    -0.300 A  
HETATM   16  C   UNL     1     -11.825  11.864  70.036  1.00  0.00    -0.407 A  
HETATM   17  C   UNL     1     -10.936  11.219  69.009  1.00  0.00    -0.288 C  
HETATM   18  C   UNL     1     -12.562  10.971  70.841  1.00  0.00    -0.488 A  
HETATM   19  C   UNL     1     -13.358  11.431  71.887  1.00  0.00    -0.409 A  
HETATM   20  C   UNL     1     -13.454  12.795  72.124  1.00  0.00    -0.591 A  
HETATM   21  C   UNL     1     -12.749  13.714  71.331  1.00  0.00    -0.437 A  
HETATM   22  C   UNL     1     -12.968  15.183  71.604  1.00  0.00    -0.454 C  
ENDBRANCH  12  15
ENDBRANCH  10  11
ENDBRANCH   4   5
ENDBRANCH   3   4
ENDBRANCH   2   3
TORSDOF 5
ENDMDL
MODEL       16
REMARK 921   NORMALIZED FREE ENERGY PREDICTED BY IDOCK:   -5.57 KCAL/MOL
REMARK 922        TOTAL FREE ENERGY PREDICTED BY IDOCK:   -8.14 KCAL/MOL
REMARK 923 INTER-LIGAND FREE ENERGY PREDICTED BY IDOCK:   -7.36 KCAL/MOL
REMARK 924 INTRA-LIGAND FREE ENERGY PREDICTED BY IDOCK:   -0.78 KCAL/MOL
REMARK 927      BINDING AFFINITY PREDICTED BY RF-SCORE:    0.00 PKD
ROOT
HETATM    1  C   UNL     1     -13.226  15.101  71.094  1.00  0.00    -0.535 C  
HETATM    2  C   UNL     1     -11.739  15.405  71.208  1.00  0.00    -0.433 C  
ENDROOT
BRANCH   2   3
HETATM    3  C   UNL     1     -11.244  16.241  70.029  1.00  0.00    -0.324 C  
BRANCH   3   4
HETATM    4  C   UNL     1     -11.585  15.606  68.669  1.00  0.00    -0.382 C  
BRANCH   4   5
HETATM    5  N   UNL     1     -10.494  14.794  68.079  1.00  0.00    -0.243 NA 
HETATM    6  C   UNL     1     -10.646  13.357  68.379  1.00  0.00    -0.248 C  
HETATM    7  C   UNL     1     -11.865  12.715  67.712  1.00  0.00    -0.381 C  
HETATM    8  C   UNL     1     -11.867  12.948  66.203  1.00  0.00    -0.487 C  
HETATM    9  C   UNL     1     -11.611  14.412  65.842  1.00  0.00    -0.361 C  
HETATM   10  C   UNL     1     -10.384  14.950  66.592  1.00  0.00    -0.283 C  
BRANCH  10  11
HETATM   11  C   UNL     1     -10.001  16.393  66.184  1.00  0.00    -0.339 C  
HETATM   12  N   UNL     1      -9.059  16.952  67.037  1.00  0.00    -0.220 N  
HETATM   13  O   UNL     1     -10.429  16.917  65.157  1.00  0.00    -0.663 OA 
HETATM   14  H   UNL     1      -8.689  16.340  67.766  1.00  0.00     0.000 HD 
BRANCH  12  15
HETATM   15  C   UNL     1      -8.555  18.272  67.011  1.00  0.00    -0.254 A  
HETATM   16  C   UNL     1      -9.337  19.396  67.360  1.00  0.00    -0.388 A  
HETATM   17  C   UNL     1     -10.779  19.354  67.783  1.00  0.00    -0.480 C  
HETATM   18  C   UNL     1      -8.741  20.673  67.371  1.00  0.00    -0.311 A  
HETATM   19  C   UNL     1      -7.389  20.843  67.084  1.00  0.00    -0.369 A  
HETATM   20  C   UNL     1      -6.617  19.739  66.751  1.00  0.00    -0.206 A  
HETATM   21  C   UNL     1      -7.181  18.453  66.712  1.00  0.00    -0.231 A  
HETATM   22  C   UNL     1      -6.293  17.315  66.267  1.00  0.00    -0.218 C  
ENDBRANCH  12  15
ENDBRANCH  10  11
ENDBRANCH   4   5
ENDBRANCH   3   4
ENDBRANCH   2   3
TORSDOF 5
ENDMDL
MODEL       17
REMARK 921   NORMALIZED FREE ENERGY PREDICTED BY IDOCK:   -5.56 KCAL/MOL
REMARK 922        TOTAL FREE ENERGY PREDICTED BY IDOCK:   -8.14 KCAL/MOL
REMARK 923 INTER-LIGAND FREE ENERGY PREDICTED BY IDOCK:   -7.06 KCAL/MOL
REMARK 924 INTRA-LIGAND FREE ENERGY PREDICTED BY IDOCK:   -1.08 KCAL/MOL
REMARK 927      BINDING AFFINITY PREDICTED BY RF-SCORE:    0.00 PKD
ROOT
HETATM    1  C   UNL     1     -10.372   7.098  73.557  1.00  0.00    -0.412 C  
HETATM    2  C   UNL     1     -10.855   6.051  72.563  1.00  0.00    -0.286 C  
ENDROOT
BRANCH   2   3
HETATM    3  C   UNL     1     -12.027   6.566  71.728  1.00  0.00    -0.394 C  
BRANCH   3   4
HETATM    4  C   UNL     1     -11.754   6.489  70.215  1.00  0.00    -0.366 C  
BRANCH   4   5
HETATM    5  N   UNL     1     -10.340   6.712  69.834  1.00  0.00    -0.193 NA 
HETATM    6  C   UNL     1      -9.826   5.647  68.951  1.00  0.00    -0.147 C  
HETATM    7  C   UNL     1     -10.488   5.620  67.570  1.00  0.00    -0.294 C  
HETATM    8  C   UNL     1     -10.395   6.979  66.878  1.00  0.00    -0.338 C  
HETATM    9  C   UNL     1     -10.822   8.126  67.794  1.00  0.00    -0.072 C  
HETATM   10  C   UNL     1     -10.115   8.029  69.153  1.00  0.00    -0.201 C  
BRANCH  10  11
HETATM   11  C   UNL     1     -10.416   9.227  70.087  1.00  0.00    -0.230 C  
HETATM   12  N   UNL     1     -11.577   9.897  69.729  1.00  0.00    -0.428 N  
HETATM   13  O   UNL     1      -9.735   9.466  71.082  1.00  0.00    -0.270 OA 
HETATM   14  H   UNL     1     -12.116   9.493  68.963  1.00  0.00     0.000 HD 
BRANCH  12  15
HETATM   15  C   UNL     1     -12.097  11.078  70.306  1.00  0.00    -0.362 A  
HETATM   16  C   UNL     1     -12.917  11.070  71.457  1.00  0.00    -0.553 A  
HETATM   17  C   UNL     1     -13.353   9.840  72.205  1.00  0.00    -0.527 C  
HETATM   18  C   UNL     1     -13.342  12.295  72.010  1.00  0.00    -0.491 A  
HETATM   19  C   UNL     1     -12.937  13.511  71.468  1.00  0.00    -0.440 A  
HETATM   20  C   UNL     1     -12.124  13.522  70.343  1.00  0.00    -0.415 A  
HETATM   21  C   UNL     1     -11.695  12.321  69.755  1.00  0.00    -0.368 A  
HETATM   22  C   UNL     1     -10.876  12.418  68.489  1.00  0.00    -0.270 C  
ENDBRANCH  12  15
ENDBRANCH  10  11
ENDBRANCH   4   5
ENDBRANCH   3   4
ENDBRANCH   2   3
TORSDOF 5
ENDMDL
MODEL       18
REMARK 921   NORMALIZED FREE ENERGY PREDICTED BY IDOCK:   -5.52 KCAL/MOL
REMARK 922        TOTAL FREE ENERGY PREDICTED BY IDOCK:   -8.08 KCAL/MOL
REMARK 923 INTER-LIGAND FREE ENERGY PREDICTED BY IDOCK:   -7.11 KCAL/MOL
REMARK 924 INTRA-LIGAND FREE ENERGY PREDICTED BY IDOCK:   -0.97 KCAL/MOL
REMARK 927      BINDING AFFINITY PREDICTED BY RF-SCORE:    0.00 PKD
ROOT
HETATM    1  C   UNL     1     -11.077  15.244  70.272  1.00  0.00    -0.316 C  
HETATM    2  C   UNL     1     -10.618  14.427  69.072  1.00  0.00    -0.245 C  
ENDROOT
BRANCH   2   3
HETATM    3  C   UNL     1     -11.753  14.208  68.073  1.00  0.00    -0.394 C  
BRANCH   3   4
HETATM    4  C   UNL     1     -11.248  13.742  66.696  1.00  0.00    -0.318 C  
BRANCH   4   5
HETATM    5  N   UNL     1     -11.932  12.539  66.165  1.00  0.00    -0.569 NA 
HETATM    6  C   UNL     1     -12.589  12.798  64.869  1.00  0.00    -0.470 C  
HETATM    7  C   UNL     1     -11.609  13.090  63.729  1.00  0.00    -0.517 C  
HETATM    8  C   UNL     1     -10.569  11.980  63.588  1.00  0.00    -0.503 C  
HETATM    9  C   UNL     1      -9.933  11.607  64.927  1.00  0.00    -0.293 C  
HETATM   10  C   UNL     1     -11.012  11.368  65.993  1.00  0.00    -0.226 C  
BRANCH  10  11
HETATM   11  C   UNL     1     -10.439  10.874  67.344  1.00  0.00    -0.224 C  
HETATM   12  N   UNL     1     -11.296   9.995  67.992  1.00  0.00    -0.521 N  
HETATM   13  O   UNL     1      -9.306  11.171  67.721  1.00  0.00    -0.159 OA 
HETATM   14  H   UNL     1     -12.141   9.731  67.485  1.00  0.00     0.000 HD 
BRANCH  12  15
HETATM   15  C   UNL     1     -11.129   9.424  69.274  1.00  0.00    -0.045 A  
HETATM   16  C   UNL     1     -11.511  10.088  70.461  1.00  0.00    -0.407 A  
HETATM   17  C   UNL     1     -12.118  11.461  70.533  1.00  0.00    -0.487 C  
HETATM   18  C   UNL     1     -11.372   9.424  71.697  1.00  0.00    -0.452 A  
HETATM   19  C   UNL     1     -10.905   8.115  71.766  1.00  0.00    -0.317 A  
HETATM   20  C   UNL     1     -10.539   7.457  70.600  1.00  0.00    -0.234 A  
HETATM   21  C   UNL     1     -10.647   8.093  69.352  1.00  0.00    -0.206 A  
HETATM   22  C   UNL     1     -10.156   7.338  68.140  1.00  0.00    -0.201 C  
ENDBRANCH  12  15
ENDBRANCH  10  11
ENDBRANCH   4   5
ENDBRANCH   3   4
ENDBRANCH   2   3
TORSDOF 5
ENDMDL
MODEL       19
REMARK 921   NORMALIZED FREE ENERGY PREDICTED BY IDOCK:   -5.52 KCAL/MOL
REMARK 922        TOTAL FREE ENERGY PREDICTED BY IDOCK:   -8.08 KCAL/MOL
REMARK 923 INTER-LIGAND FREE ENERGY PREDICTED BY IDOCK:   -7.94 KCAL/MOL
REMARK 924 INTRA-LIGAND FREE ENERGY PREDICTED BY IDOCK:   -0.14 KCAL/MOL
REMARK 927      BINDING AFFINITY PREDICTED BY RF-SCORE:    0.00 PKD
ROOT
HETATM    1  C   UNL     1     -10.504  11.742  63.331  1.00  0.00    -0.485 C  
HETATM    2  C   UNL     1     -11.933  12.205  63.579  1.00  0.00    -0.619 C  
ENDROOT
BRANCH   2   3
HETATM    3  C   UNL     1     -11.972  13.550  64.301  1.00  0.00    -0.479 C  
BRANCH   3   4
HETATM    4  C   UNL     1     -12.049  13.399  65.831  1.00  0.00    -0.439 C  
BRANCH   4   5
HETATM    5  N   UNL     1     -10.742  13.489  66.524  1.00  0.00    -0.285 NA 
HETATM    6  C   UNL     1      -9.994  14.705  66.147  1.00  0.00    -0.304 C  
HETATM    7  C   UNL     1     -10.652  16.004  66.620  1.00  0.00    -0.297 C  
HETATM    8  C   UNL     1     -10.915  15.983  68.125  1.00  0.00    -0.339 C  
HETATM    9  C   UNL     1     -11.598  14.692  68.577  1.00  0.00    -0.346 C  
HETATM   10  C   UNL     1     -10.866  13.464  68.017  1.00  0.00    -0.247 C  
BRANCH  10  11
HETATM   11  C   UNL     1     -11.440  12.121  68.532  1.00  0.00    -0.300 C  
HETATM   12  N   UNL     1     -11.041  11.840  69.832  1.00  0.00    -0.474 N  
HETATM   13  O   UNL     1     -12.236  11.456  67.873  1.00  0.00    -0.592 OA 
HETATM   14  H   UNL     1     -10.494  12.561  70.304  1.00  0.00     0.000 HD 
BRANCH  12  15
HETATM   15  C   UNL     1     -11.307  10.667  70.574  1.00  0.00    -0.267 A  
HETATM   16  C   UNL     1     -12.344  10.587  71.531  1.00  0.00    -0.443 A  
HETATM   17  C   UNL     1     -13.277  11.707  71.898  1.00  0.00    -0.475 C  
HETATM   18  C   UNL     1     -12.587   9.361  72.184  1.00  0.00    -0.423 A  
HETATM   19  C   UNL     1     -11.852   8.220  71.874  1.00  0.00    -0.380 A  
HETATM   20  C   UNL     1     -10.841   8.294  70.927  1.00  0.00    -0.261 A  
HETATM   21  C   UNL     1     -10.558   9.503  70.270  1.00  0.00    -0.317 A  
HETATM   22  C   UNL     1      -9.392   9.519  69.310  1.00  0.00    -0.171 C  
ENDBRANCH  12  15
ENDBRANCH  10  11
ENDBRANCH   4   5
ENDBRANCH   3   4
ENDBRANCH   2   3
TORSDOF 5
ENDMDL
MODEL       20
REMARK 921   NORMALIZED FREE ENERGY PREDICTED BY IDOCK:   -5.51 KCAL/MOL
REMARK 922        TOTAL FREE ENERGY PREDICTED BY IDOCK:   -8.07 KCAL/MOL
REMARK 923 INTER-LIGAND FREE ENERGY PREDICTED BY IDOCK:   -7.14 KCAL/MOL
REMARK 924 INTRA-LIGAND FREE ENERGY PREDICTED BY IDOCK:   -0.93 KCAL/MOL
REMARK 927      BINDING AFFINITY PREDICTED BY RF-SCORE:    0.00 PKD
ROOT
HETATM    1  C   UNL     1      -9.689  19.646  66.814  1.00  0.00    -0.487 C  
HETATM    2  C   UNL     1     -10.527  18.806  67.769  1.00  0.00    -0.479 C  
ENDROOT
BRANCH   2   3
HETATM    3  C   UNL     1     -10.411  17.316  67.456  1.00  0.00    -0.356 C  
BRANCH   3   4
HETATM    4  C   UNL     1     -11.349  16.455  68.321  1.00  0.00    -0.241 C  
BRANCH   4   5
HETATM    5  N   UNL     1     -10.675  15.731  69.424  1.00  0.00    -0.243 NA 
HETATM    6  C   UNL     1     -11.191  16.128  70.749  1.00  0.00    -0.328 C  
HETATM    7  C   UNL     1     -12.646  15.716  70.991  1.00  0.00    -0.515 C  
HETATM    8  C   UNL     1     -12.849  14.219  70.765  1.00  0.00    -0.404 C  
HETATM    9  C   UNL     1     -12.238  13.743  69.447  1.00  0.00    -0.325 C  
HETATM   10  C   UNL     1     -10.792  14.241  69.307  1.00  0.00    -0.215 C  
BRANCH  10  11
HETATM   11  C   UNL     1     -10.076  13.697  68.046  1.00  0.00    -0.250 C  
HETATM   12  N   UNL     1     -10.946  13.037  67.189  1.00  0.00    -0.264 N  
HETATM   13  O   UNL     1      -8.891  13.928  67.817  1.00  0.00    -0.170 OA 
HETATM   14  H   UNL     1     -11.933  13.050  67.446  1.00  0.00     0.000 HD 
BRANCH  12  15
HETATM   15  C   UNL     1     -10.617  12.349  65.999  1.00  0.00    -0.256 A  
HETATM   16  C   UNL     1     -10.303  10.971  65.974  1.00  0.00    -0.311 A  
HETATM   17  C   UNL     1     -10.259  10.068  67.175  1.00  0.00    -0.284 C  
HETATM   18  C   UNL     1     -10.050  10.344  64.738  1.00  0.00    -0.387 A  
HETATM   19  C   UNL     1     -10.144  11.045  63.539  1.00  0.00    -0.428 A  
HETATM   20  C   UNL     1     -10.463  12.396  63.560  1.00  0.00    -0.430 A  
HETATM   21  C   UNL     1     -10.703  13.059  64.774  1.00  0.00    -0.370 A  
HETATM   22  C   UNL     1     -10.968  14.544  64.717  1.00  0.00    -0.404 C  
ENDBRANCH  12  15
ENDBRANCH  10  11
ENDBRANCH   4   5
ENDBRANCH   3   4
ENDBRANCH   2   3
TORSDOF 5
ENDMDL
MODEL       21
REMARK 921   NORMALIZED FREE ENERGY PREDICTED BY IDOCK:   -5.47 KCAL/MOL
REMARK 922        TOTAL FREE ENERGY PREDICTED BY IDOCK:   -8.02 KCAL/MOL
REMARK 923 INTER-LIGAND FREE ENERGY PREDICTED BY IDOCK:   -7.67 KCAL/MOL
REMARK 924 INTRA-LIGAND FREE ENERGY PREDICTED BY IDOCK:   -0.36 KCAL/MOL
REMARK 927      BINDING AFFINITY PREDICTED BY RF-SCORE:    0.00 PKD
ROOT
HETATM    1  C   UNL     1     -12.446  12.076  63.488  1.00  0.00    -0.654 C  
HETATM    2  C   UNL     1     -10.925  12.121  63.482  1.00  0.00    -0.521 C  
ENDROOT
BRANCH   2   3
HETATM    3  C   UNL     1     -10.348  11.869  64.874  1.00  0.00    -0.328 C  
BRANCH   3   4
HETATM    4  C   UNL     1     -11.007  12.745  65.955  1.00  0.00    -0.274 C  
BRANCH   4   5
HETATM    5  N   UNL     1     -10.132  13.056  67.110  1.00  0.00    -0.241 NA 
HETATM    6  C   UNL     1      -9.448  14.355  66.956  1.00  0.00    -0.248 C  
HETATM    7  C   UNL     1     -10.395  15.557  66.989  1.00  0.00    -0.279 C  
HETATM    8  C   UNL     1     -11.259  15.555  68.249  1.00  0.00    -0.343 C  
HETATM    9  C   UNL     1     -11.908  14.195  68.504  1.00  0.00    -0.390 C  
HETATM   10  C   UNL     1     -10.867  13.070  68.416  1.00  0.00    -0.258 C  
BRANCH  10  11
HETATM   11  C   UNL     1     -11.437  11.677  68.779  1.00  0.00    -0.285 C  
HETATM   12  N   UNL     1     -10.966  11.215  70.000  1.00  0.00    -0.471 N  
HETATM   13  O   UNL     1     -12.286  11.118  68.086  1.00  0.00    -0.612 OA 
HETATM   14  H   UNL     1     -10.376  11.856  70.530  1.00  0.00     0.000 HD 
BRANCH  12  15
HETATM   15  C   UNL     1     -11.212   9.955  70.592  1.00  0.00    -0.344 A  
HETATM   16  C   UNL     1     -10.417   8.817  70.325  1.00  0.00    -0.231 A  
HETATM   17  C   UNL     1      -9.239   8.779  69.391  1.00  0.00    -0.146 C  
HETATM   18  C   UNL     1     -10.687   7.612  71.006  1.00  0.00    -0.239 A  
HETATM   19  C   UNL     1     -11.694   7.534  71.963  1.00  0.00    -0.333 A  
HETATM   20  C   UNL     1     -12.469   8.653  72.234  1.00  0.00    -0.460 A  
HETATM   21  C   UNL     1     -12.241   9.865  71.563  1.00  0.00    -0.505 A  
HETATM   22  C   UNL     1     -13.177  11.013  71.858  1.00  0.00    -0.503 C  
ENDBRANCH  12  15
ENDBRANCH  10  11
ENDBRANCH   4   5
ENDBRANCH   3   4
ENDBRANCH   2   3
TORSDOF 5
ENDMDL
MODEL       22
REMARK 921   NORMALIZED FREE ENERGY PREDICTED BY IDOCK:   -5.46 KCAL/MOL
REMARK 922        TOTAL FREE ENERGY PREDICTED BY IDOCK:   -8.00 KCAL/MOL
REMARK 923 INTER-LIGAND FREE ENERGY PREDICTED BY IDOCK:   -7.58 KCAL/MOL
REMARK 924 INTRA-LIGAND FREE ENERGY PREDICTED BY IDOCK:   -0.42 KCAL/MOL
REMARK 927      BINDING AFFINITY PREDICTED BY RF-SCORE:    0.00 PKD
ROOT
HETATM    1  C   UNL     1     -12.139  12.965  63.488  1.00  0.00    -0.633 C  
HETATM    2  C   UNL     1     -11.233  11.741  63.466  1.00  0.00    -0.494 C  
ENDROOT
BRANCH   2   3
HETATM    3  C   UNL     1     -10.701  11.409  64.859  1.00  0.00    -0.350 C  
BRANCH   3   4
HETATM    4  C   UNL     1     -11.290  12.320  65.950  1.00  0.00    -0.360 C  
BRANCH   4   5
HETATM    5  N   UNL     1     -10.316  12.756  66.979  1.00  0.00    -0.233 NA 
HETATM    6  C   UNL     1      -9.683  14.044  66.637  1.00  0.00    -0.289 C  
HETATM    7  C   UNL     1     -10.654  15.229  66.651  1.00  0.00    -0.304 C  
HETATM    8  C   UNL     1     -11.392  15.333  67.984  1.00  0.00    -0.345 C  
HETATM    9  C   UNL     1     -11.978  13.993  68.429  1.00  0.00    -0.378 C  
HETATM   10  C   UNL     1     -10.921  12.882  68.345  1.00  0.00    -0.258 C  
BRANCH  10  11
HETATM   11  C   UNL     1     -11.418  11.521  68.891  1.00  0.00    -0.289 C  
HETATM   12  N   UNL     1     -10.870  11.217  70.130  1.00  0.00    -0.379 N  
HETATM   13  O   UNL     1     -12.277  10.859  68.311  1.00  0.00    -0.526 OA 
HETATM   14  H   UNL     1     -10.281  11.935  70.552  1.00  0.00     0.000 HD 
BRANCH  12  15
HETATM   15  C   UNL     1     -11.037  10.026  70.871  1.00  0.00    -0.314 A  
HETATM   16  C   UNL     1     -12.200   9.751  71.625  1.00  0.00    -0.488 A  
HETATM   17  C   UNL     1     -13.387  10.664  71.756  1.00  0.00    -0.437 C  
HETATM   18  C   UNL     1     -12.317   8.510  72.284  1.00  0.00    -0.450 A  
HETATM   19  C   UNL     1     -11.328   7.537  72.173  1.00  0.00    -0.326 A  
HETATM   20  C   UNL     1     -10.190   7.801  71.425  1.00  0.00    -0.211 A  
HETATM   21  C   UNL     1     -10.030   9.033  70.769  1.00  0.00    -0.307 A  
HETATM   22  C   UNL     1      -8.730   9.271  70.039  1.00  0.00    -0.208 C  
ENDBRANCH  12  15
ENDBRANCH  10  11
ENDBRANCH   4   5
ENDBRANCH   3   4
ENDBRANCH   2   3
TORSDOF 5
ENDMDL
MODEL       23
REMARK 921   NORMALIZED FREE ENERGY PREDICTED BY IDOCK:   -5.45 KCAL/MOL
REMARK 922        TOTAL FREE ENERGY PREDICTED BY IDOCK:   -7.99 KCAL/MOL
REMARK 923 INTER-LIGAND FREE ENERGY PREDICTED BY IDOCK:   -7.22 KCAL/MOL
REMARK 924 INTRA-LIGAND FREE ENERGY PREDICTED BY IDOCK:   -0.77 KCAL/MOL
REMARK 927      BINDING AFFINITY PREDICTED BY RF-SCORE:    0.00 PKD
ROOT
HETATM    1  C   UNL     1     -12.343  13.218  65.431  1.00  0.00    -0.528 C  
HETATM    2  C   UNL     1     -12.072  14.671  65.796  1.00  0.00    -0.201 C  
ENDROOT
BRANCH   2   3
HETATM    3  C   UNL     1     -10.673  15.108  65.367  1.00  0.00    -0.396 C  
BRANCH   3   4
HETATM    4  C   UNL     1     -10.165  16.327  66.157  1.00  0.00    -0.346 C  
BRANCH   4   5
HETATM    5  N   UNL     1      -9.164  16.009  67.202  1.00  0.00    -0.204 NA 
HETATM    6  C   UNL     1      -7.801  16.420  66.811  1.00  0.00    -0.266 C  
HETATM    7  C   UNL     1      -7.623  17.937  66.704  1.00  0.00    -0.266 C  
HETATM    8  C   UNL     1      -8.045  18.643  67.991  1.00  0.00    -0.296 C  
HETATM    9  C   UNL     1      -9.411  18.172  68.490  1.00  0.00    -0.321 C  
HETATM   10  C   UNL     1      -9.477  16.638  68.526  1.00  0.00    -0.239 C  
BRANCH  10  11
HETATM   11  C   UNL     1     -10.795  16.096  69.132  1.00  0.00    -0.298 C  
HETATM   12  N   UNL     1     -10.571  15.214  70.180  1.00  0.00    -0.459 N  
HETATM   13  O   UNL     1     -11.897  16.500  68.766  1.00  0.00    -0.104 OA 
HETATM   14  H   UNL     1      -9.599  15.086  70.465  1.00  0.00     0.000 HD 
BRANCH  12  15
HETATM   15  C   UNL     1     -11.537  14.472  70.897  1.00  0.00    -0.189 A  
HETATM   16  C   UNL     1     -12.179  14.969  72.053  1.00  0.00    -0.436 A  
HETATM   17  C   UNL     1     -11.925  16.312  72.680  1.00  0.00    -0.644 C  
HETATM   18  C   UNL     1     -13.179  14.193  72.674  1.00  0.00    -0.612 A  
HETATM   19  C   UNL     1     -13.574  12.967  72.146  1.00  0.00    -0.618 A  
HETATM   20  C   UNL     1     -12.953  12.482  71.004  1.00  0.00    -0.154 A  
HETATM   21  C   UNL     1     -11.939  13.219  70.369  1.00  0.00    -0.350 A  
HETATM   22  C   UNL     1     -11.260  12.587  69.177  1.00  0.00    -0.297 C  
ENDBRANCH  12  15
ENDBRANCH  10  11
ENDBRANCH   4   5
ENDBRANCH   3   4
ENDBRANCH   2   3
TORSDOF 5
ENDMDL
MODEL       24
REMARK 921   NORMALIZED FREE ENERGY PREDICTED BY IDOCK:   -5.43 KCAL/MOL
REMARK 922        TOTAL FREE ENERGY PREDICTED BY IDOCK:   -7.96 KCAL/MOL
REMARK 923 INTER-LIGAND FREE ENERGY PREDICTED BY IDOCK:   -7.22 KCAL/MOL
REMARK 924 INTRA-LIGAND FREE ENERGY PREDICTED BY IDOCK:   -0.75 KCAL/MOL
REMARK 927      BINDING AFFINITY PREDICTED BY RF-SCORE:    0.00 PKD
ROOT
HETATM    1  C   UNL     1      -5.573  20.725  68.771  1.00  0.00    -0.387 C  
HETATM    2  C   UNL     1      -6.487  19.730  68.069  1.00  0.00    -0.276 C  
ENDROOT
BRANCH   2   3
HETATM    3  C   UNL     1      -7.397  19.006  69.059  1.00  0.00    -0.341 C  
BRANCH   3   4
HETATM    4  C   UNL     1      -8.386  18.052  68.366  1.00  0.00    -0.298 C  
BRANCH   4   5
HETATM    5  N   UNL     1      -9.813  18.415  68.538  1.00  0.00    -0.359 NA 
HETATM    6  C   UNL     1     -10.041  19.865  68.388  1.00  0.00    -0.437 C  
HETATM    7  C   UNL     1      -9.788  20.385  66.970  1.00  0.00    -0.594 C  
HETATM    8  C   UNL     1     -10.599  19.608  65.936  1.00  0.00    -0.566 C  
HETATM    9  C   UNL     1     -10.474  18.095  66.118  1.00  0.00    -0.377 C  
HETATM   10  C   UNL     1     -10.720  17.701  67.581  1.00  0.00    -0.314 C  
BRANCH  10  11
HETATM   11  C   UNL     1     -10.721  16.170  67.811  1.00  0.00    -0.325 C  
HETATM   12  N   UNL     1     -10.281  15.468  66.697  1.00  0.00    -0.268 N  
HETATM   13  O   UNL     1     -10.992  15.673  68.903  1.00  0.00    -0.236 OA 
HETATM   14  H   UNL     1      -9.952  16.028  65.910  1.00  0.00     0.000 HD 
BRANCH  12  15
HETATM   15  C   UNL     1     -10.238  14.065  66.530  1.00  0.00    -0.279 A  
HETATM   16  C   UNL     1     -11.300  13.330  65.956  1.00  0.00    -0.329 A  
HETATM   17  C   UNL     1     -12.597  13.914  65.467  1.00  0.00    -0.560 C  
HETATM   18  C   UNL     1     -11.154  11.942  65.765  1.00  0.00    -0.367 A  
HETATM   19  C   UNL     1      -9.969  11.288  66.092  1.00  0.00    -0.268 A  
HETATM   20  C   UNL     1      -8.921  12.009  66.647  1.00  0.00    -0.204 A  
HETATM   21  C   UNL     1      -9.038  13.391  66.869  1.00  0.00    -0.237 A  
HETATM   22  C   UNL     1      -7.882  14.089  67.546  1.00  0.00    -0.197 C  
ENDBRANCH  12  15
ENDBRANCH  10  11
ENDBRANCH   4   5
ENDBRANCH   3   4
ENDBRANCH   2   3
TORSDOF 5
ENDMDL
MODEL       25
REMARK 921   NORMALIZED FREE ENERGY PREDICTED BY IDOCK:   -5.43 KCAL/MOL
REMARK 922        TOTAL FREE ENERGY PREDICTED BY IDOCK:   -7.96 KCAL/MOL
REMARK 923 INTER-LIGAND FREE ENERGY PREDICTED BY IDOCK:   -7.49 KCAL/MOL
REMARK 924 INTRA-LIGAND FREE ENERGY PREDICTED BY IDOCK:   -0.47 KCAL/MOL
REMARK 927      BINDING AFFINITY PREDICTED BY RF-SCORE:    0.00 PKD
ROOT
HETATM    1  C   UNL     1     -11.967  11.043  69.680  1.00  0.00    -0.424 C  
HETATM    2  C   UNL     1     -11.742  12.478  69.225  1.00  0.00    -0.379 C  
ENDROOT
BRANCH   2   3
HETATM    3  C   UNL     1     -10.719  12.557  68.093  1.00  0.00    -0.246 C  
BRANCH   3   4
HETATM    4  C   UNL     1     -11.199  13.433  66.922  1.00  0.00    -0.308 C  
BRANCH   4   5
HETATM    5  N   UNL     1     -10.301  13.426  65.743  1.00  0.00    -0.288 NA 
HETATM    6  C   UNL     1     -10.267  12.110  65.076  1.00  0.00    -0.283 C  
HETATM    7  C   UNL     1     -11.594  11.718  64.420  1.00  0.00    -0.325 C  
HETATM    8  C   UNL     1     -12.080  12.794  63.452  1.00  0.00    -0.619 C  
HETATM    9  C   UNL     1     -12.035  14.192  64.069  1.00  0.00    -0.359 C  
HETATM   10  C   UNL     1     -10.669  14.457  64.718  1.00  0.00    -0.403 C  
BRANCH  10  11
HETATM   11  C   UNL     1     -10.518  15.899  65.261  1.00  0.00    -0.377 C  
HETATM   12  N   UNL     1      -9.659  15.966  66.350  1.00  0.00    -0.264 N  
HETATM   13  O   UNL     1     -11.037  16.864  64.704  1.00  0.00    -0.934 OA 
HETATM   14  H   UNL     1      -9.189  15.098  66.610  1.00  0.00     0.000 HD 
BRANCH  12  15
HETATM   15  C   UNL     1      -9.363  17.100  67.139  1.00  0.00    -0.245 A  
HETATM   16  C   UNL     1      -8.279  17.963  66.860  1.00  0.00    -0.256 A  
HETATM   17  C   UNL     1      -7.304  17.797  65.727  1.00  0.00    -0.126 C  
HETATM   18  C   UNL     1      -8.089  19.111  67.656  1.00  0.00    -0.299 A  
HETATM   19  C   UNL     1      -8.971  19.431  68.684  1.00  0.00    -0.419 A  
HETATM   20  C   UNL     1     -10.043  18.591  68.953  1.00  0.00    -0.348 A  
HETATM   21  C   UNL     1     -10.253  17.429  68.192  1.00  0.00    -0.350 A  
HETATM   22  C   UNL     1     -11.395  16.527  68.597  1.00  0.00    -0.237 C  
ENDBRANCH  12  15
ENDBRANCH  10  11
ENDBRANCH   4   5
ENDBRANCH   3   4
ENDBRANCH   2   3
TORSDOF 5
ENDMDL
MODEL       26
REMARK 921   NORMALIZED FREE ENERGY PREDICTED BY IDOCK:   -5.40 KCAL/MOL
REMARK 922        TOTAL FREE ENERGY PREDICTED BY IDOCK:   -7.93 KCAL/MOL
REMARK 923 INTER-LIGAND FREE ENERGY PREDICTED BY IDOCK:   -7.14 KCAL/MOL
REMARK 924 INTRA-LIGAND FREE ENERGY PREDICTED BY IDOCK:   -0.79 KCAL/MOL
REMARK 927      BINDING AFFINITY PREDICTED BY RF-SCORE:    0.00 PKD
ROOT
HETATM    1  C   UNL     1     -10.702  10.353  68.546  1.00  0.00    -0.255 C  
HETATM    2  C   UNL     1     -11.468  10.902  69.741  1.00  0.00    -0.390 C  
ENDROOT
BRANCH   2   3
HETATM    3  C   UNL     1     -12.129  12.242  69.419  1.00  0.00    -0.234 C  
BRANCH   3   4
HETATM    4  C   UNL     1     -12.044  13.240  70.587  1.00  0.00    -0.280 C  
BRANCH   4   5
HETATM    5  N   UNL     1     -13.012  14.359  70.510  1.00  0.00    -0.303 NA 
HETATM    6  C   UNL     1     -13.951  14.362  71.648  1.00  0.00    -0.426 C  
HETATM    7  C   UNL     1     -13.286  14.659  72.995  1.00  0.00    -0.587 C  
HETATM    8  C   UNL     1     -12.494  15.965  72.953  1.00  0.00    -0.582 C  
HETATM    9  C   UNL     1     -11.580  16.049  71.730  1.00  0.00    -0.534 C  
HETATM   10  C   UNL     1     -12.352  15.704  70.449  1.00  0.00    -0.391 C  
BRANCH  10  11
HETATM   11  C   UNL     1     -11.512  15.883  69.160  1.00  0.00    -0.377 C  
HETATM   12  N   UNL     1     -10.253  16.408  69.419  1.00  0.00    -0.277 N  
HETATM   13  O   UNL     1     -11.910  15.499  68.062  1.00  0.00    -0.277 OA 
HETATM   14  H   UNL     1     -10.012  16.543  70.401  1.00  0.00     0.000 HD 
BRANCH  12  15
HETATM   15  C   UNL     1      -9.269  16.778  68.475  1.00  0.00    -0.243 A  
HETATM   16  C   UNL     1      -8.510  15.831  67.751  1.00  0.00    -0.162 A  
HETATM   17  C   UNL     1      -8.626  14.338  67.885  1.00  0.00    -0.171 C  
HETATM   18  C   UNL     1      -7.593  16.280  66.779  1.00  0.00    -0.285 A  
HETATM   19  C   UNL     1      -7.450  17.635  66.492  1.00  0.00    -0.299 A  
HETATM   20  C   UNL     1      -8.202  18.566  67.194  1.00  0.00    -0.256 A  
HETATM   21  C   UNL     1      -9.113  18.157  68.182  1.00  0.00    -0.298 A  
HETATM   22  C   UNL     1      -9.835  19.235  68.955  1.00  0.00    -0.512 C  
ENDBRANCH  12  15
ENDBRANCH  10  11
ENDBRANCH   4   5
ENDBRANCH   3   4
ENDBRANCH   2   3
TORSDOF 5
ENDMDL
MODEL       27
REMARK 921   NORMALIZED FREE ENERGY PREDICTED BY IDOCK:   -5.37 KCAL/MOL
REMARK 922        TOTAL FREE ENERGY PREDICTED BY IDOCK:   -7.89 KCAL/MOL
REMARK 923 INTER-LIGAND FREE ENERGY PREDICTED BY IDOCK:   -6.98 KCAL/MOL
REMARK 924 INTRA-LIGAND FREE ENERGY PREDICTED BY IDOCK:   -0.91 KCAL/MOL
REMARK 927      BINDING AFFINITY PREDICTED BY RF-SCORE:    0.00 PKD
ROOT
HETATM    1  C   UNL     1     -10.540  19.458  66.411  1.00  0.00    -0.558 C  
HETATM    2  C   UNL     1     -10.651  18.670  67.709  1.00  0.00    -0.433 C  
ENDROOT
BRANCH   2   3
HETATM    3  C   UNL     1     -10.414  17.178  67.483  1.00  0.00    -0.348 C  
BRANCH   3   4
HETATM    4  C   UNL     1     -11.350  16.296  68.328  1.00  0.00    -0.280 C  
BRANCH   4   5
HETATM    5  N   UNL     1     -10.689  15.610  69.464  1.00  0.00    -0.247 NA 
HETATM    6  C   UNL     1     -11.201  16.073  70.768  1.00  0.00    -0.352 C  
HETATM    7  C   UNL     1     -12.662  15.695  71.025  1.00  0.00    -0.517 C  
HETATM    8  C   UNL     1     -12.889  14.193  70.865  1.00  0.00    -0.404 C  
HETATM    9  C   UNL     1     -12.283  13.650  69.571  1.00  0.00    -0.316 C  
HETATM   10  C   UNL     1     -10.829  14.118  69.412  1.00  0.00    -0.136 C  
BRANCH  10  11
HETATM   11  C   UNL     1     -10.121  13.508  68.177  1.00  0.00    -0.250 C  
HETATM   12  N   UNL     1     -10.985  12.764  67.386  1.00  0.00    -0.246 N  
HETATM   13  O   UNL     1      -8.947  13.759  67.908  1.00  0.00    -0.175 OA 
HETATM   14  H   UNL     1     -11.967  12.766  67.662  1.00  0.00     0.000 HD 
BRANCH  12  15
HETATM   15  C   UNL     1     -10.657  12.004  66.241  1.00  0.00    -0.252 A  
HETATM   16  C   UNL     1     -10.579  12.566  64.947  1.00  0.00    -0.330 A  
HETATM   17  C   UNL     1     -10.839  14.008  64.608  1.00  0.00    -0.416 C  
HETATM   18  C   UNL     1     -10.182  11.754  63.865  1.00  0.00    -0.411 A  
HETATM   19  C   UNL     1      -9.827  10.422  64.054  1.00  0.00    -0.355 A  
HETATM   20  C   UNL     1      -9.893   9.870  65.326  1.00  0.00    -0.373 A  
HETATM   21  C   UNL     1     -10.302  10.644  66.424  1.00  0.00    -0.291 A  
HETATM   22  C   UNL     1     -10.421   9.950  67.760  1.00  0.00    -0.292 C  
ENDBRANCH  12  15
ENDBRANCH  10  11
ENDBRANCH   4   5
ENDBRANCH   3   4
ENDBRANCH   2   3
TORSDOF 5
ENDMDL
MODEL       28
REMARK 921   NORMALIZED FREE ENERGY PREDICTED BY IDOCK:   -5.36 KCAL/MOL
REMARK 922        TOTAL FREE ENERGY PREDICTED BY IDOCK:   -7.88 KCAL/MOL
REMARK 923 INTER-LIGAND FREE ENERGY PREDICTED BY IDOCK:   -7.27 KCAL/MOL
REMARK 924 INTRA-LIGAND FREE ENERGY PREDICTED BY IDOCK:   -0.61 KCAL/MOL
REMARK 927      BINDING AFFINITY PREDICTED BY RF-SCORE:    0.00 PKD
ROOT
HETATM    1  C   UNL     1      -9.431  10.598  62.923  1.00  0.00    -0.367 C  
HETATM    2  C   UNL     1     -10.274  11.157  64.061  1.00  0.00    -0.419 C  
ENDROOT
BRANCH   2   3
HETATM    3  C   UNL     1     -10.699  12.599  63.791  1.00  0.00    -0.454 C  
BRANCH   3   4
HETATM    4  C   UNL     1     -10.338  13.549  64.947  1.00  0.00    -0.377 C  
BRANCH   4   5
HETATM    5  N   UNL     1     -11.505  14.140  65.643  1.00  0.00    -0.318 NA 
HETATM    6  C   UNL     1     -12.405  13.110  66.196  1.00  0.00    -0.315 C  
HETATM    7  C   UNL     1     -11.783  12.296  67.334  1.00  0.00    -0.405 C  
HETATM    8  C   UNL     1     -11.258  13.200  68.448  1.00  0.00    -0.305 C  
HETATM    9  C   UNL     1     -10.401  14.346  67.909  1.00  0.00    -0.232 C  
HETATM   10  C   UNL     1     -11.118  15.066  66.757  1.00  0.00    -0.326 C  
BRANCH  10  11
HETATM   11  C   UNL     1     -10.353  16.310  66.243  1.00  0.00    -0.326 C  
HETATM   12  N   UNL     1      -9.507  16.845  67.204  1.00  0.00    -0.233 N  
HETATM   13  O   UNL     1     -10.437  16.692  65.077  1.00  0.00    -0.664 OA 
HETATM   14  H   UNL     1      -9.437  16.330  68.083  1.00  0.00     0.000 HD 
BRANCH  12  15
HETATM   15  C   UNL     1      -8.732  18.022  67.104  1.00  0.00    -0.243 A  
HETATM   16  C   UNL     1      -9.298  19.316  67.141  1.00  0.00    -0.373 A  
HETATM   17  C   UNL     1     -10.765  19.620  67.275  1.00  0.00    -0.583 C  
HETATM   18  C   UNL     1      -8.451  20.442  67.100  1.00  0.00    -0.393 A  
HETATM   19  C   UNL     1      -7.066  20.303  67.065  1.00  0.00    -0.309 A  
HETATM   20  C   UNL     1      -6.507  19.033  67.039  1.00  0.00    -0.198 A  
HETATM   21  C   UNL     1      -7.321  17.888  67.060  1.00  0.00    -0.218 A  
HETATM   22  C   UNL     1      -6.639  16.545  66.951  1.00  0.00    -0.212 C  
ENDBRANCH  12  15
ENDBRANCH  10  11
ENDBRANCH   4   5
ENDBRANCH   3   4
ENDBRANCH   2   3
TORSDOF 5
ENDMDL
MODEL       29
REMARK 921   NORMALIZED FREE ENERGY PREDICTED BY IDOCK:   -5.35 KCAL/MOL
REMARK 922        TOTAL FREE ENERGY PREDICTED BY IDOCK:   -7.86 KCAL/MOL
REMARK 923 INTER-LIGAND FREE ENERGY PREDICTED BY IDOCK:   -6.90 KCAL/MOL
REMARK 924 INTRA-LIGAND FREE ENERGY PREDICTED BY IDOCK:   -0.96 KCAL/MOL
REMARK 927      BINDING AFFINITY PREDICTED BY RF-SCORE:    0.00 PKD
ROOT
HETATM    1  C   UNL     1     -12.285  15.112  70.084  1.00  0.00    -0.395 C  
HETATM    2  C   UNL     1     -11.290  14.728  68.997  1.00  0.00    -0.295 C  
ENDROOT
BRANCH   2   3
HETATM    3  C   UNL     1     -11.994  14.387  67.685  1.00  0.00    -0.378 C  
BRANCH   3   4
HETATM    4  C   UNL     1     -11.146  13.479  66.776  1.00  0.00    -0.299 C  
BRANCH   4   5
HETATM    5  N   UNL     1     -11.879  12.326  66.202  1.00  0.00    -0.574 NA 
HETATM    6  C   UNL     1     -12.621  12.691  64.980  1.00  0.00    -0.430 C  
HETATM    7  C   UNL     1     -11.718  13.064  63.801  1.00  0.00    -0.547 C  
HETATM    8  C   UNL     1     -10.704  11.962  63.501  1.00  0.00    -0.504 C  
HETATM    9  C   UNL     1      -9.982  11.480  64.760  1.00  0.00    -0.304 C  
HETATM   10  C   UNL     1     -10.988  11.166  65.877  1.00  0.00    -0.103 C  
BRANCH  10  11
HETATM   11  C   UNL     1     -10.329  10.563  67.142  1.00  0.00    -0.235 C  
HETATM   12  N   UNL     1     -11.233   9.853  67.920  1.00  0.00    -0.509 N  
HETATM   13  O   UNL     1      -9.120  10.641  67.349  1.00  0.00    -0.139 OA 
HETATM   14  H   UNL     1     -12.176   9.755  67.543  1.00  0.00     0.000 HD 
BRANCH  12  15
HETATM   15  C   UNL     1     -10.994   9.251  69.177  1.00  0.00    -0.060 A  
HETATM   16  C   UNL     1     -10.359   7.996  69.315  1.00  0.00    -0.224 A  
HETATM   17  C   UNL     1      -9.874   7.138  68.180  1.00  0.00    -0.157 C  
HETATM   18  C   UNL     1     -10.098   7.494  70.606  1.00  0.00    -0.187 A  
HETATM   19  C   UNL     1     -10.417   8.228  71.745  1.00  0.00    -0.325 A  
HETATM   20  C   UNL     1     -11.030   9.466  71.611  1.00  0.00    -0.382 A  
HETATM   21  C   UNL     1     -11.322   9.990  70.341  1.00  0.00    -0.392 A  
HETATM   22  C   UNL     1     -12.060  11.306  70.283  1.00  0.00    -0.459 C  
ENDBRANCH  12  15
ENDBRANCH  10  11
ENDBRANCH   4   5
ENDBRANCH   3   4
ENDBRANCH   2   3
TORSDOF 5
ENDMDL
MODEL       30
REMARK 921   NORMALIZED FREE ENERGY PREDICTED BY IDOCK:   -5.35 KCAL/MOL
REMARK 922        TOTAL FREE ENERGY PREDICTED BY IDOCK:   -7.86 KCAL/MOL
REMARK 923 INTER-LIGAND FREE ENERGY PREDICTED BY IDOCK:   -7.00 KCAL/MOL
REMARK 924 INTRA-LIGAND FREE ENERGY PREDICTED BY IDOCK:   -0.86 KCAL/MOL
REMARK 927      BINDING AFFINITY PREDICTED BY RF-SCORE:    0.00 PKD
ROOT
HETATM    1  C   UNL     1     -12.636  11.995  63.333  1.00  0.00    -0.592 C  
HETATM    2  C   UNL     1     -11.143  12.248  63.495  1.00  0.00    -0.533 C  
ENDROOT
BRANCH   2   3
HETATM    3  C   UNL     1     -10.605  11.630  64.784  1.00  0.00    -0.358 C  
BRANCH   3   4
HETATM    4  C   UNL     1     -11.238  12.246  66.045  1.00  0.00    -0.332 C  
BRANCH   4   5
HETATM    5  N   UNL     1     -10.279  12.521  67.142  1.00  0.00    -0.217 NA 
HETATM    6  C   UNL     1      -9.605  13.824  66.979  1.00  0.00    -0.251 C  
HETATM    7  C   UNL     1     -10.545  15.024  67.121  1.00  0.00    -0.295 C  
HETATM    8  C   UNL     1     -11.314  14.981  68.440  1.00  0.00    -0.323 C  
HETATM    9  C   UNL     1     -11.945  13.613  68.699  1.00  0.00    -0.395 C  
HETATM   10  C   UNL     1     -10.915  12.492  68.499  1.00  0.00    -0.249 C  
BRANCH  10  11
HETATM   11  C   UNL     1     -11.460  11.088  68.858  1.00  0.00    -0.296 C  
HETATM   12  N   UNL     1     -10.449  10.146  68.986  1.00  0.00    -0.206 N  
HETATM   13  O   UNL     1     -12.651  10.890  69.093  1.00  0.00    -0.361 OA 
HETATM   14  H   UNL     1      -9.493  10.493  68.902  1.00  0.00     0.000 HD 
BRANCH  12  15
HETATM   15  C   UNL     1     -10.595   8.760  69.219  1.00  0.00    -0.197 A  
HETATM   16  C   UNL     1     -10.883   8.225  70.495  1.00  0.00    -0.245 A  
HETATM   17  C   UNL     1     -11.056   9.027  71.755  1.00  0.00    -0.444 C  
HETATM   18  C   UNL     1     -11.077   6.836  70.633  1.00  0.00    -0.338 A  
HETATM   19  C   UNL     1     -11.032   5.987  69.530  1.00  0.00    -0.467 A  
HETATM   20  C   UNL     1     -10.760   6.511  68.274  1.00  0.00    -0.341 A  
HETATM   21  C   UNL     1     -10.542   7.888  68.102  1.00  0.00    -0.179 A  
HETATM   22  C   UNL     1     -10.176   8.368  66.718  1.00  0.00    -0.376 C  
ENDBRANCH  12  15
ENDBRANCH  10  11
ENDBRANCH   4   5
ENDBRANCH   3   4
ENDBRANCH   2   3
TORSDOF 5
ENDMDL
MODEL       31
REMARK 921   NORMALIZED FREE ENERGY PREDICTED BY IDOCK:   -5.33 KCAL/MOL
REMARK 922        TOTAL FREE ENERGY PREDICTED BY IDOCK:   -7.84 KCAL/MOL
REMARK 923 INTER-LIGAND FREE ENERGY PREDICTED BY IDOCK:   -6.92 KCAL/MOL
REMARK 924 INTRA-LIGAND FREE ENERGY PREDICTED BY IDOCK:   -0.92 KCAL/MOL
REMARK 927      BINDING AFFINITY PREDICTED BY RF-SCORE:    0.00 PKD
ROOT
HETATM    1  C   UNL     1     -11.705   6.478  70.828  1.00  0.00    -0.427 C  
HETATM    2  C   UNL     1     -11.181   6.522  69.399  1.00  0.00    -0.418 C  
ENDROOT
BRANCH   2   3
HETATM    3  C   UNL     1     -10.050   7.538  69.246  1.00  0.00    -0.188 C  
BRANCH   3   4
HETATM    4  C   UNL     1     -10.284   8.513  68.078  1.00  0.00    -0.213 C  
BRANCH   4   5
HETATM    5  N   UNL     1      -9.321   9.638  68.015  1.00  0.00    -0.132 NA 
HETATM    6  C   UNL     1      -8.047   9.245  67.381  1.00  0.00    -0.110 C  
HETATM    7  C   UNL     1      -8.179   8.904  65.894  1.00  0.00    -0.119 C  
HETATM    8  C   UNL     1      -8.835  10.042  65.115  1.00  0.00    -0.207 C  
HETATM    9  C   UNL     1     -10.107  10.551  65.791  1.00  0.00    -0.329 C  
HETATM   10  C   UNL     1      -9.858  10.829  67.280  1.00  0.00    -0.179 C  
BRANCH  10  11
HETATM   11  C   UNL     1     -11.078  11.457  67.999  1.00  0.00    -0.257 C  
HETATM   12  N   UNL     1     -10.784  11.839  69.301  1.00  0.00    -0.424 N  
HETATM   13  O   UNL     1     -12.141  11.667  67.419  1.00  0.00    -0.605 OA 
HETATM   14  H   UNL     1      -9.814  11.731  69.597  1.00  0.00     0.000 HD 
BRANCH  12  15
HETATM   15  C   UNL     1     -11.679  12.361  70.263  1.00  0.00    -0.123 A  
HETATM   16  C   UNL     1     -12.036  13.727  70.313  1.00  0.00    -0.425 A  
HETATM   17  C   UNL     1     -11.521  14.795  69.389  1.00  0.00    -0.330 C  
HETATM   18  C   UNL     1     -12.986  14.157  71.262  1.00  0.00    -0.426 A  
HETATM   19  C   UNL     1     -13.607  13.256  72.122  1.00  0.00    -0.655 A  
HETATM   20  C   UNL     1     -13.266  11.912  72.067  1.00  0.00    -0.461 A  
HETATM   21  C   UNL     1     -12.310  11.450  71.147  1.00  0.00    -0.404 A  
HETATM   22  C   UNL     1     -11.938   9.987  71.203  1.00  0.00    -0.484 C  
ENDBRANCH  12  15
ENDBRANCH  10  11
ENDBRANCH   4   5
ENDBRANCH   3   4
ENDBRANCH   2   3
TORSDOF 5
ENDMDL
MODEL       32
REMARK 921   NORMALIZED FREE ENERGY PREDICTED BY IDOCK:   -5.29 KCAL/MOL
REMARK 922        TOTAL FREE ENERGY PREDICTED BY IDOCK:   -7.78 KCAL/MOL
REMARK 923 INTER-LIGAND FREE ENERGY PREDICTED BY IDOCK:   -7.11 KCAL/MOL
REMARK 924 INTRA-LIGAND FREE ENERGY PREDICTED BY IDOCK:   -0.67 KCAL/MOL
REMARK 927      BINDING AFFINITY PREDICTED BY RF-SCORE:    0.00 PKD
ROOT
HETATM    1  C   UNL     1     -10.848  12.049  63.881  1.00  0.00    -0.457 C  
HETATM    2  C   UNL     1     -12.088  12.870  63.556  1.00  0.00    -0.633 C  
ENDROOT
BRANCH   2   3
HETATM    3  C   UNL     1     -12.042  14.245  64.219  1.00  0.00    -0.467 C  
BRANCH   3   4
HETATM    4  C   UNL     1     -10.841  14.405  65.167  1.00  0.00    -0.386 C  
BRANCH   4   5
HETATM    5  N   UNL     1     -11.203  14.724  66.569  1.00  0.00    -0.340 NA 
HETATM    6  C   UNL     1     -12.114  13.720  67.151  1.00  0.00    -0.378 C  
HETATM    7  C   UNL     1     -11.474  12.341  67.334  1.00  0.00    -0.422 C  
HETATM    8  C   UNL     1     -10.183  12.426  68.146  1.00  0.00    -0.225 C  
HETATM    9  C   UNL     1      -9.250  13.526  67.639  1.00  0.00    -0.214 C  
HETATM   10  C   UNL     1     -10.011  14.849  67.469  1.00  0.00    -0.219 C  
BRANCH  10  11
HETATM   11  C   UNL     1      -9.098  16.033  67.068  1.00  0.00    -0.214 C  
HETATM   12  N   UNL     1      -9.168  17.084  67.972  1.00  0.00    -0.236 N  
HETATM   13  O   UNL     1      -8.336  15.973  66.105  1.00  0.00    -0.307 OA 
HETATM   14  H   UNL     1      -9.739  16.929  68.804  1.00  0.00     0.000 HD 
BRANCH  12  15
HETATM   15  C   UNL     1      -8.539  18.345  67.871  1.00  0.00    -0.272 A  
HETATM   16  C   UNL     1      -7.185  18.555  68.218  1.00  0.00    -0.279 A  
HETATM   17  C   UNL     1      -6.250  17.502  68.744  1.00  0.00    -0.188 C  
HETATM   18  C   UNL     1      -6.613  19.828  68.026  1.00  0.00    -0.284 A  
HETATM   19  C   UNL     1      -7.344  20.872  67.464  1.00  0.00    -0.334 A  
HETATM   20  C   UNL     1      -8.670  20.665  67.112  1.00  0.00    -0.313 A  
HETATM   21  C   UNL     1      -9.279  19.414  67.306  1.00  0.00    -0.378 A  
HETATM   22  C   UNL     1     -10.746  19.294  66.969  1.00  0.00    -0.565 C  
ENDBRANCH  12  15
ENDBRANCH  10  11
ENDBRANCH   4   5
ENDBRANCH   3   4
ENDBRANCH   2   3
TORSDOF 5
ENDMDL
MODEL       33
REMARK 921   NORMALIZED FREE ENERGY PREDICTED BY IDOCK:   -5.28 KCAL/MOL
REMARK 922        TOTAL FREE ENERGY PREDICTED BY IDOCK:   -7.78 KCAL/MOL
REMARK 923 INTER-LIGAND FREE ENERGY PREDICTED BY IDOCK:   -7.00 KCAL/MOL
REMARK 924 INTRA-LIGAND FREE ENERGY PREDICTED BY IDOCK:   -0.78 KCAL/MOL
REMARK 927      BINDING AFFINITY PREDICTED BY RF-SCORE:    0.00 PKD
ROOT
HETATM    1  C   UNL     1     -13.748  13.482  72.251  1.00  0.00    -0.700 C  
HETATM    2  C   UNL     1     -12.863  12.463  71.546  1.00  0.00    -0.377 C  
ENDROOT
BRANCH   2   3
HETATM    3  C   UNL     1     -13.257  11.032  71.906  1.00  0.00    -0.503 C  
BRANCH   3   4
HETATM    4  C   UNL     1     -12.623   9.989  70.968  1.00  0.00    -0.367 C  
BRANCH   4   5
HETATM    5  N   UNL     1     -11.378   9.373  71.487  1.00  0.00    -0.379 NA 
HETATM    6  C   UNL     1     -11.646   8.388  72.552  1.00  0.00    -0.356 C  
HETATM    7  C   UNL     1     -12.394   7.144  72.066  1.00  0.00    -0.298 C  
HETATM    8  C   UNL     1     -11.674   6.479  70.894  1.00  0.00    -0.416 C  
HETATM    9  C   UNL     1     -11.285   7.483  69.809  1.00  0.00    -0.072 C  
HETATM   10  C   UNL     1     -10.570   8.696  70.421  1.00  0.00    -0.220 C  
BRANCH  10  11
HETATM   11  C   UNL     1     -10.046   9.697  69.362  1.00  0.00    -0.203 C  
HETATM   12  N   UNL     1     -10.804   9.680  68.199  1.00  0.00    -0.413 N  
HETATM   13  O   UNL     1      -9.123  10.474  69.597  1.00  0.00    -0.111 OA 
HETATM   14  H   UNL     1     -11.631   9.082  68.206  1.00  0.00     0.000 HD 
BRANCH  12  15
HETATM   15  C   UNL     1     -10.559  10.397  67.006  1.00  0.00    -0.245 A  
HETATM   16  C   UNL     1      -9.888   9.831  65.898  1.00  0.00    -0.352 A  
HETATM   17  C   UNL     1      -9.340   8.433  65.834  1.00  0.00    -0.205 C  
HETATM   18  C   UNL     1      -9.740  10.591  64.720  1.00  0.00    -0.365 A  
HETATM   19  C   UNL     1     -10.277  11.871  64.613  1.00  0.00    -0.316 A  
HETATM   20  C   UNL     1     -10.946  12.424  65.696  1.00  0.00    -0.321 A  
HETATM   21  C   UNL     1     -11.097  11.704  66.893  1.00  0.00    -0.365 A  
HETATM   22  C   UNL     1     -11.769  12.405  68.049  1.00  0.00    -0.414 C  
ENDBRANCH  12  15
ENDBRANCH  10  11
ENDBRANCH   4   5
ENDBRANCH   3   4
ENDBRANCH   2   3
TORSDOF 5
ENDMDL
MODEL       34
REMARK 921   NORMALIZED FREE ENERGY PREDICTED BY IDOCK:   -5.23 KCAL/MOL
REMARK 922        TOTAL FREE ENERGY PREDICTED BY IDOCK:   -7.71 KCAL/MOL
REMARK 923 INTER-LIGAND FREE ENERGY PREDICTED BY IDOCK:   -6.79 KCAL/MOL
REMARK 924 INTRA-LIGAND FREE ENERGY PREDICTED BY IDOCK:   -0.92 KCAL/MOL
REMARK 927      BINDING AFFINITY PREDICTED BY RF-SCORE:    0.00 PKD
ROOT
HETATM    1  C   UNL     1     -11.642   6.433  70.670  1.00  0.00    -0.412 C  
HETATM    2  C   UNL     1     -11.090   6.469  69.252  1.00  0.00    -0.393 C  
ENDROOT
BRANCH   2   3
HETATM    3  C   UNL     1      -9.966   7.493  69.111  1.00  0.00    -0.179 C  
BRANCH   3   4
HETATM    4  C   UNL     1     -10.223   8.502  67.977  1.00  0.00    -0.213 C  
BRANCH   4   5
HETATM    5  N   UNL     1      -9.282   9.647  67.949  1.00  0.00    -0.125 NA 
HETATM    6  C   UNL     1      -7.973   9.278  67.376  1.00  0.00    -0.106 C  
HETATM    7  C   UNL     1      -8.030   8.925  65.887  1.00  0.00    -0.107 C  
HETATM    8  C   UNL     1      -8.674  10.044  65.071  1.00  0.00    -0.192 C  
HETATM    9  C   UNL     1      -9.987  10.529  65.686  1.00  0.00    -0.332 C  
HETATM   10  C   UNL     1      -9.810  10.822  67.183  1.00  0.00    -0.185 C  
BRANCH  10  11
HETATM   11  C   UNL     1     -11.074  11.427  67.842  1.00  0.00    -0.261 C  
HETATM   12  N   UNL     1     -10.852  11.812  69.157  1.00  0.00    -0.360 N  
HETATM   13  O   UNL     1     -12.111  11.621  67.210  1.00  0.00    -0.595 OA 
HETATM   14  H   UNL     1      -9.895  11.720  69.500  1.00  0.00     0.000 HD 
BRANCH  12  15
HETATM   15  C   UNL     1     -11.802  12.316  70.074  1.00  0.00    -0.296 A  
HETATM   16  C   UNL     1     -12.515  11.487  70.969  1.00  0.00    -0.458 A  
HETATM   17  C   UNL     1     -12.384   9.992  71.062  1.00  0.00    -0.458 C  
HETATM   18  C   UNL     1     -13.398  12.074  71.898  1.00  0.00    -0.408 A  
HETATM   19  C   UNL     1     -13.548  13.456  71.978  1.00  0.00    -0.577 A  
HETATM   20  C   UNL     1     -12.840  14.272  71.107  1.00  0.00    -0.429 A  
HETATM   21  C   UNL     1     -11.966  13.722  70.156  1.00  0.00    -0.404 A  
HETATM   22  C   UNL     1     -11.292  14.672  69.195  1.00  0.00    -0.305 C  
ENDBRANCH  12  15
ENDBRANCH  10  11
ENDBRANCH   4   5
ENDBRANCH   3   4
ENDBRANCH   2   3
TORSDOF 5
ENDMDL
MODEL       35
REMARK 921   NORMALIZED FREE ENERGY PREDICTED BY IDOCK:   -5.23 KCAL/MOL
REMARK 922        TOTAL FREE ENERGY PREDICTED BY IDOCK:   -7.71 KCAL/MOL
REMARK 923 INTER-LIGAND FREE ENERGY PREDICTED BY IDOCK:   -7.12 KCAL/MOL
REMARK 924 INTRA-LIGAND FREE ENERGY PREDICTED BY IDOCK:   -0.59 KCAL/MOL
REMARK 927      BINDING AFFINITY PREDICTED BY RF-SCORE:    0.00 PKD
ROOT
HETATM    1  C   UNL     1     -13.659  15.298  71.318  1.00  0.00    -0.584 C  
HETATM    2  C   UNL     1     -12.347  15.322  70.545  1.00  0.00    -0.434 C  
ENDROOT
BRANCH   2   3
HETATM    3  C   UNL     1     -12.202  14.096  69.645  1.00  0.00    -0.376 C  
BRANCH   3   4
HETATM    4  C   UNL     1     -12.155  14.462  68.151  1.00  0.00    -0.223 C  
BRANCH   4   5
HETATM    5  N   UNL     1     -11.062  13.808  67.392  1.00  0.00    -0.290 NA 
HETATM    6  C   UNL     1     -11.547  12.672  66.585  1.00  0.00    -0.381 C  
HETATM    7  C   UNL     1     -12.476  13.082  65.440  1.00  0.00    -0.531 C  
HETATM    8  C   UNL     1     -11.829  14.136  64.543  1.00  0.00    -0.451 C  
HETATM    9  C   UNL     1     -11.222  15.286  65.346  1.00  0.00    -0.307 C  
HETATM   10  C   UNL     1     -10.336  14.750  66.480  1.00  0.00    -0.286 C  
BRANCH  10  11
HETATM   11  C   UNL     1      -9.598  15.865  67.260  1.00  0.00    -0.217 C  
HETATM   12  N   UNL     1      -9.335  16.977  66.471  1.00  0.00    -0.258 N  
HETATM   13  O   UNL     1      -9.375  15.781  68.466  1.00  0.00    -0.188 OA 
HETATM   14  H   UNL     1      -9.710  16.958  65.523  1.00  0.00     0.000 HD 
BRANCH  12  15
HETATM   15  C   UNL     1      -8.607  18.132  66.835  1.00  0.00    -0.258 A  
HETATM   16  C   UNL     1      -7.197  18.150  66.926  1.00  0.00    -0.229 A  
HETATM   17  C   UNL     1      -6.294  16.974  66.672  1.00  0.00    -0.247 C  
HETATM   18  C   UNL     1      -6.540  19.359  67.231  1.00  0.00    -0.204 A  
HETATM   19  C   UNL     1      -7.251  20.544  67.403  1.00  0.00    -0.370 A  
HETATM   20  C   UNL     1      -8.635  20.531  67.303  1.00  0.00    -0.372 A  
HETATM   21  C   UNL     1      -9.325  19.341  67.019  1.00  0.00    -0.373 A  
HETATM   22  C   UNL     1     -10.834  19.396  67.004  1.00  0.00    -0.540 C  
ENDBRANCH  12  15
ENDBRANCH  10  11
ENDBRANCH   4   5
ENDBRANCH   3   4
ENDBRANCH   2   3
TORSDOF 5
ENDMDL
MODEL       36
REMARK 921   NORMALIZED FREE ENERGY PREDICTED BY IDOCK:   -5.20 KCAL/MOL
REMARK 922        TOTAL FREE ENERGY PREDICTED BY IDOCK:   -7.67 KCAL/MOL
REMARK 923 INTER-LIGAND FREE ENERGY PREDICTED BY IDOCK:   -7.01 KCAL/MOL
REMARK 924 INTRA-LIGAND FREE ENERGY PREDICTED BY IDOCK:   -0.66 KCAL/MOL
REMARK 927      BINDING AFFINITY PREDICTED BY RF-SCORE:    0.00 PKD
ROOT
HETATM    1  C   UNL     1     -10.109   8.835  66.611  1.00  0.00    -0.358 C  
HETATM    2  C   UNL     1     -10.669  10.054  67.331  1.00  0.00    -0.336 C  
ENDROOT
BRANCH   2   3
HETATM    3  C   UNL     1      -9.820  11.298  67.076  1.00  0.00    -0.217 C  
BRANCH   3   4
HETATM    4  C   UNL     1     -10.651  12.486  66.562  1.00  0.00    -0.242 C  
BRANCH   4   5
HETATM    5  N   UNL     1     -10.093  13.152  65.361  1.00  0.00    -0.276 NA 
HETATM    6  C   UNL     1     -10.223  12.319  64.150  1.00  0.00    -0.349 C  
HETATM    7  C   UNL     1     -11.672  12.104  63.704  1.00  0.00    -0.588 C  
HETATM    8  C   UNL     1     -12.404  13.432  63.519  1.00  0.00    -0.398 C  
HETATM    9  C   UNL     1     -12.211  14.371  64.710  1.00  0.00    -0.458 C  
HETATM   10  C   UNL     1     -10.725  14.482  65.080  1.00  0.00    -0.427 C  
BRANCH  10  11
HETATM   11  C   UNL     1     -10.450  15.509  66.206  1.00  0.00    -0.307 C  
HETATM   12  N   UNL     1      -9.383  16.346  65.908  1.00  0.00    -0.283 N  
HETATM   13  O   UNL     1     -11.177  15.607  67.193  1.00  0.00    -0.269 OA 
HETATM   14  H   UNL     1      -8.966  16.237  64.983  1.00  0.00     0.000 HD 
BRANCH  12  15
HETATM   15  C   UNL     1      -8.809  17.332  66.743  1.00  0.00    -0.247 A  
HETATM   16  C   UNL     1      -9.293  18.658  66.804  1.00  0.00    -0.312 A  
HETATM   17  C   UNL     1     -10.445  19.201  66.003  1.00  0.00    -0.546 C  
HETATM   18  C   UNL     1      -8.708  19.565  67.710  1.00  0.00    -0.364 A  
HETATM   19  C   UNL     1      -7.690  19.168  68.573  1.00  0.00    -0.376 A  
HETATM   20  C   UNL     1      -7.221  17.863  68.523  1.00  0.00    -0.261 A  
HETATM   21  C   UNL     1      -7.768  16.937  67.620  1.00  0.00    -0.179 A  
HETATM   22  C   UNL     1      -7.149  15.560  67.573  1.00  0.00    -0.220 C  
ENDBRANCH  12  15
ENDBRANCH  10  11
ENDBRANCH   4   5
ENDBRANCH   3   4
ENDBRANCH   2   3
TORSDOF 5
ENDMDL
MODEL       37
REMARK 921   NORMALIZED FREE ENERGY PREDICTED BY IDOCK:   -5.20 KCAL/MOL
REMARK 922        TOTAL FREE ENERGY PREDICTED BY IDOCK:   -7.66 KCAL/MOL
REMARK 923 INTER-LIGAND FREE ENERGY PREDICTED BY IDOCK:   -6.88 KCAL/MOL
REMARK 924 INTRA-LIGAND FREE ENERGY PREDICTED BY IDOCK:   -0.78 KCAL/MOL
REMARK 927      BINDING AFFINITY PREDICTED BY RF-SCORE:    0.00 PKD
ROOT
HETATM    1  C   UNL     1      -5.325  16.470  68.448  1.00  0.00    -0.113 C  
HETATM    2  C   UNL     1      -6.206  17.049  69.547  1.00  0.00    -0.237 C  
ENDROOT
BRANCH   2   3
HETATM    3  C   UNL     1      -7.116  18.154  69.016  1.00  0.00    -0.244 C  
BRANCH   3   4
HETATM    4  C   UNL     1      -8.228  17.616  68.099  1.00  0.00    -0.257 C  
BRANCH   4   5
HETATM    5  N   UNL     1      -9.596  18.047  68.473  1.00  0.00    -0.323 NA 
HETATM    6  C   UNL     1      -9.696  19.512  68.623  1.00  0.00    -0.433 C  
HETATM    7  C   UNL     1      -9.510  20.279  67.310  1.00  0.00    -0.557 C  
HETATM    8  C   UNL     1     -10.471  19.785  66.231  1.00  0.00    -0.614 C  
HETATM    9  C   UNL     1     -10.475  18.261  66.112  1.00  0.00    -0.403 C  
HETATM   10  C   UNL     1     -10.640  17.607  67.491  1.00  0.00    -0.343 C  
BRANCH  10  11
HETATM   11  C   UNL     1     -10.768  16.066  67.428  1.00  0.00    -0.306 C  
HETATM   12  N   UNL     1     -10.273  15.543  66.241  1.00  0.00    -0.279 N  
HETATM   13  O   UNL     1     -11.175  15.404  68.381  1.00  0.00    -0.283 OA 
HETATM   14  H   UNL     1      -9.833  16.207  65.602  1.00  0.00     0.000 HD 
BRANCH  12  15
HETATM   15  C   UNL     1     -10.311  14.196  65.816  1.00  0.00    -0.325 A  
HETATM   16  C   UNL     1      -9.452  13.204  66.342  1.00  0.00    -0.226 A  
HETATM   17  C   UNL     1      -8.395  13.435  67.386  1.00  0.00    -0.193 C  
HETATM   18  C   UNL     1      -9.596  11.869  65.913  1.00  0.00    -0.248 A  
HETATM   19  C   UNL     1     -10.594  11.502  65.015  1.00  0.00    -0.354 A  
HETATM   20  C   UNL     1     -11.446  12.473  64.506  1.00  0.00    -0.391 A  
HETATM   21  C   UNL     1     -11.320  13.816  64.896  1.00  0.00    -0.353 A  
HETATM   22  C   UNL     1     -12.235  14.822  64.238  1.00  0.00    -0.402 C  
ENDBRANCH  12  15
ENDBRANCH  10  11
ENDBRANCH   4   5
ENDBRANCH   3   4
ENDBRANCH   2   3
TORSDOF 5
ENDMDL
MODEL       38
REMARK 921   NORMALIZED FREE ENERGY PREDICTED BY IDOCK:   -5.19 KCAL/MOL
REMARK 922        TOTAL FREE ENERGY PREDICTED BY IDOCK:   -7.66 KCAL/MOL
REMARK 923 INTER-LIGAND FREE ENERGY PREDICTED BY IDOCK:   -6.74 KCAL/MOL
REMARK 924 INTRA-LIGAND FREE ENERGY PREDICTED BY IDOCK:   -0.92 KCAL/MOL
REMARK 927      BINDING AFFINITY PREDICTED BY RF-SCORE:    0.00 PKD
ROOT
HETATM    1  C   UNL     1     -12.352  11.910  63.545  1.00  0.00    -0.603 C  
HETATM    2  C   UNL     1     -12.122  13.404  63.729  1.00  0.00    -0.516 C  
ENDROOT
BRANCH   2   3
HETATM    3  C   UNL     1     -12.654  13.894  65.074  1.00  0.00    -0.422 C  
BRANCH   3   4
HETATM    4  C   UNL     1     -11.538  14.416  65.997  1.00  0.00    -0.363 C  
BRANCH   4   5
HETATM    5  N   UNL     1     -11.633  13.949  67.400  1.00  0.00    -0.347 NA 
HETATM    6  C   UNL     1     -11.822  12.488  67.490  1.00  0.00    -0.323 C  
HETATM    7  C   UNL     1     -10.615  11.681  67.006  1.00  0.00    -0.272 C  
HETATM    8  C   UNL     1      -9.335  12.098  67.729  1.00  0.00    -0.193 C  
HETATM    9  C   UNL     1      -9.150  13.615  67.749  1.00  0.00    -0.199 C  
HETATM   10  C   UNL     1     -10.433  14.314  68.223  1.00  0.00    -0.247 C  
BRANCH  10  11
HETATM   11  C   UNL     1     -10.276  15.846  68.377  1.00  0.00    -0.226 C  
HETATM   12  N   UNL     1      -9.211  16.345  67.638  1.00  0.00    -0.199 N  
HETATM   13  O   UNL     1     -11.081  16.525  69.011  1.00  0.00    -0.319 OA 
HETATM   14  H   UNL     1      -8.719  15.676  67.044  1.00  0.00     0.000 HD 
BRANCH  12  15
HETATM   15  C   UNL     1      -8.732  17.674  67.616  1.00  0.00    -0.232 A  
HETATM   16  C   UNL     1      -9.354  18.699  66.868  1.00  0.00    -0.308 A  
HETATM   17  C   UNL     1     -10.571  18.527  66.002  1.00  0.00    -0.368 C  
HETATM   18  C   UNL     1      -8.853  20.014  66.950  1.00  0.00    -0.433 A  
HETATM   19  C   UNL     1      -7.784  20.329  67.784  1.00  0.00    -0.297 A  
HETATM   20  C   UNL     1      -7.178  19.326  68.528  1.00  0.00    -0.349 A  
HETATM   21  C   UNL     1      -7.639  18.001  68.457  1.00  0.00    -0.296 A  
HETATM   22  C   UNL     1      -6.877  16.956  69.237  1.00  0.00    -0.228 C  
ENDBRANCH  12  15
ENDBRANCH  10  11
ENDBRANCH   4   5
ENDBRANCH   3   4
ENDBRANCH   2   3
TORSDOF 5
ENDMDL
MODEL       39
REMARK 921   NORMALIZED FREE ENERGY PREDICTED BY IDOCK:   -5.18 KCAL/MOL
REMARK 922        TOTAL FREE ENERGY PREDICTED BY IDOCK:   -7.65 KCAL/MOL
REMARK 923 INTER-LIGAND FREE ENERGY PREDICTED BY IDOCK:   -7.33 KCAL/MOL
REMARK 924 INTRA-LIGAND FREE ENERGY PREDICTED BY IDOCK:   -0.31 KCAL/MOL
REMARK 927      BINDING AFFINITY PREDICTED BY RF-SCORE:    0.00 PKD
ROOT
HETATM    1  C   UNL     1     -10.700  19.710  66.175  1.00  0.00    -0.520 C  
HETATM    2  C   UNL     1      -9.853  20.410  67.230  1.00  0.00    -0.597 C  
ENDROOT
BRANCH   2   3
HETATM    3  C   UNL     1      -8.907  19.437  67.929  1.00  0.00    -0.362 C  
BRANCH   3   4
HETATM    4  C   UNL     1      -9.615  18.150  68.389  1.00  0.00    -0.337 C  
BRANCH   4   5
HETATM    5  N   UNL     1      -9.351  16.966  67.537  1.00  0.00    -0.230 NA 
HETATM    6  C   UNL     1      -8.071  17.076  66.810  1.00  0.00    -0.242 C  
HETATM    7  C   UNL     1      -6.841  17.046  67.722  1.00  0.00    -0.162 C  
HETATM    8  C   UNL     1      -6.840  15.810  68.620  1.00  0.00    -0.122 C  
HETATM    9  C   UNL     1      -8.185  15.598  69.316  1.00  0.00    -0.253 C  
HETATM   10  C   UNL     1      -9.339  15.679  68.307  1.00  0.00    -0.192 C  
BRANCH  10  11
HETATM   11  C   UNL     1     -10.720  15.359  68.929  1.00  0.00    -0.244 C  
HETATM   12  N   UNL     1     -10.611  14.717  70.155  1.00  0.00    -0.472 N  
HETATM   13  O   UNL     1     -11.771  15.733  68.413  1.00  0.00    -0.366 OA 
HETATM   14  H   UNL     1      -9.667  14.601  70.523  1.00  0.00     0.000 HD 
BRANCH  12  15
HETATM   15  C   UNL     1     -11.662  14.207  70.951  1.00  0.00    -0.121 A  
HETATM   16  C   UNL     1     -12.272  14.955  71.982  1.00  0.00    -0.434 A  
HETATM   17  C   UNL     1     -11.895  16.354  72.381  1.00  0.00    -0.548 C  
HETATM   18  C   UNL     1     -13.358  14.398  72.688  1.00  0.00    -0.599 A  
HETATM   19  C   UNL     1     -13.866  13.144  72.361  1.00  0.00    -0.583 A  
HETATM   20  C   UNL     1     -13.274  12.412  71.341  1.00  0.00    -0.190 A  
HETATM   21  C   UNL     1     -12.179  12.927  70.628  1.00  0.00    -0.386 A  
HETATM   22  C   UNL     1     -11.544  12.037  69.586  1.00  0.00    -0.371 C  
ENDBRANCH  12  15
ENDBRANCH  10  11
ENDBRANCH   4   5
ENDBRANCH   3   4
ENDBRANCH   2   3
TORSDOF 5
ENDMDL
MODEL       40
REMARK 921   NORMALIZED FREE ENERGY PREDICTED BY IDOCK:   -5.17 KCAL/MOL
REMARK 922        TOTAL FREE ENERGY PREDICTED BY IDOCK:   -7.63 KCAL/MOL
REMARK 923 INTER-LIGAND FREE ENERGY PREDICTED BY IDOCK:   -6.74 KCAL/MOL
REMARK 924 INTRA-LIGAND FREE ENERGY PREDICTED BY IDOCK:   -0.89 KCAL/MOL
REMARK 927      BINDING AFFINITY PREDICTED BY RF-SCORE:    0.00 PKD
ROOT
HETATM    1  C   UNL     1     -14.138   7.559  71.403  1.00  0.00    -0.496 C  
HETATM    2  C   UNL     1     -14.328   8.606  72.492  1.00  0.00    -0.347 C  
ENDROOT
BRANCH   2   3
HETATM    3  C   UNL     1     -13.406   9.807  72.285  1.00  0.00    -0.472 C  
BRANCH   3   4
HETATM    4  C   UNL     1     -12.684   9.771  70.927  1.00  0.00    -0.247 C  
BRANCH   4   5
HETATM    5  N   UNL     1     -11.225  10.022  71.001  1.00  0.00    -0.346 NA 
HETATM    6  C   UNL     1     -10.514   8.964  71.744  1.00  0.00    -0.360 C  
HETATM    7  C   UNL     1     -10.529   7.603  71.042  1.00  0.00    -0.218 C  
HETATM    8  C   UNL     1      -9.996   7.703  69.614  1.00  0.00    -0.185 C  
HETATM    9  C   UNL     1     -10.632   8.855  68.837  1.00  0.00    -0.188 C  
HETATM   10  C   UNL     1     -10.583  10.155  69.652  1.00  0.00    -0.257 C  
BRANCH  10  11
HETATM   11  C   UNL     1     -11.108  11.387  68.875  1.00  0.00    -0.233 C  
HETATM   12  N   UNL     1     -10.414  12.547  69.191  1.00  0.00    -0.434 N  
HETATM   13  O   UNL     1     -11.977  11.292  68.011  1.00  0.00    -0.621 OA 
HETATM   14  H   UNL     1      -9.619  12.441  69.823  1.00  0.00     0.000 HD 
BRANCH  12  15
HETATM   15  C   UNL     1     -10.683  13.857  68.737  1.00  0.00    -0.262 A  
HETATM   16  C   UNL     1     -11.571  14.731  69.405  1.00  0.00    -0.342 A  
HETATM   17  C   UNL     1     -12.345  14.398  70.650  1.00  0.00    -0.422 C  
HETATM   18  C   UNL     1     -11.736  16.046  68.925  1.00  0.00    -0.322 A  
HETATM   19  C   UNL     1     -11.012  16.512  67.831  1.00  0.00    -0.288 A  
HETATM   20  C   UNL     1     -10.132  15.659  67.180  1.00  0.00    -0.256 A  
HETATM   21  C   UNL     1      -9.955  14.337  67.619  1.00  0.00    -0.225 A  
HETATM   22  C   UNL     1      -9.038  13.450  66.810  1.00  0.00    -0.221 C  
ENDBRANCH  12  15
ENDBRANCH  10  11
ENDBRANCH   4   5
ENDBRANCH   3   4
ENDBRANCH   2   3
TORSDOF 5
ENDMDL
MODEL       41
REMARK 921   NORMALIZED FREE ENERGY PREDICTED BY IDOCK:   -5.17 KCAL/MOL
REMARK 922        TOTAL FREE ENERGY PREDICTED BY IDOCK:   -7.63 KCAL/MOL
REMARK 923 INTER-LIGAND FREE ENERGY PREDICTED BY IDOCK:   -6.85 KCAL/MOL
REMARK 924 INTRA-LIGAND FREE ENERGY PREDICTED BY IDOCK:   -0.78 KCAL/MOL
REMARK 927      BINDING AFFINITY PREDICTED BY RF-SCORE:    0.00 PKD
ROOT
HETATM    1  C   UNL     1     -13.150  10.736  71.726  1.00  0.00    -0.573 C  
HETATM    2  C   UNL     1     -12.542   9.392  72.104  1.00  0.00    -0.423 C  
ENDROOT
BRANCH   2   3
HETATM    3  C   UNL     1     -11.129   9.237  71.544  1.00  0.00    -0.443 C  
BRANCH   3   4
HETATM    4  C   UNL     1     -11.110   9.114  70.010  1.00  0.00    -0.190 C  
BRANCH   4   5
HETATM    5  N   UNL     1      -9.880   8.497  69.459  1.00  0.00    -0.184 NA 
HETATM    6  C   UNL     1      -9.753   7.075  69.834  1.00  0.00    -0.163 C  
HETATM    7  C   UNL     1     -10.823   6.176  69.208  1.00  0.00    -0.418 C  
HETATM    8  C   UNL     1     -10.862   6.326  67.689  1.00  0.00    -0.433 C  
HETATM    9  C   UNL     1     -10.891   7.790  67.251  1.00  0.00    -0.225 C  
HETATM   10  C   UNL     1      -9.794   8.593  67.965  1.00  0.00    -0.169 C  
BRANCH  10  11
HETATM   11  C   UNL     1      -9.695  10.060  67.480  1.00  0.00    -0.159 C  
HETATM   12  N   UNL     1     -10.936  10.602  67.178  1.00  0.00    -0.276 N  
HETATM   13  O   UNL     1      -8.629  10.674  67.471  1.00  0.00    -0.122 OA 
HETATM   14  H   UNL     1     -11.747  10.013  67.373  1.00  0.00     0.000 HD 
BRANCH  12  15
HETATM   15  C   UNL     1     -11.204  11.877  66.630  1.00  0.00    -0.328 A  
HETATM   16  C   UNL     1     -11.130  12.145  65.244  1.00  0.00    -0.367 A  
HETATM   17  C   UNL     1     -10.752  11.147  64.185  1.00  0.00    -0.415 C  
HETATM   18  C   UNL     1     -11.476  13.426  64.770  1.00  0.00    -0.359 A  
HETATM   19  C   UNL     1     -11.928  14.419  65.635  1.00  0.00    -0.356 A  
HETATM   20  C   UNL     1     -12.012  14.155  66.995  1.00  0.00    -0.471 A  
HETATM   21  C   UNL     1     -11.658  12.895  67.506  1.00  0.00    -0.409 A  
HETATM   22  C   UNL     1     -11.704  12.712  69.004  1.00  0.00    -0.367 C  
ENDBRANCH  12  15
ENDBRANCH  10  11
ENDBRANCH   4   5
ENDBRANCH   3   4
ENDBRANCH   2   3
TORSDOF 5
ENDMDL
MODEL       42
REMARK 921   NORMALIZED FREE ENERGY PREDICTED BY IDOCK:   -5.16 KCAL/MOL
REMARK 922        TOTAL FREE ENERGY PREDICTED BY IDOCK:   -7.62 KCAL/MOL
REMARK 923 INTER-LIGAND FREE ENERGY PREDICTED BY IDOCK:   -6.69 KCAL/MOL
REMARK 924 INTRA-LIGAND FREE ENERGY PREDICTED BY IDOCK:   -0.94 KCAL/MOL
REMARK 927      BINDING AFFINITY PREDICTED BY RF-SCORE:    0.00 PKD
ROOT
HETATM    1  C   UNL     1     -12.208  12.292  63.539  1.00  0.00    -0.669 C  
HETATM    2  C   UNL     1     -10.711  12.063  63.699  1.00  0.00    -0.506 C  
ENDROOT
BRANCH   2   3
HETATM    3  C   UNL     1     -10.411  11.054  64.806  1.00  0.00    -0.384 C  
BRANCH   3   4
HETATM    4  C   UNL     1     -11.029  11.456  66.157  1.00  0.00    -0.236 C  
BRANCH   4   5
HETATM    5  N   UNL     1     -10.119  12.217  67.046  1.00  0.00    -0.212 NA 
HETATM    6  C   UNL     1     -10.352  13.672  66.967  1.00  0.00    -0.260 C  
HETATM    7  C   UNL     1     -11.712  14.109  67.517  1.00  0.00    -0.418 C  
HETATM    8  C   UNL     1     -11.924  13.611  68.946  1.00  0.00    -0.392 C  
HETATM    9  C   UNL     1     -11.595  12.126  69.097  1.00  0.00    -0.374 C  
HETATM   10  C   UNL     1     -10.224  11.807  68.484  1.00  0.00    -0.210 C  
BRANCH  10  11
HETATM   11  C   UNL     1      -9.780  10.340  68.706  1.00  0.00    -0.177 C  
HETATM   12  N   UNL     1     -10.835   9.520  69.080  1.00  0.00    -0.348 N  
HETATM   13  O   UNL     1      -8.633   9.963  68.473  1.00  0.00    -0.113 OA 
HETATM   14  H   UNL     1     -11.761   9.949  69.093  1.00  0.00     0.000 HD 
BRANCH  12  15
HETATM   15  C   UNL     1     -10.772   8.155  69.444  1.00  0.00    -0.156 A  
HETATM   16  C   UNL     1     -10.694   7.113  68.493  1.00  0.00    -0.191 A  
HETATM   17  C   UNL     1     -10.681   7.297  67.000  1.00  0.00    -0.406 C  
HETATM   18  C   UNL     1     -10.568   5.782  68.937  1.00  0.00    -0.337 A  
HETATM   19  C   UNL     1     -10.479   5.478  70.293  1.00  0.00    -0.365 A  
HETATM   20  C   UNL     1     -10.545   6.501  71.229  1.00  0.00    -0.268 A  
HETATM   21  C   UNL     1     -10.688   7.838  70.823  1.00  0.00    -0.230 A  
HETATM   22  C   UNL     1     -10.830   8.883  71.904  1.00  0.00    -0.433 C  
ENDBRANCH  12  15
ENDBRANCH  10  11
ENDBRANCH   4   5
ENDBRANCH   3   4
ENDBRANCH   2   3
TORSDOF 5
ENDMDL
MODEL       43
REMARK 921   NORMALIZED FREE ENERGY PREDICTED BY IDOCK:   -5.15 KCAL/MOL
REMARK 922        TOTAL FREE ENERGY PREDICTED BY IDOCK:   -7.61 KCAL/MOL
REMARK 923 INTER-LIGAND FREE ENERGY PREDICTED BY IDOCK:   -6.79 KCAL/MOL
REMARK 924 INTRA-LIGAND FREE ENERGY PREDICTED BY IDOCK:   -0.81 KCAL/MOL
REMARK 927      BINDING AFFINITY PREDICTED BY RF-SCORE:    0.00 PKD
ROOT
HETATM    1  C   UNL     1     -10.648   7.375  67.719  1.00  0.00    -0.278 C  
HETATM    2  C   UNL     1     -10.060   8.778  67.774  1.00  0.00    -0.261 C  
ENDROOT
BRANCH   2   3
HETATM    3  C   UNL     1     -10.075   9.449  66.402  1.00  0.00    -0.332 C  
BRANCH   3   4
HETATM    4  C   UNL     1     -10.831  10.790  66.406  1.00  0.00    -0.104 C  
BRANCH   4   5
HETATM    5  N   UNL     1     -10.136  11.889  65.694  1.00  0.00    -0.236 NA 
HETATM    6  C   UNL     1     -10.222  11.744  64.228  1.00  0.00    -0.302 C  
HETATM    7  C   UNL     1     -11.641  11.905  63.676  1.00  0.00    -0.559 C  
HETATM    8  C   UNL     1     -12.269  13.225  64.120  1.00  0.00    -0.465 C  
HETATM    9  C   UNL     1     -12.113  13.465  65.622  1.00  0.00    -0.476 C  
HETATM   10  C   UNL     1     -10.657  13.246  66.059  1.00  0.00    -0.286 C  
BRANCH  10  11
HETATM   11  C   UNL     1     -10.408  13.586  67.549  1.00  0.00    -0.237 C  
HETATM   12  N   UNL     1     -11.569  13.967  68.206  1.00  0.00    -0.309 N  
HETATM   13  O   UNL     1      -9.310  13.428  68.080  1.00  0.00    -0.203 OA 
HETATM   14  H   UNL     1     -12.434  13.911  67.666  1.00  0.00     0.000 HD 
BRANCH  12  15
HETATM   15  C   UNL     1     -11.690  14.424  69.538  1.00  0.00    -0.313 A  
HETATM   16  C   UNL     1     -11.391  15.751  69.921  1.00  0.00    -0.349 A  
HETATM   17  C   UNL     1     -10.902  16.833  68.999  1.00  0.00    -0.291 C  
HETATM   18  C   UNL     1     -11.599  16.146  71.258  1.00  0.00    -0.470 A  
HETATM   19  C   UNL     1     -12.132  15.267  72.196  1.00  0.00    -0.477 A  
HETATM   20  C   UNL     1     -12.437  13.967  71.820  1.00  0.00    -0.291 A  
HETATM   21  C   UNL     1     -12.225  13.532  70.501  1.00  0.00    -0.433 A  
HETATM   22  C   UNL     1     -12.509  12.081  70.191  1.00  0.00    -0.122 C  
ENDBRANCH  12  15
ENDBRANCH  10  11
ENDBRANCH   4   5
ENDBRANCH   3   4
ENDBRANCH   2   3
TORSDOF 5
ENDMDL
MODEL       44
REMARK 921   NORMALIZED FREE ENERGY PREDICTED BY IDOCK:   -5.14 KCAL/MOL
REMARK 922        TOTAL FREE ENERGY PREDICTED BY IDOCK:   -7.59 KCAL/MOL
REMARK 923 INTER-LIGAND FREE ENERGY PREDICTED BY IDOCK:   -6.74 KCAL/MOL
REMARK 924 INTRA-LIGAND FREE ENERGY PREDICTED BY IDOCK:   -0.85 KCAL/MOL
REMARK 927      BINDING AFFINITY PREDICTED BY RF-SCORE:    0.00 PKD
ROOT
HETATM    1  C   UNL     1      -9.299   9.415  69.007  1.00  0.00    -0.153 C  
HETATM    2  C   UNL     1     -10.133   8.730  67.933  1.00  0.00    -0.257 C  
ENDROOT
BRANCH   2   3
HETATM    3  C   UNL     1      -9.969   9.409  66.575  1.00  0.00    -0.339 C  
BRANCH   3   4
HETATM    4  C   UNL     1     -10.786  10.709  66.460  1.00  0.00    -0.151 C  
BRANCH   4   5
HETATM    5  N   UNL     1     -10.062  11.835  65.823  1.00  0.00    -0.228 NA 
HETATM    6  C   UNL     1     -10.058  11.733  64.351  1.00  0.00    -0.282 C  
HETATM    7  C   UNL     1     -11.443  11.896  63.719  1.00  0.00    -0.542 C  
HETATM    8  C   UNL     1     -12.112  13.196  64.162  1.00  0.00    -0.496 C  
HETATM    9  C   UNL     1     -12.049  13.393  65.677  1.00  0.00    -0.476 C  
HETATM   10  C   UNL     1     -10.620  13.176  66.195  1.00  0.00    -0.279 C  
BRANCH  10  11
HETATM   11  C   UNL     1     -10.464  13.474  67.706  1.00  0.00    -0.240 C  
HETATM   12  N   UNL     1     -11.639  13.946  68.275  1.00  0.00    -0.316 N  
HETATM   13  O   UNL     1      -9.430  13.215  68.320  1.00  0.00    -0.217 OA 
HETATM   14  H   UNL     1     -12.458  13.972  67.668  1.00  0.00     0.000 HD 
BRANCH  12  15
HETATM   15  C   UNL     1     -11.828  14.395  69.602  1.00  0.00    -0.321 A  
HETATM   16  C   UNL     1     -12.235  13.537  70.649  1.00  0.00    -0.434 A  
HETATM   17  C   UNL     1     -12.533  12.070  70.505  1.00  0.00    -0.292 C  
HETATM   18  C   UNL     1     -12.339  14.048  71.958  1.00  0.00    -0.173 A  
HETATM   19  C   UNL     1     -12.008  15.369  72.247  1.00  0.00    -0.529 A  
HETATM   20  C   UNL     1     -11.597  16.210  71.222  1.00  0.00    -0.470 A  
HETATM   21  C   UNL     1     -11.500  15.741  69.902  1.00  0.00    -0.347 A  
HETATM   22  C   UNL     1     -11.120  16.738  68.833  1.00  0.00    -0.194 C  
ENDBRANCH  12  15
ENDBRANCH  10  11
ENDBRANCH   4   5
ENDBRANCH   3   4
ENDBRANCH   2   3
TORSDOF 5
ENDMDL
MODEL       45
REMARK 921   NORMALIZED FREE ENERGY PREDICTED BY IDOCK:   -5.13 KCAL/MOL
REMARK 922        TOTAL FREE ENERGY PREDICTED BY IDOCK:   -7.57 KCAL/MOL
REMARK 923 INTER-LIGAND FREE ENERGY PREDICTED BY IDOCK:   -6.83 KCAL/MOL
REMARK 924 INTRA-LIGAND FREE ENERGY PREDICTED BY IDOCK:   -0.74 KCAL/MOL
REMARK 927      BINDING AFFINITY PREDICTED BY RF-SCORE:    0.00 PKD
ROOT
HETATM    1  C   UNL     1     -12.359  12.048  63.551  1.00  0.00    -0.661 C  
HETATM    2  C   UNL     1     -11.995  12.388  64.990  1.00  0.00    -0.458 C  
ENDROOT
BRANCH   2   3
HETATM    3  C   UNL     1     -12.228  13.866  65.296  1.00  0.00    -0.449 C  
BRANCH   3   4
HETATM    4  C   UNL     1     -12.143  14.180  66.800  1.00  0.00    -0.442 C  
BRANCH   4   5
HETATM    5  N   UNL     1     -10.792  14.015  67.387  1.00  0.00    -0.279 NA 
HETATM    6  C   UNL     1     -10.097  15.306  67.553  1.00  0.00    -0.232 C  
HETATM    7  C   UNL     1     -10.744  16.225  68.593  1.00  0.00    -0.309 C  
HETATM    8  C   UNL     1     -10.899  15.524  69.941  1.00  0.00    -0.311 C  
HETATM    9  C   UNL     1     -11.524  14.136  69.805  1.00  0.00    -0.309 C  
HETATM   10  C   UNL     1     -10.810  13.322  68.716  1.00  0.00    -0.243 C  
BRANCH  10  11
HETATM   11  C   UNL     1     -11.321  11.864  68.607  1.00  0.00    -0.276 C  
HETATM   12  N   UNL     1     -10.283  10.943  68.566  1.00  0.00    -0.177 N  
HETATM   13  O   UNL     1     -12.517  11.586  68.654  1.00  0.00    -0.335 OA 
HETATM   14  H   UNL     1      -9.341  11.317  68.682  1.00  0.00     0.000 HD 
BRANCH  12  15
HETATM   15  C   UNL     1     -10.386   9.545  68.383  1.00  0.00    -0.206 A  
HETATM   16  C   UNL     1     -10.198   8.923  67.128  1.00  0.00    -0.339 A  
HETATM   17  C   UNL     1      -9.887   9.637  65.842  1.00  0.00    -0.358 C  
HETATM   18  C   UNL     1     -10.253   7.518  67.040  1.00  0.00    -0.368 A  
HETATM   19  C   UNL     1     -10.447   6.730  68.171  1.00  0.00    -0.251 A  
HETATM   20  C   UNL     1     -10.620   7.338  69.407  1.00  0.00    -0.238 A  
HETATM   21  C   UNL     1     -10.590   8.737  69.530  1.00  0.00    -0.224 A  
HETATM   22  C   UNL     1     -10.864   9.323  70.894  1.00  0.00    -0.365 C  
ENDBRANCH  12  15
ENDBRANCH  10  11
ENDBRANCH   4   5
ENDBRANCH   3   4
ENDBRANCH   2   3
TORSDOF 5
ENDMDL
MODEL       46
REMARK 921   NORMALIZED FREE ENERGY PREDICTED BY IDOCK:   -5.13 KCAL/MOL
REMARK 922        TOTAL FREE ENERGY PREDICTED BY IDOCK:   -7.57 KCAL/MOL
REMARK 923 INTER-LIGAND FREE ENERGY PREDICTED BY IDOCK:   -6.74 KCAL/MOL
REMARK 924 INTRA-LIGAND FREE ENERGY PREDICTED BY IDOCK:   -0.83 KCAL/MOL
REMARK 927      BINDING AFFINITY PREDICTED BY RF-SCORE:    0.00 PKD
ROOT
HETATM    1  C   UNL     1      -9.895   9.375  66.086  1.00  0.00    -0.356 C  
HETATM    2  C   UNL     1      -9.233  10.413  66.981  1.00  0.00    -0.165 C  
ENDROOT
BRANCH   2   3
HETATM    3  C   UNL     1      -8.828  11.659  66.195  1.00  0.00    -0.139 C  
BRANCH   3   4
HETATM    4  C   UNL     1      -9.692  12.885  66.543  1.00  0.00    -0.257 C  
BRANCH   4   5
HETATM    5  N   UNL     1     -10.040  13.740  65.383  1.00  0.00    -0.307 NA 
HETATM    6  C   UNL     1     -10.455  12.946  64.210  1.00  0.00    -0.407 C  
HETATM    7  C   UNL     1     -11.774  12.196  64.411  1.00  0.00    -0.430 C  
HETATM    8  C   UNL     1     -12.896  13.139  64.841  1.00  0.00    -0.349 C  
HETATM    9  C   UNL     1     -12.474  14.054  65.991  1.00  0.00    -0.489 C  
HETATM   10  C   UNL     1     -11.128  14.726  65.686  1.00  0.00    -0.342 C  
BRANCH  10  11
HETATM   11  C   UNL     1     -10.699  15.755  66.761  1.00  0.00    -0.293 C  
HETATM   12  N   UNL     1      -9.762  16.660  66.282  1.00  0.00    -0.288 N  
HETATM   13  O   UNL     1     -11.225  15.797  67.872  1.00  0.00    -0.341 OA 
HETATM   14  H   UNL     1      -9.527  16.587  65.291  1.00  0.00     0.000 HD 
BRANCH  12  15
HETATM   15  C   UNL     1      -9.096  17.670  67.011  1.00  0.00    -0.250 A  
HETATM   16  C   UNL     1      -8.051  17.393  67.922  1.00  0.00    -0.220 A  
HETATM   17  C   UNL     1      -7.522  16.024  68.248  1.00  0.00    -0.136 C  
HETATM   18  C   UNL     1      -7.393  18.463  68.562  1.00  0.00    -0.302 A  
HETATM   19  C   UNL     1      -7.724  19.786  68.284  1.00  0.00    -0.334 A  
HETATM   20  C   UNL     1      -8.743  20.060  67.382  1.00  0.00    -0.417 A  
HETATM   21  C   UNL     1      -9.433  19.020  66.738  1.00  0.00    -0.365 A  
HETATM   22  C   UNL     1     -10.579  19.400  65.831  1.00  0.00    -0.551 C  
ENDBRANCH  12  15
ENDBRANCH  10  11
ENDBRANCH   4   5
ENDBRANCH   3   4
ENDBRANCH   2   3
TORSDOF 5
ENDMDL
MODEL       47
REMARK 921   NORMALIZED FREE ENERGY PREDICTED BY IDOCK:   -5.12 KCAL/MOL
REMARK 922        TOTAL FREE ENERGY PREDICTED BY IDOCK:   -7.56 KCAL/MOL
REMARK 923 INTER-LIGAND FREE ENERGY PREDICTED BY IDOCK:   -6.55 KCAL/MOL
REMARK 924 INTRA-LIGAND FREE ENERGY PREDICTED BY IDOCK:   -1.01 KCAL/MOL
REMARK 927      BINDING AFFINITY PREDICTED BY RF-SCORE:    0.00 PKD
ROOT
HETATM    1  C   UNL     1      -9.220   9.110  70.144  1.00  0.00    -0.231 C  
HETATM    2  C   UNL     1      -8.958   9.569  68.716  1.00  0.00    -0.133 C  
ENDROOT
BRANCH   2   3
HETATM    3  C   UNL     1      -9.719   8.717  67.702  1.00  0.00    -0.210 C  
BRANCH   3   4
HETATM    4  C   UNL     1     -10.282   9.548  66.535  1.00  0.00    -0.237 C  
BRANCH   4   5
HETATM    5  N   UNL     1      -9.394  10.642  66.076  1.00  0.00    -0.179 NA 
HETATM    6  C   UNL     1      -8.300  10.150  65.217  1.00  0.00    -0.159 C  
HETATM    7  C   UNL     1      -8.777   9.592  63.873  1.00  0.00    -0.241 C  
HETATM    8  C   UNL     1      -9.633  10.607  63.117  1.00  0.00    -0.382 C  
HETATM    9  C   UNL     1     -10.719  11.221  64.001  1.00  0.00    -0.444 C  
HETATM   10  C   UNL     1     -10.125  11.716  65.328  1.00  0.00    -0.264 C  
BRANCH  10  11
HETATM   11  C   UNL     1     -11.153  12.454  66.221  1.00  0.00    -0.303 C  
HETATM   12  N   UNL     1     -10.562  13.038  67.333  1.00  0.00    -0.233 N  
HETATM   13  O   UNL     1     -12.333  12.572  65.898  1.00  0.00    -0.626 OA 
HETATM   14  H   UNL     1      -9.545  12.976  67.391  1.00  0.00     0.000 HD 
BRANCH  12  15
HETATM   15  C   UNL     1     -11.211  13.709  68.395  1.00  0.00    -0.276 A  
HETATM   16  C   UNL     1     -11.794  13.028  69.487  1.00  0.00    -0.385 A  
HETATM   17  C   UNL     1     -11.821  11.535  69.667  1.00  0.00    -0.421 C  
HETATM   18  C   UNL     1     -12.366  13.772  70.538  1.00  0.00    -0.429 A  
HETATM   19  C   UNL     1     -12.331  15.164  70.541  1.00  0.00    -0.408 A  
HETATM   20  C   UNL     1     -11.749  15.835  69.474  1.00  0.00    -0.369 A  
HETATM   21  C   UNL     1     -11.186  15.126  68.400  1.00  0.00    -0.307 A  
HETATM   22  C   UNL     1     -10.643  15.930  67.242  1.00  0.00    -0.314 C  
ENDBRANCH  12  15
ENDBRANCH  10  11
ENDBRANCH   4   5
ENDBRANCH   3   4
ENDBRANCH   2   3
TORSDOF 5
ENDMDL
MODEL       48
REMARK 921   NORMALIZED FREE ENERGY PREDICTED BY IDOCK:   -5.08 KCAL/MOL
REMARK 922        TOTAL FREE ENERGY PREDICTED BY IDOCK:   -7.51 KCAL/MOL
REMARK 923 INTER-LIGAND FREE ENERGY PREDICTED BY IDOCK:   -6.63 KCAL/MOL
REMARK 924 INTRA-LIGAND FREE ENERGY PREDICTED BY IDOCK:   -0.87 KCAL/MOL
REMARK 927      BINDING AFFINITY PREDICTED BY RF-SCORE:    0.00 PKD
ROOT
HETATM    1  C   UNL     1     -12.063  12.287  63.618  1.00  0.00    -0.648 C  
HETATM    2  C   UNL     1     -10.586  11.919  63.643  1.00  0.00    -0.500 C  
ENDROOT
BRANCH   2   3
HETATM    3  C   UNL     1     -10.239  11.063  64.861  1.00  0.00    -0.373 C  
BRANCH   3   4
HETATM    4  C   UNL     1     -10.906  11.573  66.151  1.00  0.00    -0.278 C  
BRANCH   4   5
HETATM    5  N   UNL     1     -10.037  12.425  66.996  1.00  0.00    -0.213 NA 
HETATM    6  C   UNL     1     -10.298  13.863  66.791  1.00  0.00    -0.272 C  
HETATM    7  C   UNL     1     -11.682  14.312  67.269  1.00  0.00    -0.422 C  
HETATM    8  C   UNL     1     -11.922  13.929  68.728  1.00  0.00    -0.393 C  
HETATM    9  C   UNL     1     -11.566  12.469  69.010  1.00  0.00    -0.365 C  
HETATM   10  C   UNL     1     -10.173  12.133  68.460  1.00  0.00    -0.207 C  
BRANCH  10  11
HETATM   11  C   UNL     1      -9.704  10.700  68.815  1.00  0.00    -0.189 C  
HETATM   12  N   UNL     1     -10.765   9.814  68.945  1.00  0.00    -0.220 N  
HETATM   13  O   UNL     1      -8.514  10.397  68.869  1.00  0.00    -0.126 OA 
HETATM   14  H   UNL     1     -11.692  10.182  68.728  1.00  0.00     0.000 HD 
BRANCH  12  15
HETATM   15  C   UNL     1     -10.706   8.460  69.344  1.00  0.00    -0.152 A  
HETATM   16  C   UNL     1     -10.906   8.047  70.680  1.00  0.00    -0.240 A  
HETATM   17  C   UNL     1     -11.188   8.961  71.840  1.00  0.00    -0.447 C  
HETATM   18  C   UNL     1     -10.896   6.671  70.986  1.00  0.00    -0.289 A  
HETATM   19  C   UNL     1     -10.733   5.711  69.991  1.00  0.00    -0.390 A  
HETATM   20  C   UNL     1     -10.546   6.114  68.676  1.00  0.00    -0.324 A  
HETATM   21  C   UNL     1     -10.533   7.477  68.337  1.00  0.00    -0.212 A  
HETATM   22  C   UNL     1     -10.247   7.835  66.897  1.00  0.00    -0.373 C  
ENDBRANCH  12  15
ENDBRANCH  10  11
ENDBRANCH   4   5
ENDBRANCH   3   4
ENDBRANCH   2   3
TORSDOF 5
ENDMDL
MODEL       49
REMARK 921   NORMALIZED FREE ENERGY PREDICTED BY IDOCK:   -5.08 KCAL/MOL
REMARK 922        TOTAL FREE ENERGY PREDICTED BY IDOCK:   -7.51 KCAL/MOL
REMARK 923 INTER-LIGAND FREE ENERGY PREDICTED BY IDOCK:   -6.58 KCAL/MOL
REMARK 924 INTRA-LIGAND FREE ENERGY PREDICTED BY IDOCK:   -0.93 KCAL/MOL
REMARK 927      BINDING AFFINITY PREDICTED BY RF-SCORE:    0.00 PKD
ROOT
HETATM    1  C   UNL     1     -12.157  14.497  64.335  1.00  0.00    -0.492 C  
HETATM    2  C   UNL     1     -12.571  13.774  65.610  1.00  0.00    -0.551 C  
ENDROOT
BRANCH   2   3
HETATM    3  C   UNL     1     -11.632  14.099  66.771  1.00  0.00    -0.409 C  
BRANCH   3   4
HETATM    4  C   UNL     1     -12.266  13.810  68.143  1.00  0.00    -0.143 C  
BRANCH   4   5
HETATM    5  N   UNL     1     -11.303  13.768  69.268  1.00  0.00    -0.268 NA 
HETATM    6  C   UNL     1     -10.968  15.117  69.766  1.00  0.00    -0.280 C  
HETATM    7  C   UNL     1     -12.145  15.837  70.430  1.00  0.00    -0.399 C  
HETATM    8  C   UNL     1     -12.759  14.994  71.546  1.00  0.00    -0.414 C  
HETATM    9  C   UNL     1     -13.029  13.556  71.104  1.00  0.00    -0.338 C  
HETATM   10  C   UNL     1     -11.789  12.953  70.429  1.00  0.00    -0.157 C  
BRANCH  10  11
HETATM   11  C   UNL     1     -11.958  11.458  70.061  1.00  0.00    -0.363 C  
HETATM   12  N   UNL     1     -10.769  10.882  69.634  1.00  0.00    -0.397 N  
HETATM   13  O   UNL     1     -13.017  10.858  70.235  1.00  0.00    -0.214 OA 
HETATM   14  H   UNL     1      -9.938  11.471  69.680  1.00  0.00     0.000 HD 
BRANCH  12  15
HETATM   15  C   UNL     1     -10.582   9.570  69.143  1.00  0.00    -0.222 A  
HETATM   16  C   UNL     1     -10.455   8.447  69.991  1.00  0.00    -0.224 A  
HETATM   17  C   UNL     1     -10.486   8.484  71.494  1.00  0.00    -0.318 C  
HETATM   18  C   UNL     1     -10.335   7.163  69.422  1.00  0.00    -0.206 A  
HETATM   19  C   UNL     1     -10.381   6.976  68.043  1.00  0.00    -0.234 A  
HETATM   20  C   UNL     1     -10.516   8.077  67.208  1.00  0.00    -0.384 A  
HETATM   21  C   UNL     1     -10.619   9.373  67.739  1.00  0.00    -0.317 A  
HETATM   22  C   UNL     1     -10.686  10.524  66.763  1.00  0.00    -0.252 C  
ENDBRANCH  12  15
ENDBRANCH  10  11
ENDBRANCH   4   5
ENDBRANCH   3   4
ENDBRANCH   2   3
TORSDOF 5
ENDMDL
MODEL       50
REMARK 921   NORMALIZED FREE ENERGY PREDICTED BY IDOCK:   -5.06 KCAL/MOL
REMARK 922        TOTAL FREE ENERGY PREDICTED BY IDOCK:   -7.49 KCAL/MOL
REMARK 923 INTER-LIGAND FREE ENERGY PREDICTED BY IDOCK:   -6.69 KCAL/MOL
REMARK 924 INTRA-LIGAND FREE ENERGY PREDICTED BY IDOCK:   -0.80 KCAL/MOL
REMARK 927      BINDING AFFINITY PREDICTED BY RF-SCORE:    0.00 PKD
ROOT
HETATM    1  C   UNL     1     -10.384  11.393  63.669  1.00  0.00    -0.463 C  
HETATM    2  C   UNL     1     -10.256  11.110  65.160  1.00  0.00    -0.347 C  
ENDROOT
BRANCH   2   3
HETATM    3  C   UNL     1      -9.751   9.692  65.422  1.00  0.00    -0.365 C  
BRANCH   3   4
HETATM    4  C   UNL     1      -9.538   9.407  66.919  1.00  0.00    -0.164 C  
BRANCH   4   5
HETATM    5  N   UNL     1     -10.448   8.383  67.485  1.00  0.00    -0.262 NA 
HETATM    6  C   UNL     1     -10.414   7.123  66.718  1.00  0.00    -0.230 C  
HETATM    7  C   UNL     1      -9.075   6.386  66.803  1.00  0.00    -0.147 C  
HETATM    8  C   UNL     1      -8.663   6.139  68.253  1.00  0.00    -0.114 C  
HETATM    9  C   UNL     1      -8.781   7.399  69.112  1.00  0.00    -0.136 C  
HETATM   10  C   UNL     1     -10.152   8.062  68.919  1.00  0.00    -0.201 C  
BRANCH  10  11
HETATM   11  C   UNL     1     -10.379   9.280  69.848  1.00  0.00    -0.220 C  
HETATM   12  N   UNL     1     -11.636   9.845  69.681  1.00  0.00    -0.443 N  
HETATM   13  O   UNL     1      -9.555   9.618  70.695  1.00  0.00    -0.252 OA 
HETATM   14  H   UNL     1     -12.267   9.363  69.039  1.00  0.00     0.000 HD 
BRANCH  12  15
HETATM   15  C   UNL     1     -12.141  11.011  70.299  1.00  0.00    -0.362 A  
HETATM   16  C   UNL     1     -12.915  10.976  71.481  1.00  0.00    -0.553 A  
HETATM   17  C   UNL     1     -13.315   9.731  72.222  1.00  0.00    -0.472 C  
HETATM   18  C   UNL     1     -13.326  12.188  72.072  1.00  0.00    -0.470 A  
HETATM   19  C   UNL     1     -12.949  13.417  71.537  1.00  0.00    -0.429 A  
HETATM   20  C   UNL     1     -12.180  13.454  70.382  1.00  0.00    -0.415 A  
HETATM   21  C   UNL     1     -11.768  12.266  69.756  1.00  0.00    -0.368 A  
HETATM   22  C   UNL     1     -10.999  12.391  68.462  1.00  0.00    -0.277 C  
ENDBRANCH  12  15
ENDBRANCH  10  11
ENDBRANCH   4   5
ENDBRANCH   3   4
ENDBRANCH   2   3
TORSDOF 5
ENDMDL
MODEL       51
REMARK 921   NORMALIZED FREE ENERGY PREDICTED BY IDOCK:   -5.05 KCAL/MOL
REMARK 922        TOTAL FREE ENERGY PREDICTED BY IDOCK:   -7.48 KCAL/MOL
REMARK 923 INTER-LIGAND FREE ENERGY PREDICTED BY IDOCK:   -6.56 KCAL/MOL
REMARK 924 INTRA-LIGAND FREE ENERGY PREDICTED BY IDOCK:   -0.92 KCAL/MOL
REMARK 927      BINDING AFFINITY PREDICTED BY RF-SCORE:    0.00 PKD
ROOT
HETATM    1  C   UNL     1     -10.455   8.028  72.743  1.00  0.00    -0.415 C  
HETATM    2  C   UNL     1      -9.604   8.350  71.522  1.00  0.00    -0.273 C  
ENDROOT
BRANCH   2   3
HETATM    3  C   UNL     1     -10.466   8.697  70.310  1.00  0.00    -0.229 C  
BRANCH   3   4
HETATM    4  C   UNL     1     -10.737  10.207  70.189  1.00  0.00    -0.300 C  
BRANCH   4   5
HETATM    5  N   UNL     1     -12.107  10.551  69.740  1.00  0.00    -0.252 NA 
HETATM    6  C   UNL     1     -13.121  10.261  70.772  1.00  0.00    -0.287 C  
HETATM    7  C   UNL     1     -13.003  11.145  72.017  1.00  0.00    -0.385 C  
HETATM    8  C   UNL     1     -13.020  12.628  71.654  1.00  0.00    -0.400 C  
HETATM    9  C   UNL     1     -12.056  12.958  70.515  1.00  0.00    -0.364 C  
HETATM   10  C   UNL     1     -12.250  11.989  69.340  1.00  0.00    -0.097 C  
BRANCH  10  11
HETATM   11  C   UNL     1     -11.382  12.340  68.106  1.00  0.00    -0.295 C  
HETATM   12  N   UNL     1     -11.651  11.518  67.020  1.00  0.00    -0.215 N  
HETATM   13  O   UNL     1     -10.622  13.307  68.096  1.00  0.00    -0.235 OA 
HETATM   14  H   UNL     1     -12.413  10.850  67.136  1.00  0.00     0.000 HD 
BRANCH  12  15
HETATM   15  C   UNL     1     -10.987  11.503  65.772  1.00  0.00    -0.246 A  
HETATM   16  C   UNL     1      -9.899  10.645  65.495  1.00  0.00    -0.316 A  
HETATM   17  C   UNL     1      -9.298   9.664  66.462  1.00  0.00    -0.212 C  
HETATM   18  C   UNL     1      -9.333  10.645  64.204  1.00  0.00    -0.297 A  
HETATM   19  C   UNL     1      -9.851  11.442  63.188  1.00  0.00    -0.413 A  
HETATM   20  C   UNL     1     -10.927  12.278  63.455  1.00  0.00    -0.467 A  
HETATM   21  C   UNL     1     -11.505  12.319  64.734  1.00  0.00    -0.382 A  
HETATM   22  C   UNL     1     -12.621  13.310  64.964  1.00  0.00    -0.483 C  
ENDBRANCH  12  15
ENDBRANCH  10  11
ENDBRANCH   4   5
ENDBRANCH   3   4
ENDBRANCH   2   3
TORSDOF 5
ENDMDL
MODEL       52
REMARK 921   NORMALIZED FREE ENERGY PREDICTED BY IDOCK:   -5.04 KCAL/MOL
REMARK 922        TOTAL FREE ENERGY PREDICTED BY IDOCK:   -7.46 KCAL/MOL
REMARK 923 INTER-LIGAND FREE ENERGY PREDICTED BY IDOCK:   -7.04 KCAL/MOL
REMARK 924 INTRA-LIGAND FREE ENERGY PREDICTED BY IDOCK:   -0.42 KCAL/MOL
REMARK 927      BINDING AFFINITY PREDICTED BY RF-SCORE:    0.00 PKD
ROOT
HETATM    1  C   UNL     1      -5.778  21.091  67.959  1.00  0.00    -0.389 C  
HETATM    2  C   UNL     1      -5.712  19.569  67.942  1.00  0.00    -0.217 C  
ENDROOT
BRANCH   2   3
HETATM    3  C   UNL     1      -6.724  18.951  68.905  1.00  0.00    -0.312 C  
BRANCH   3   4
HETATM    4  C   UNL     1      -7.886  18.254  68.177  1.00  0.00    -0.288 C  
BRANCH   4   5
HETATM    5  N   UNL     1      -9.222  18.513  68.764  1.00  0.00    -0.300 NA 
HETATM    6  C   UNL     1      -9.622  19.928  68.637  1.00  0.00    -0.254 C  
HETATM    7  C   UNL     1      -9.861  20.372  67.191  1.00  0.00    -0.601 C  
HETATM    8  C   UNL     1     -10.869  19.467  66.486  1.00  0.00    -0.461 C  
HETATM    9  C   UNL     1     -10.550  17.984  66.677  1.00  0.00    -0.268 C  
HETATM   10  C   UNL     1     -10.303  17.668  68.159  1.00  0.00    -0.386 C  
BRANCH  10  11
HETATM   11  C   UNL     1     -10.088  16.160  68.436  1.00  0.00    -0.236 C  
HETATM   12  N   UNL     1     -11.046  15.367  67.819  1.00  0.00    -0.312 N  
HETATM   13  O   UNL     1      -9.111  15.742  69.056  1.00  0.00    -0.210 OA 
HETATM   14  H   UNL     1     -11.714  15.850  67.217  1.00  0.00     0.000 HD 
BRANCH  12  15
HETATM   15  C   UNL     1     -11.201  13.967  67.930  1.00  0.00    -0.273 A  
HETATM   16  C   UNL     1     -11.674  13.341  69.105  1.00  0.00    -0.379 A  
HETATM   17  C   UNL     1     -12.056  14.051  70.374  1.00  0.00    -0.426 C  
HETATM   18  C   UNL     1     -11.862  11.944  69.114  1.00  0.00    -0.371 A  
HETATM   19  C   UNL     1     -11.630  11.176  67.977  1.00  0.00    -0.337 A  
HETATM   20  C   UNL     1     -11.176  11.790  66.818  1.00  0.00    -0.388 A  
HETATM   21  C   UNL     1     -10.959  13.178  66.777  1.00  0.00    -0.298 A  
HETATM   22  C   UNL     1     -10.391  13.757  65.504  1.00  0.00    -0.333 C  
ENDBRANCH  12  15
ENDBRANCH  10  11
ENDBRANCH   4   5
ENDBRANCH   3   4
ENDBRANCH   2   3
TORSDOF 5
ENDMDL
MODEL       53
REMARK 921   NORMALIZED FREE ENERGY PREDICTED BY IDOCK:   -5.01 KCAL/MOL
REMARK 922        TOTAL FREE ENERGY PREDICTED BY IDOCK:   -7.43 KCAL/MOL
REMARK 923 INTER-LIGAND FREE ENERGY PREDICTED BY IDOCK:   -6.63 KCAL/MOL
REMARK 924 INTRA-LIGAND FREE ENERGY PREDICTED BY IDOCK:   -0.80 KCAL/MOL
REMARK 927      BINDING AFFINITY PREDICTED BY RF-SCORE:    0.00 PKD
ROOT
HETATM    1  C   UNL     1     -10.324   4.729  66.251  1.00  0.00    -0.329 C  
HETATM    2  C   UNL     1     -10.551   5.939  67.147  1.00  0.00    -0.373 C  
ENDROOT
BRANCH   2   3
HETATM    3  C   UNL     1     -10.347   5.595  68.621  1.00  0.00    -0.277 C  
BRANCH   3   4
HETATM    4  C   UNL     1     -10.067   6.837  69.486  1.00  0.00    -0.178 C  
BRANCH   4   5
HETATM    5  N   UNL     1     -11.279   7.587  69.893  1.00  0.00    -0.170 NA 
HETATM    6  C   UNL     1     -12.083   6.851  70.887  1.00  0.00    -0.373 C  
HETATM    7  C   UNL     1     -11.388   6.686  72.241  1.00  0.00    -0.311 C  
HETATM    8  C   UNL     1     -10.939   8.031  72.808  1.00  0.00    -0.449 C  
HETATM    9  C   UNL     1     -10.188   8.874  71.777  1.00  0.00    -0.414 C  
HETATM   10  C   UNL     1     -10.969   8.942  70.457  1.00  0.00    -0.241 C  
BRANCH  10  11
HETATM   11  C   UNL     1     -10.317   9.875  69.407  1.00  0.00    -0.222 C  
HETATM   12  N   UNL     1     -11.188  10.200  68.377  1.00  0.00    -0.468 N  
HETATM   13  O   UNL     1      -9.187  10.336  69.555  1.00  0.00    -0.208 OA 
HETATM   14  H   UNL     1     -12.145   9.855  68.466  1.00  0.00     0.000 HD 
BRANCH  12  15
HETATM   15  C   UNL     1     -10.900  10.954  67.217  1.00  0.00    -0.287 A  
HETATM   16  C   UNL     1     -10.242  10.407  66.093  1.00  0.00    -0.288 A  
HETATM   17  C   UNL     1      -9.754   8.989  65.976  1.00  0.00    -0.339 C  
HETATM   18  C   UNL     1     -10.048  11.207  64.949  1.00  0.00    -0.345 A  
HETATM   19  C   UNL     1     -10.529  12.512  64.890  1.00  0.00    -0.328 A  
HETATM   20  C   UNL     1     -11.185  13.049  65.990  1.00  0.00    -0.320 A  
HETATM   21  C   UNL     1     -11.380  12.287  67.153  1.00  0.00    -0.398 A  
HETATM   22  C   UNL     1     -12.034  12.968  68.332  1.00  0.00    -0.309 C  
ENDBRANCH  12  15
ENDBRANCH  10  11
ENDBRANCH   4   5
ENDBRANCH   3   4
ENDBRANCH   2   3
TORSDOF 5
ENDMDL
MODEL       54
REMARK 921   NORMALIZED FREE ENERGY PREDICTED BY IDOCK:   -4.99 KCAL/MOL
REMARK 922        TOTAL FREE ENERGY PREDICTED BY IDOCK:   -7.40 KCAL/MOL
REMARK 923 INTER-LIGAND FREE ENERGY PREDICTED BY IDOCK:   -6.30 KCAL/MOL
REMARK 924 INTRA-LIGAND FREE ENERGY PREDICTED BY IDOCK:   -1.10 KCAL/MOL
REMARK 927      BINDING AFFINITY PREDICTED BY RF-SCORE:    0.00 PKD
ROOT
HETATM    1  C   UNL     1     -10.170  12.028  63.603  1.00  0.00    -0.470 C  
HETATM    2  C   UNL     1     -10.296  10.764  64.441  1.00  0.00    -0.405 C  
ENDROOT
BRANCH   2   3
HETATM    3  C   UNL     1      -8.985  10.426  65.150  1.00  0.00    -0.217 C  
BRANCH   3   4
HETATM    4  C   UNL     1      -9.182  10.128  66.647  1.00  0.00    -0.155 C  
BRANCH   4   5
HETATM    5  N   UNL     1     -10.526   9.609  66.999  1.00  0.00    -0.246 NA 
HETATM    6  C   UNL     1     -10.513   8.156  67.253  1.00  0.00    -0.309 C  
HETATM    7  C   UNL     1      -9.722   7.756  68.502  1.00  0.00    -0.165 C  
HETATM    8  C   UNL     1     -10.209   8.510  69.738  1.00  0.00    -0.206 C  
HETATM    9  C   UNL     1     -10.336  10.013  69.488  1.00  0.00    -0.256 C  
HETATM   10  C   UNL     1     -11.121  10.286  68.198  1.00  0.00    -0.264 C  
BRANCH  10  11
HETATM   11  C   UNL     1     -11.384  11.791  67.947  1.00  0.00    -0.292 C  
HETATM   12  N   UNL     1     -10.660  12.604  68.808  1.00  0.00    -0.351 N  
HETATM   13  O   UNL     1     -12.085  12.185  67.017  1.00  0.00    -0.591 OA 
HETATM   14  H   UNL     1     -10.007  12.133  69.434  1.00  0.00     0.000 HD 
BRANCH  12  15
HETATM   15  C   UNL     1     -10.725  14.012  68.914  1.00  0.00    -0.248 A  
HETATM   16  C   UNL     1     -11.530  14.670  69.870  1.00  0.00    -0.320 A  
HETATM   17  C   UNL     1     -12.420  13.990  70.874  1.00  0.00    -0.439 C  
HETATM   18  C   UNL     1     -11.490  16.077  69.955  1.00  0.00    -0.327 A  
HETATM   19  C   UNL     1     -10.643  16.826  69.143  1.00  0.00    -0.343 A  
HETATM   20  C   UNL     1      -9.843  16.180  68.210  1.00  0.00    -0.224 A  
HETATM   21  C   UNL     1      -9.870  14.782  68.085  1.00  0.00    -0.221 A  
HETATM   22  C   UNL     1      -9.028  14.163  66.995  1.00  0.00    -0.251 C  
ENDBRANCH  12  15
ENDBRANCH  10  11
ENDBRANCH   4   5
ENDBRANCH   3   4
ENDBRANCH   2   3
TORSDOF 5
ENDMDL
MODEL       55
REMARK 921   NORMALIZED FREE ENERGY PREDICTED BY IDOCK:   -4.97 KCAL/MOL
REMARK 922        TOTAL FREE ENERGY PREDICTED BY IDOCK:   -7.37 KCAL/MOL
REMARK 923 INTER-LIGAND FREE ENERGY PREDICTED BY IDOCK:   -6.49 KCAL/MOL
REMARK 924 INTRA-LIGAND FREE ENERGY PREDICTED BY IDOCK:   -0.88 KCAL/MOL
REMARK 927      BINDING AFFINITY PREDICTED BY RF-SCORE:    0.00 PKD
ROOT
HETATM    1  C   UNL     1     -13.257  10.837  71.837  1.00  0.00    -0.524 C  
HETATM    2  C   UNL     1     -13.166   9.339  72.098  1.00  0.00    -0.535 C  
ENDROOT
BRANCH   2   3
HETATM    3  C   UNL     1     -11.730   8.833  71.978  1.00  0.00    -0.442 C  
BRANCH   3   4
HETATM    4  C   UNL     1     -11.500   8.001  70.704  1.00  0.00    -0.232 C  
BRANCH   4   5
HETATM    5  N   UNL     1     -10.075   7.744  70.387  1.00  0.00    -0.193 NA 
HETATM    6  C   UNL     1      -9.381   7.034  71.478  1.00  0.00    -0.154 C  
HETATM    7  C   UNL     1      -9.882   5.603  71.697  1.00  0.00    -0.213 C  
HETATM    8  C   UNL     1      -9.827   4.786  70.408  1.00  0.00    -0.309 C  
HETATM    9  C   UNL     1     -10.445   5.529  69.224  1.00  0.00    -0.336 C  
HETATM   10  C   UNL     1      -9.888   6.956  69.125  1.00  0.00    -0.156 C  
BRANCH  10  11
HETATM   11  C   UNL     1     -10.388   7.725  67.877  1.00  0.00    -0.217 C  
HETATM   12  N   UNL     1      -9.870   9.011  67.806  1.00  0.00    -0.160 N  
HETATM   13  O   UNL     1     -11.084   7.190  67.017  1.00  0.00    -0.345 OA 
HETATM   14  H   UNL     1      -9.188   9.265  68.522  1.00  0.00     0.000 HD 
BRANCH  12  15
HETATM   15  C   UNL     1     -10.182  10.008  66.855  1.00  0.00    -0.238 A  
HETATM   16  C   UNL     1      -9.680   9.988  65.534  1.00  0.00    -0.355 A  
HETATM   17  C   UNL     1      -8.759   8.943  64.970  1.00  0.00    -0.200 C  
HETATM   18  C   UNL     1     -10.090  10.985  64.626  1.00  0.00    -0.370 A  
HETATM   19  C   UNL     1     -11.010  11.963  64.993  1.00  0.00    -0.365 A  
HETATM   20  C   UNL     1     -11.512  11.979  66.287  1.00  0.00    -0.408 A  
HETATM   21  C   UNL     1     -11.112  11.012  67.225  1.00  0.00    -0.359 A  
HETATM   22  C   UNL     1     -11.645  11.144  68.632  1.00  0.00    -0.383 C  
ENDBRANCH  12  15
ENDBRANCH  10  11
ENDBRANCH   4   5
ENDBRANCH   3   4
ENDBRANCH   2   3
TORSDOF 5
ENDMDL
MODEL       56
REMARK 921   NORMALIZED FREE ENERGY PREDICTED BY IDOCK:   -4.97 KCAL/MOL
REMARK 922        TOTAL FREE ENERGY PREDICTED BY IDOCK:   -7.37 KCAL/MOL
REMARK 923 INTER-LIGAND FREE ENERGY PREDICTED BY IDOCK:   -6.60 KCAL/MOL
REMARK 924 INTRA-LIGAND FREE ENERGY PREDICTED BY IDOCK:   -0.76 KCAL/MOL
REMARK 927      BINDING AFFINITY PREDICTED BY RF-SCORE:    0.00 PKD
ROOT
HETATM    1  C   UNL     1     -13.957   8.684  72.318  1.00  0.00    -0.472 C  
HETATM    2  C   UNL     1     -12.990   9.779  71.886  1.00  0.00    -0.535 C  
ENDROOT
BRANCH   2   3
HETATM    3  C   UNL     1     -11.618   9.209  71.531  1.00  0.00    -0.439 C  
BRANCH   3   4
HETATM    4  C   UNL     1     -11.463   8.933  70.025  1.00  0.00     0.033 C  
BRANCH   4   5
HETATM    5  N   UNL     1     -10.133   8.413  69.629  1.00  0.00    -0.194 NA 
HETATM    6  C   UNL     1      -9.981   6.978  69.936  1.00  0.00    -0.177 C  
HETATM    7  C   UNL     1     -10.894   6.071  69.107  1.00  0.00    -0.422 C  
HETATM    8  C   UNL     1     -10.718   6.318  67.610  1.00  0.00    -0.391 C  
HETATM    9  C   UNL     1     -10.766   7.805  67.258  1.00  0.00    -0.326 C  
HETATM   10  C   UNL     1      -9.834   8.611  68.173  1.00  0.00    -0.165 C  
BRANCH  10  11
HETATM   11  C   UNL     1      -9.748  10.110  67.794  1.00  0.00    -0.153 C  
HETATM   12  N   UNL     1     -10.911  10.569  67.191  1.00  0.00    -0.265 N  
HETATM   13  O   UNL     1      -8.781  10.806  68.097  1.00  0.00    -0.122 OA 
HETATM   14  H   UNL     1     -11.685   9.907  67.137  1.00  0.00     0.000 HD 
BRANCH  12  15
HETATM   15  C   UNL     1     -11.144  11.852  66.645  1.00  0.00    -0.310 A  
HETATM   16  C   UNL     1     -11.588  12.945  67.423  1.00  0.00    -0.414 A  
HETATM   17  C   UNL     1     -11.883  12.901  68.896  1.00  0.00    -0.352 C  
HETATM   18  C   UNL     1     -11.734  14.209  66.816  1.00  0.00    -0.432 A  
HETATM   19  C   UNL     1     -11.410  14.409  65.477  1.00  0.00    -0.334 A  
HETATM   20  C   UNL     1     -10.963  13.339  64.714  1.00  0.00    -0.365 A  
HETATM   21  C   UNL     1     -10.823  12.061  65.280  1.00  0.00    -0.340 A  
HETATM   22  C   UNL     1     -10.406  10.935  64.365  1.00  0.00    -0.430 C  
ENDBRANCH  12  15
ENDBRANCH  10  11
ENDBRANCH   4   5
ENDBRANCH   3   4
ENDBRANCH   2   3
TORSDOF 5
ENDMDL
MODEL       57
REMARK 921   NORMALIZED FREE ENERGY PREDICTED BY IDOCK:   -4.95 KCAL/MOL
REMARK 922        TOTAL FREE ENERGY PREDICTED BY IDOCK:   -7.34 KCAL/MOL
REMARK 923 INTER-LIGAND FREE ENERGY PREDICTED BY IDOCK:   -6.43 KCAL/MOL
REMARK 924 INTRA-LIGAND FREE ENERGY PREDICTED BY IDOCK:   -0.91 KCAL/MOL
REMARK 927      BINDING AFFINITY PREDICTED BY RF-SCORE:    0.00 PKD
ROOT
HETATM    1  C   UNL     1      -8.342   8.854  64.040  1.00  0.00    -0.168 C  
HETATM    2  C   UNL     1      -8.852  10.085  64.776  1.00  0.00    -0.222 C  
ENDROOT
BRANCH   2   3
HETATM    3  C   UNL     1     -10.025   9.746  65.694  1.00  0.00    -0.352 C  
BRANCH   3   4
HETATM    4  C   UNL     1      -9.593   8.950  66.938  1.00  0.00    -0.190 C  
BRANCH   4   5
HETATM    5  N   UNL     1     -10.665   8.124  67.542  1.00  0.00    -0.213 NA 
HETATM    6  C   UNL     1     -10.823   6.827  66.856  1.00  0.00    -0.331 C  
HETATM    7  C   UNL     1      -9.622   5.892  67.022  1.00  0.00    -0.144 C  
HETATM    8  C   UNL     1      -9.279   5.678  68.495  1.00  0.00    -0.131 C  
HETATM    9  C   UNL     1      -9.205   6.994  69.270  1.00  0.00    -0.139 C  
HETATM   10  C   UNL     1     -10.448   7.855  69.001  1.00  0.00    -0.198 C  
BRANCH  10  11
HETATM   11  C   UNL     1     -10.490   9.151  69.846  1.00  0.00    -0.223 C  
HETATM   12  N   UNL     1     -11.715   9.799  69.759  1.00  0.00    -0.449 N  
HETATM   13  O   UNL     1      -9.559   9.485  70.577  1.00  0.00    -0.249 OA 
HETATM   14  H   UNL     1     -12.442   9.323  69.224  1.00  0.00     0.000 HD 
BRANCH  12  15
HETATM   15  C   UNL     1     -12.068  11.044  70.327  1.00  0.00    -0.362 A  
HETATM   16  C   UNL     1     -11.704  12.280  69.747  1.00  0.00    -0.368 A  
HETATM   17  C   UNL     1     -10.901  12.446  68.487  1.00  0.00    -0.270 C  
HETATM   18  C   UNL     1     -12.151  13.478  70.341  1.00  0.00    -0.415 A  
HETATM   19  C   UNL     1     -12.976  13.465  71.462  1.00  0.00    -0.429 A  
HETATM   20  C   UNL     1     -13.343  12.252  72.027  1.00  0.00    -0.491 A  
HETATM   21  C   UNL     1     -12.902  11.039  71.474  1.00  0.00    -0.555 A  
HETATM   22  C   UNL     1     -13.281   9.766  72.193  1.00  0.00    -0.530 C  
ENDBRANCH  12  15
ENDBRANCH  10  11
ENDBRANCH   4   5
ENDBRANCH   3   4
ENDBRANCH   2   3
TORSDOF 5
ENDMDL
MODEL       58
REMARK 921   NORMALIZED FREE ENERGY PREDICTED BY IDOCK:   -4.95 KCAL/MOL
REMARK 922        TOTAL FREE ENERGY PREDICTED BY IDOCK:   -7.34 KCAL/MOL
REMARK 923 INTER-LIGAND FREE ENERGY PREDICTED BY IDOCK:   -6.42 KCAL/MOL
REMARK 924 INTRA-LIGAND FREE ENERGY PREDICTED BY IDOCK:   -0.92 KCAL/MOL
REMARK 927      BINDING AFFINITY PREDICTED BY RF-SCORE:    0.00 PKD
ROOT
HETATM    1  C   UNL     1      -6.507  14.057  69.305  1.00  0.00    -0.114 C  
HETATM    2  C   UNL     1      -7.947  14.404  68.951  1.00  0.00    -0.109 C  
ENDROOT
BRANCH   2   3
HETATM    3  C   UNL     1      -8.199  14.297  67.448  1.00  0.00    -0.217 C  
BRANCH   3   4
HETATM    4  C   UNL     1      -9.298  13.278  67.103  1.00  0.00    -0.240 C  
BRANCH   4   5
HETATM    5  N   UNL     1     -10.625  13.583  67.689  1.00  0.00    -0.239 NA 
HETATM    6  C   UNL     1     -11.141  14.894  67.248  1.00  0.00    -0.336 C  
HETATM    7  C   UNL     1     -11.473  14.954  65.755  1.00  0.00    -0.281 C  
HETATM    8  C   UNL     1     -12.435  13.838  65.350  1.00  0.00    -0.532 C  
HETATM    9  C   UNL     1     -11.993  12.472  65.875  1.00  0.00    -0.472 C  
HETATM   10  C   UNL     1     -11.660  12.546  67.372  1.00  0.00    -0.370 C  
BRANCH  10  11
HETATM   11  C   UNL     1     -11.315  11.169  67.991  1.00  0.00    -0.312 C  
HETATM   12  N   UNL     1     -11.119  11.242  69.363  1.00  0.00    -0.280 N  
HETATM   13  O   UNL     1     -11.321  10.134  67.327  1.00  0.00    -0.221 OA 
HETATM   14  H   UNL     1     -11.290  12.149  69.798  1.00  0.00     0.000 HD 
BRANCH  12  15
HETATM   15  C   UNL     1     -10.709  10.200  70.226  1.00  0.00    -0.293 A  
HETATM   16  C   UNL     1      -9.378   9.728  70.276  1.00  0.00    -0.236 A  
HETATM   17  C   UNL     1      -8.242  10.239  69.434  1.00  0.00    -0.171 C  
HETATM   18  C   UNL     1      -9.035   8.731  71.211  1.00  0.00    -0.295 A  
HETATM   19  C   UNL     1      -9.971   8.232  72.112  1.00  0.00    -0.343 A  
HETATM   20  C   UNL     1     -11.277   8.701  72.072  1.00  0.00    -0.434 A  
HETATM   21  C   UNL     1     -11.659   9.682  71.142  1.00  0.00    -0.456 A  
HETATM   22  C   UNL     1     -13.115  10.083  71.111  1.00  0.00    -0.472 C  
ENDBRANCH  12  15
ENDBRANCH  10  11
ENDBRANCH   4   5
ENDBRANCH   3   4
ENDBRANCH   2   3
TORSDOF 5
ENDMDL
MODEL       59
REMARK 921   NORMALIZED FREE ENERGY PREDICTED BY IDOCK:   -4.94 KCAL/MOL
REMARK 922        TOTAL FREE ENERGY PREDICTED BY IDOCK:   -7.33 KCAL/MOL
REMARK 923 INTER-LIGAND FREE ENERGY PREDICTED BY IDOCK:   -6.66 KCAL/MOL
REMARK 924 INTRA-LIGAND FREE ENERGY PREDICTED BY IDOCK:   -0.68 KCAL/MOL
REMARK 927      BINDING AFFINITY PREDICTED BY RF-SCORE:    0.00 PKD
ROOT
HETATM    1  C   UNL     1     -12.740  15.613  72.249  1.00  0.00    -0.513 C  
HETATM    2  C   UNL     1     -11.519  15.407  71.363  1.00  0.00    -0.465 C  
ENDROOT
BRANCH   2   3
HETATM    3  C   UNL     1     -11.852  15.616  69.887  1.00  0.00    -0.374 C  
BRANCH   3   4
HETATM    4  C   UNL     1     -10.621  16.013  69.052  1.00  0.00    -0.257 C  
BRANCH   4   5
HETATM    5  N   UNL     1     -10.938  16.557  67.711  1.00  0.00    -0.298 NA 
HETATM    6  C   UNL     1     -10.639  17.999  67.610  1.00  0.00    -0.399 C  
HETATM    7  C   UNL     1      -9.146  18.325  67.699  1.00  0.00    -0.267 C  
HETATM    8  C   UNL     1      -8.338  17.538  66.668  1.00  0.00    -0.291 C  
HETATM    9  C   UNL     1      -8.691  16.051  66.668  1.00  0.00    -0.309 C  
HETATM   10  C   UNL     1     -10.212  15.853  66.604  1.00  0.00    -0.288 C  
BRANCH  10  11
HETATM   11  C   UNL     1     -10.632  14.367  66.484  1.00  0.00    -0.296 C  
HETATM   12  N   UNL     1      -9.559  13.537  66.191  1.00  0.00    -0.429 N  
HETATM   13  O   UNL     1     -11.777  13.991  66.725  1.00  0.00    -0.364 OA 
HETATM   14  H   UNL     1      -8.639  13.979  66.162  1.00  0.00     0.000 HD 
BRANCH  12  15
HETATM   15  C   UNL     1      -9.596  12.149  65.929  1.00  0.00    -0.214 A  
HETATM   16  C   UNL     1     -10.108  11.611  64.727  1.00  0.00    -0.304 A  
HETATM   17  C   UNL     1     -10.684  12.412  63.592  1.00  0.00    -0.497 C  
HETATM   18  C   UNL     1     -10.051  10.219  64.514  1.00  0.00    -0.286 A  
HETATM   19  C   UNL     1      -9.463   9.369  65.447  1.00  0.00    -0.322 A  
HETATM   20  C   UNL     1      -8.949   9.896  66.624  1.00  0.00    -0.157 A  
HETATM   21  C   UNL     1      -9.006  11.276  66.878  1.00  0.00    -0.163 A  
HETATM   22  C   UNL     1      -8.496  11.761  68.215  1.00  0.00    -0.161 C  
ENDBRANCH  12  15
ENDBRANCH  10  11
ENDBRANCH   4   5
ENDBRANCH   3   4
ENDBRANCH   2   3
TORSDOF 5
ENDMDL
MODEL       60
REMARK 921   NORMALIZED FREE ENERGY PREDICTED BY IDOCK:   -4.90 KCAL/MOL
REMARK 922        TOTAL FREE ENERGY PREDICTED BY IDOCK:   -7.29 KCAL/MOL
REMARK 923 INTER-LIGAND FREE ENERGY PREDICTED BY IDOCK:   -6.54 KCAL/MOL
REMARK 924 INTRA-LIGAND FREE ENERGY PREDICTED BY IDOCK:   -0.74 KCAL/MOL
REMARK 927      BINDING AFFINITY PREDICTED BY RF-SCORE:    0.00 PKD
ROOT
HETATM    1  C   UNL     1     -13.334  13.765  72.043  1.00  0.00    -0.536 C  
HETATM    2  C   UNL     1     -13.406  15.071  71.264  1.00  0.00    -0.510 C  
ENDROOT
BRANCH   2   3
HETATM    3  C   UNL     1     -12.038  15.479  70.721  1.00  0.00    -0.435 C  
BRANCH   3   4
HETATM    4  C   UNL     1     -11.495  14.486  69.678  1.00  0.00    -0.288 C  
BRANCH   4   5
HETATM    5  N   UNL     1     -11.536  14.979  68.281  1.00  0.00    -0.329 NA 
HETATM    6  C   UNL     1     -11.129  16.394  68.178  1.00  0.00    -0.320 C  
HETATM    7  C   UNL     1      -9.657  16.637  68.518  1.00  0.00    -0.241 C  
HETATM    8  C   UNL     1      -8.734  15.754  67.680  1.00  0.00    -0.178 C  
HETATM    9  C   UNL     1      -9.179  14.291  67.675  1.00  0.00    -0.194 C  
HETATM   10  C   UNL     1     -10.675  14.178  67.351  1.00  0.00    -0.284 C  
BRANCH  10  11
HETATM   11  C   UNL     1     -11.165  12.715  67.217  1.00  0.00    -0.298 C  
HETATM   12  N   UNL     1     -10.278  11.808  67.781  1.00  0.00    -0.188 N  
HETATM   13  O   UNL     1     -12.266  12.435  66.747  1.00  0.00    -0.551 OA 
HETATM   14  H   UNL     1      -9.471  12.204  68.264  1.00  0.00     0.000 HD 
BRANCH  12  15
HETATM   15  C   UNL     1     -10.367  10.398  67.761  1.00  0.00    -0.206 A  
HETATM   16  C   UNL     1     -10.084   9.630  66.609  1.00  0.00    -0.307 A  
HETATM   17  C   UNL     1      -9.673  10.185  65.273  1.00  0.00    -0.365 C  
HETATM   18  C   UNL     1     -10.132   8.224  66.688  1.00  0.00    -0.351 A  
HETATM   19  C   UNL     1     -10.414   7.577  67.888  1.00  0.00    -0.266 A  
HETATM   20  C   UNL     1     -10.682   8.329  69.024  1.00  0.00    -0.098 A  
HETATM   21  C   UNL     1     -10.660   9.733  68.978  1.00  0.00    -0.238 A  
HETATM   22  C   UNL     1     -11.038  10.477  70.236  1.00  0.00    -0.359 C  
ENDBRANCH  12  15
ENDBRANCH  10  11
ENDBRANCH   4   5
ENDBRANCH   3   4
ENDBRANCH   2   3
TORSDOF 5
ENDMDL
MODEL       61
REMARK 921   NORMALIZED FREE ENERGY PREDICTED BY IDOCK:   -4.90 KCAL/MOL
REMARK 922        TOTAL FREE ENERGY PREDICTED BY IDOCK:   -7.28 KCAL/MOL
REMARK 923 INTER-LIGAND FREE ENERGY PREDICTED BY IDOCK:   -6.59 KCAL/MOL
REMARK 924 INTRA-LIGAND FREE ENERGY PREDICTED BY IDOCK:   -0.69 KCAL/MOL
REMARK 927      BINDING AFFINITY PREDICTED BY RF-SCORE:    0.00 PKD
ROOT
HETATM    1  C   UNL     1     -10.483   5.513  71.699  1.00  0.00    -0.292 C  
HETATM    2  C   UNL     1     -10.614   5.708  70.194  1.00  0.00    -0.380 C  
ENDROOT
BRANCH   2   3
HETATM    3  C   UNL     1     -11.463   6.934  69.858  1.00  0.00    -0.294 C  
BRANCH   3   4
HETATM    4  C   UNL     1     -10.632   8.082  69.257  1.00  0.00    -0.184 C  
BRANCH   4   5
HETATM    5  N   UNL     1     -10.570   9.300  70.098  1.00  0.00    -0.217 NA 
HETATM    6  C   UNL     1      -9.709   9.117  71.283  1.00  0.00    -0.281 C  
HETATM    7  C   UNL     1      -8.227   8.934  70.944  1.00  0.00    -0.207 C  
HETATM    8  C   UNL     1      -7.706  10.079  70.077  1.00  0.00    -0.181 C  
HETATM    9  C   UNL     1      -8.624  10.372  68.891  1.00  0.00    -0.149 C  
HETATM   10  C   UNL     1     -10.082  10.505  69.351  1.00  0.00    -0.209 C  
BRANCH  10  11
HETATM   11  C   UNL     1     -11.049  10.917  68.214  1.00  0.00    -0.266 C  
HETATM   12  N   UNL     1     -10.392  11.542  67.163  1.00  0.00    -0.210 N  
HETATM   13  O   UNL     1     -12.242  10.619  68.230  1.00  0.00    -0.345 OA 
HETATM   14  H   UNL     1      -9.375  11.590  67.229  1.00  0.00     0.000 HD 
BRANCH  12  15
HETATM   15  C   UNL     1     -10.973  12.119  66.011  1.00  0.00    -0.293 A  
HETATM   16  C   UNL     1     -11.749  13.300  66.056  1.00  0.00    -0.408 A  
HETATM   17  C   UNL     1     -12.071  14.081  67.299  1.00  0.00    -0.405 C  
HETATM   18  C   UNL     1     -12.240  13.848  64.854  1.00  0.00    -0.445 A  
HETATM   19  C   UNL     1     -11.941  13.273  63.622  1.00  0.00    -0.547 A  
HETATM   20  C   UNL     1     -11.171  12.120  63.575  1.00  0.00    -0.536 A  
HETATM   21  C   UNL     1     -10.680  11.534  64.754  1.00  0.00    -0.366 A  
HETATM   22  C   UNL     1      -9.915  10.239  64.623  1.00  0.00    -0.377 C  
ENDBRANCH  12  15
ENDBRANCH  10  11
ENDBRANCH   4   5
ENDBRANCH   3   4
ENDBRANCH   2   3
TORSDOF 5
ENDMDL
MODEL       62
REMARK 921   NORMALIZED FREE ENERGY PREDICTED BY IDOCK:   -4.89 KCAL/MOL
REMARK 922        TOTAL FREE ENERGY PREDICTED BY IDOCK:   -7.27 KCAL/MOL
REMARK 923 INTER-LIGAND FREE ENERGY PREDICTED BY IDOCK:   -6.29 KCAL/MOL
REMARK 924 INTRA-LIGAND FREE ENERGY PREDICTED BY IDOCK:   -0.98 KCAL/MOL
REMARK 927      BINDING AFFINITY PREDICTED BY RF-SCORE:    0.00 PKD
ROOT
HETATM    1  C   UNL     1     -11.802   7.246  72.087  1.00  0.00    -0.324 C  
HETATM    2  C   UNL     1     -12.219   8.693  72.307  1.00  0.00    -0.447 C  
ENDROOT
BRANCH   2   3
HETATM    3  C   UNL     1     -11.387   9.654  71.461  1.00  0.00    -0.420 C  
BRANCH   3   4
HETATM    4  C   UNL     1     -10.902   9.017  70.147  1.00  0.00    -0.237 C  
BRANCH   4   5
HETATM    5  N   UNL     1      -9.532   9.414  69.741  1.00  0.00    -0.188 NA 
HETATM    6  C   UNL     1      -8.541   9.164  70.805  1.00  0.00    -0.219 C  
HETATM    7  C   UNL     1      -8.325   7.678  71.107  1.00  0.00    -0.111 C  
HETATM    8  C   UNL     1      -7.962   6.897  69.846  1.00  0.00    -0.120 C  
HETATM    9  C   UNL     1      -8.906   7.204  68.682  1.00  0.00    -0.126 C  
HETATM   10  C   UNL     1      -9.065   8.720  68.497  1.00  0.00    -0.138 C  
BRANCH  10  11
HETATM   11  C   UNL     1      -9.917   9.100  67.261  1.00  0.00    -0.211 C  
HETATM   12  N   UNL     1      -9.687  10.402  66.841  1.00  0.00    -0.176 N  
HETATM   13  O   UNL     1     -10.632   8.282  66.684  1.00  0.00    -0.268 OA 
HETATM   14  H   UNL     1      -8.955  10.915  67.334  1.00  0.00     0.000 HD 
BRANCH  12  15
HETATM   15  C   UNL     1     -10.352  11.099  65.806  1.00  0.00    -0.260 A  
HETATM   16  C   UNL     1     -10.046  10.911  64.439  1.00  0.00    -0.402 A  
HETATM   17  C   UNL     1      -8.992   9.983  63.903  1.00  0.00    -0.271 C  
HETATM   18  C   UNL     1     -10.800  11.595  63.464  1.00  0.00    -0.497 A  
HETATM   19  C   UNL     1     -11.864  12.420  63.820  1.00  0.00    -0.587 A  
HETATM   20  C   UNL     1     -12.172  12.597  65.161  1.00  0.00    -0.539 A  
HETATM   21  C   UNL     1     -11.432  11.946  66.162  1.00  0.00    -0.352 A  
HETATM   22  C   UNL     1     -11.781  12.252  67.599  1.00  0.00    -0.403 C  
ENDBRANCH  12  15
ENDBRANCH  10  11
ENDBRANCH   4   5
ENDBRANCH   3   4
ENDBRANCH   2   3
TORSDOF 5
ENDMDL
MODEL       63
REMARK 921   NORMALIZED FREE ENERGY PREDICTED BY IDOCK:   -4.88 KCAL/MOL
REMARK 922        TOTAL FREE ENERGY PREDICTED BY IDOCK:   -7.25 KCAL/MOL
REMARK 923 INTER-LIGAND FREE ENERGY PREDICTED BY IDOCK:   -6.31 KCAL/MOL
REMARK 924 INTRA-LIGAND FREE ENERGY PREDICTED BY IDOCK:   -0.94 KCAL/MOL
REMARK 927      BINDING AFFINITY PREDICTED BY RF-SCORE:    0.00 PKD
ROOT
HETATM    1  C   UNL     1     -11.361  16.202  70.464  1.00  0.00    -0.392 C  
HETATM    2  C   UNL     1     -12.465  15.237  70.051  1.00  0.00    -0.330 C  
ENDROOT
BRANCH   2   3
HETATM    3  C   UNL     1     -12.121  14.509  68.754  1.00  0.00    -0.256 C  
BRANCH   3   4
HETATM    4  C   UNL     1     -10.622  14.177  68.641  1.00  0.00    -0.249 C  
BRANCH   4   5
HETATM    5  N   UNL     1     -10.234  13.513  67.374  1.00  0.00    -0.236 NA 
HETATM    6  C   UNL     1      -9.251  14.305  66.609  1.00  0.00    -0.255 C  
HETATM    7  C   UNL     1      -7.887  14.421  67.295  1.00  0.00    -0.188 C  
HETATM    8  C   UNL     1      -7.314  13.048  67.639  1.00  0.00    -0.147 C  
HETATM    9  C   UNL     1      -8.334  12.154  68.344  1.00  0.00    -0.143 C  
HETATM   10  C   UNL     1      -9.666  12.141  67.580  1.00  0.00    -0.188 C  
BRANCH  10  11
HETATM   11  C   UNL     1     -10.706  11.163  68.179  1.00  0.00    -0.204 C  
HETATM   12  N   UNL     1     -10.390  10.785  69.477  1.00  0.00    -0.383 N  
HETATM   13  O   UNL     1     -11.735  10.856  67.580  1.00  0.00    -0.566 OA 
HETATM   14  H   UNL     1      -9.576  11.237  69.895  1.00  0.00     0.000 HD 
BRANCH  12  15
HETATM   15  C   UNL     1     -11.069   9.845  70.285  1.00  0.00    -0.308 A  
HETATM   16  C   UNL     1     -10.705   8.481  70.340  1.00  0.00    -0.246 A  
HETATM   17  C   UNL     1      -9.588   7.847  69.560  1.00  0.00    -0.160 C  
HETATM   18  C   UNL     1     -11.391   7.620  71.221  1.00  0.00    -0.286 A  
HETATM   19  C   UNL     1     -12.390   8.096  72.066  1.00  0.00    -0.380 A  
HETATM   20  C   UNL     1     -12.741   9.438  72.021  1.00  0.00    -0.483 A  
HETATM   21  C   UNL     1     -12.092  10.322  71.143  1.00  0.00    -0.494 A  
HETATM   22  C   UNL     1     -12.585  11.749  71.100  1.00  0.00    -0.412 C  
ENDBRANCH  12  15
ENDBRANCH  10  11
ENDBRANCH   4   5
ENDBRANCH   3   4
ENDBRANCH   2   3
TORSDOF 5
ENDMDL
MODEL       64
REMARK 921   NORMALIZED FREE ENERGY PREDICTED BY IDOCK:   -4.86 KCAL/MOL
REMARK 922        TOTAL FREE ENERGY PREDICTED BY IDOCK:   -7.23 KCAL/MOL
REMARK 923 INTER-LIGAND FREE ENERGY PREDICTED BY IDOCK:   -6.27 KCAL/MOL
REMARK 924 INTRA-LIGAND FREE ENERGY PREDICTED BY IDOCK:   -0.96 KCAL/MOL
REMARK 927      BINDING AFFINITY PREDICTED BY RF-SCORE:    0.00 PKD
ROOT
HETATM    1  C   UNL     1     -10.371   8.321  72.339  1.00  0.00    -0.402 C  
HETATM    2  C   UNL     1      -9.898   7.744  71.011  1.00  0.00    -0.186 C  
ENDROOT
BRANCH   2   3
HETATM    3  C   UNL     1     -10.220   8.677  69.846  1.00  0.00    -0.206 C  
BRANCH   3   4
HETATM    4  C   UNL     1     -10.770  10.037  70.311  1.00  0.00    -0.309 C  
BRANCH   4   5
HETATM    5  N   UNL     1     -12.127  10.356  69.808  1.00  0.00    -0.190 NA 
HETATM    6  C   UNL     1     -13.174  10.056  70.804  1.00  0.00    -0.208 C  
HETATM    7  C   UNL     1     -13.118  10.951  72.045  1.00  0.00    -0.462 C  
HETATM    8  C   UNL     1     -13.146  12.431  71.669  1.00  0.00    -0.408 C  
HETATM    9  C   UNL     1     -12.145  12.769  70.565  1.00  0.00    -0.369 C  
HETATM   10  C   UNL     1     -12.278  11.788  69.391  1.00  0.00    -0.157 C  
BRANCH  10  11
HETATM   11  C   UNL     1     -11.370  12.144  68.189  1.00  0.00    -0.293 C  
HETATM   12  N   UNL     1     -11.819  11.580  67.002  1.00  0.00    -0.012 N  
HETATM   13  O   UNL     1     -10.424  12.922  68.293  1.00  0.00    -0.229 OA 
HETATM   14  H   UNL     1     -12.704  11.075  67.048  1.00  0.00     0.000 HD 
BRANCH  12  15
HETATM   15  C   UNL     1     -11.188  11.628  65.738  1.00  0.00    -0.230 A  
HETATM   16  C   UNL     1     -11.403  12.677  64.816  1.00  0.00    -0.350 A  
HETATM   17  C   UNL     1     -12.318  13.851  65.031  1.00  0.00    -0.452 C  
HETATM   18  C   UNL     1     -10.686  12.685  63.602  1.00  0.00    -0.410 A  
HETATM   19  C   UNL     1      -9.742  11.704  63.314  1.00  0.00    -0.390 A  
HETATM   20  C   UNL     1      -9.521  10.679  64.224  1.00  0.00    -0.321 A  
HETATM   21  C   UNL     1     -10.231  10.628  65.435  1.00  0.00    -0.341 A  
HETATM   22  C   UNL     1      -9.989   9.439  66.335  1.00  0.00    -0.346 C  
ENDBRANCH  12  15
ENDBRANCH  10  11
ENDBRANCH   4   5
ENDBRANCH   3   4
ENDBRANCH   2   3
TORSDOF 5
ENDMDL
MODEL       65
REMARK 921   NORMALIZED FREE ENERGY PREDICTED BY IDOCK:   -4.85 KCAL/MOL
REMARK 922        TOTAL FREE ENERGY PREDICTED BY IDOCK:   -7.22 KCAL/MOL
REMARK 923 INTER-LIGAND FREE ENERGY PREDICTED BY IDOCK:   -6.29 KCAL/MOL
REMARK 924 INTRA-LIGAND FREE ENERGY PREDICTED BY IDOCK:   -0.93 KCAL/MOL
REMARK 927      BINDING AFFINITY PREDICTED BY RF-SCORE:    0.00 PKD
ROOT
HETATM    1  C   UNL     1      -8.961   6.672  67.546  1.00  0.00    -0.114 C  
HETATM    2  C   UNL     1     -10.195   7.348  66.964  1.00  0.00    -0.357 C  
ENDROOT
BRANCH   2   3
HETATM    3  C   UNL     1     -10.339   8.784  67.467  1.00  0.00    -0.334 C  
BRANCH   3   4
HETATM    4  C   UNL     1     -10.740   9.764  66.350  1.00  0.00     0.058 C  
BRANCH   4   5
HETATM    5  N   UNL     1      -9.690  10.746  65.989  1.00  0.00    -0.208 NA 
HETATM    6  C   UNL     1      -8.648  10.156  65.127  1.00  0.00    -0.164 C  
HETATM    7  C   UNL     1      -9.151   9.758  63.737  1.00  0.00    -0.270 C  
HETATM    8  C   UNL     1      -9.827  10.931  63.029  1.00  0.00    -0.358 C  
HETATM    9  C   UNL     1     -10.845  11.639  63.923  1.00  0.00    -0.471 C  
HETATM   10  C   UNL     1     -10.235  11.959  65.295  1.00  0.00    -0.272 C  
BRANCH  10  11
HETATM   11  C   UNL     1     -11.178  12.779  66.209  1.00  0.00    -0.300 C  
HETATM   12  N   UNL     1     -10.546  13.213  67.366  1.00  0.00    -0.241 N  
HETATM   13  O   UNL     1     -12.321  13.076  65.869  1.00  0.00    -0.439 OA 
HETATM   14  H   UNL     1      -9.549  13.009  67.442  1.00  0.00     0.000 HD 
BRANCH  12  15
HETATM   15  C   UNL     1     -11.128  13.906  68.452  1.00  0.00    -0.255 A  
HETATM   16  C   UNL     1     -11.191  15.317  68.513  1.00  0.00    -0.308 A  
HETATM   17  C   UNL     1     -10.651  16.257  67.472  1.00  0.00    -0.310 C  
HETATM   18  C   UNL     1     -11.847  15.931  69.599  1.00  0.00    -0.298 A  
HETATM   19  C   UNL     1     -12.468  15.175  70.589  1.00  0.00    -0.442 A  
HETATM   20  C   UNL     1     -12.417  13.790  70.525  1.00  0.00    -0.409 A  
HETATM   21  C   UNL     1     -11.757  13.143  69.468  1.00  0.00    -0.382 A  
HETATM   22  C   UNL     1     -11.680  11.635  69.512  1.00  0.00    -0.410 C  
ENDBRANCH  12  15
ENDBRANCH  10  11
ENDBRANCH   4   5
ENDBRANCH   3   4
ENDBRANCH   2   3
TORSDOF 5
ENDMDL
MODEL       66
REMARK 921   NORMALIZED FREE ENERGY PREDICTED BY IDOCK:   -4.85 KCAL/MOL
REMARK 922        TOTAL FREE ENERGY PREDICTED BY IDOCK:   -7.21 KCAL/MOL
REMARK 923 INTER-LIGAND FREE ENERGY PREDICTED BY IDOCK:   -6.30 KCAL/MOL
REMARK 924 INTRA-LIGAND FREE ENERGY PREDICTED BY IDOCK:   -0.91 KCAL/MOL
REMARK 927      BINDING AFFINITY PREDICTED BY RF-SCORE:    0.00 PKD
ROOT
HETATM    1  C   UNL     1      -9.885   4.622  66.554  1.00  0.00    -0.241 C  
HETATM    2  C   UNL     1     -10.658   5.539  67.491  1.00  0.00    -0.252 C  
ENDROOT
BRANCH   2   3
HETATM    3  C   UNL     1     -10.174   5.408  68.934  1.00  0.00    -0.266 C  
BRANCH   3   4
HETATM    4  C   UNL     1      -9.992   6.771  69.624  1.00  0.00    -0.173 C  
BRANCH   4   5
HETATM    5  N   UNL     1     -11.257   7.428  70.029  1.00  0.00    -0.223 NA 
HETATM    6  C   UNL     1     -12.045   6.595  70.958  1.00  0.00    -0.327 C  
HETATM    7  C   UNL     1     -11.380   6.399  72.324  1.00  0.00    -0.330 C  
HETATM    8  C   UNL     1     -11.030   7.737  72.973  1.00  0.00    -0.442 C  
HETATM    9  C   UNL     1     -10.300   8.674  72.011  1.00  0.00    -0.416 C  
HETATM   10  C   UNL     1     -11.045   8.766  70.671  1.00  0.00    -0.246 C  
BRANCH  10  11
HETATM   11  C   UNL     1     -10.420   9.790  69.692  1.00  0.00    -0.242 C  
HETATM   12  N   UNL     1     -11.297  10.154  68.679  1.00  0.00    -0.478 N  
HETATM   13  O   UNL     1      -9.307  10.278  69.879  1.00  0.00    -0.160 OA 
HETATM   14  H   UNL     1     -12.241   9.772  68.738  1.00  0.00     0.000 HD 
BRANCH  12  15
HETATM   15  C   UNL     1     -11.028  10.994  67.575  1.00  0.00    -0.281 A  
HETATM   16  C   UNL     1     -11.313  12.378  67.580  1.00  0.00    -0.375 A  
HETATM   17  C   UNL     1     -11.939  13.133  68.720  1.00  0.00    -0.316 C  
HETATM   18  C   UNL     1     -10.955  13.160  66.463  1.00  0.00    -0.303 A  
HETATM   19  C   UNL     1     -10.289  12.604  65.374  1.00  0.00    -0.311 A  
HETATM   20  C   UNL     1      -9.999  11.247  65.372  1.00  0.00    -0.297 A  
HETATM   21  C   UNL     1     -10.357  10.433  66.459  1.00  0.00    -0.287 A  
HETATM   22  C   UNL     1     -10.074   8.953  66.346  1.00  0.00    -0.333 C  
ENDBRANCH  12  15
ENDBRANCH  10  11
ENDBRANCH   4   5
ENDBRANCH   3   4
ENDBRANCH   2   3
TORSDOF 5
ENDMDL
MODEL       67
REMARK 921   NORMALIZED FREE ENERGY PREDICTED BY IDOCK:   -4.84 KCAL/MOL
REMARK 922        TOTAL FREE ENERGY PREDICTED BY IDOCK:   -7.21 KCAL/MOL
REMARK 923 INTER-LIGAND FREE ENERGY PREDICTED BY IDOCK:   -7.01 KCAL/MOL
REMARK 924 INTRA-LIGAND FREE ENERGY PREDICTED BY IDOCK:   -0.20 KCAL/MOL
REMARK 927      BINDING AFFINITY PREDICTED BY RF-SCORE:    0.00 PKD
ROOT
HETATM    1  C   UNL     1     -12.267  14.558  64.159  1.00  0.00    -0.372 C  
HETATM    2  C   UNL     1     -12.620  13.863  65.467  1.00  0.00    -0.560 C  
ENDROOT
BRANCH   2   3
HETATM    3  C   UNL     1     -11.639  14.229  66.580  1.00  0.00    -0.397 C  
BRANCH   3   4
HETATM    4  C   UNL     1     -12.135  13.797  67.972  1.00  0.00    -0.280 C  
BRANCH   4   5
HETATM    5  N   UNL     1     -11.068  13.674  68.993  1.00  0.00    -0.257 NA 
HETATM    6  C   UNL     1     -10.608  14.989  69.479  1.00  0.00    -0.254 C  
HETATM    7  C   UNL     1     -11.669  15.758  70.272  1.00  0.00    -0.373 C  
HETATM    8  C   UNL     1     -12.217  14.924  71.428  1.00  0.00    -0.391 C  
HETATM    9  C   UNL     1     -12.613  13.514  70.989  1.00  0.00    -0.438 C  
HETATM   10  C   UNL     1     -11.484  12.859  70.181  1.00  0.00     0.078 C  
BRANCH  10  11
HETATM   11  C   UNL     1     -11.775  11.386  69.804  1.00  0.00    -0.344 C  
HETATM   12  N   UNL     1     -11.365  10.498  70.789  1.00  0.00    -0.382 N  
HETATM   13  O   UNL     1     -12.391  11.082  68.784  1.00  0.00    -0.533 OA 
HETATM   14  H   UNL     1     -10.998  10.911  71.647  1.00  0.00     0.000 HD 
BRANCH  12  15
HETATM   15  C   UNL     1     -11.398   9.086  70.737  1.00  0.00    -0.277 A  
HETATM   16  C   UNL     1     -10.364   8.318  70.157  1.00  0.00    -0.212 A  
HETATM   17  C   UNL     1      -9.123   8.874  69.516  1.00  0.00    -0.146 C  
HETATM   18  C   UNL     1     -10.441   6.911  70.203  1.00  0.00    -0.233 A  
HETATM   19  C   UNL     1     -11.494   6.265  70.844  1.00  0.00    -0.377 A  
HETATM   20  C   UNL     1     -12.506   7.018  71.424  1.00  0.00    -0.426 A  
HETATM   21  C   UNL     1     -12.472   8.422  71.382  1.00  0.00    -0.313 A  
HETATM   22  C   UNL     1     -13.648   9.165  71.968  1.00  0.00    -0.520 C  
ENDBRANCH  12  15
ENDBRANCH  10  11
ENDBRANCH   4   5
ENDBRANCH   3   4
ENDBRANCH   2   3
TORSDOF 5
ENDMDL
MODEL       68
REMARK 921   NORMALIZED FREE ENERGY PREDICTED BY IDOCK:   -4.83 KCAL/MOL
REMARK 922        TOTAL FREE ENERGY PREDICTED BY IDOCK:   -7.19 KCAL/MOL
REMARK 923 INTER-LIGAND FREE ENERGY PREDICTED BY IDOCK:   -6.55 KCAL/MOL
REMARK 924 INTRA-LIGAND FREE ENERGY PREDICTED BY IDOCK:   -0.64 KCAL/MOL
REMARK 927      BINDING AFFINITY PREDICTED BY RF-SCORE:    0.00 PKD
ROOT
HETATM    1  C   UNL     1     -12.838  14.866  73.382  1.00  0.00    -0.638 C  
HETATM    2  C   UNL     1     -12.028  15.573  72.305  1.00  0.00    -0.542 C  
ENDROOT
BRANCH   2   3
HETATM    3  C   UNL     1     -12.632  15.364  70.918  1.00  0.00    -0.496 C  
BRANCH   3   4
HETATM    4  C   UNL     1     -11.907  14.268  70.116  1.00  0.00    -0.312 C  
BRANCH   4   5
HETATM    5  N   UNL     1     -11.661  14.608  68.694  1.00  0.00    -0.298 NA 
HETATM    6  C   UNL     1     -11.196  15.999  68.526  1.00  0.00    -0.374 C  
HETATM    7  C   UNL     1      -9.810  16.260  69.121  1.00  0.00    -0.258 C  
HETATM    8  C   UNL     1      -8.772  15.281  68.576  1.00  0.00    -0.176 C  
HETATM    9  C   UNL     1      -9.255  13.832  68.636  1.00  0.00    -0.069 C  
HETATM   10  C   UNL     1     -10.663  13.702  68.038  1.00  0.00    -0.247 C  
BRANCH  10  11
HETATM   11  C   UNL     1     -11.165  12.239  67.963  1.00  0.00    -0.269 C  
HETATM   12  N   UNL     1     -10.201  11.328  68.373  1.00  0.00    -0.188 N  
HETATM   13  O   UNL     1     -12.325  11.961  67.664  1.00  0.00    -0.357 OA 
HETATM   14  H   UNL     1      -9.330  11.721  68.731  1.00  0.00     0.000 HD 
BRANCH  12  15
HETATM   15  C   UNL     1     -10.289   9.918  68.349  1.00  0.00    -0.198 A  
HETATM   16  C   UNL     1     -10.549   9.149  69.506  1.00  0.00    -0.233 A  
HETATM   17  C   UNL     1     -10.747   9.701  70.891  1.00  0.00    -0.402 C  
HETATM   18  C   UNL     1     -10.687   7.751  69.389  1.00  0.00    -0.177 A  
HETATM   19  C   UNL     1     -10.614   7.120  68.150  1.00  0.00    -0.241 A  
HETATM   20  C   UNL     1     -10.370   7.874  67.011  1.00  0.00    -0.411 A  
HETATM   21  C   UNL     1     -10.208   9.267  67.093  1.00  0.00    -0.324 A  
HETATM   22  C   UNL     1      -9.869  10.005  65.820  1.00  0.00    -0.345 C  
ENDBRANCH  12  15
ENDBRANCH  10  11
ENDBRANCH   4   5
ENDBRANCH   3   4
ENDBRANCH   2   3
TORSDOF 5
ENDMDL
MODEL       69
REMARK 921   NORMALIZED FREE ENERGY PREDICTED BY IDOCK:   -4.80 KCAL/MOL
REMARK 922        TOTAL FREE ENERGY PREDICTED BY IDOCK:   -7.15 KCAL/MOL
REMARK 923 INTER-LIGAND FREE ENERGY PREDICTED BY IDOCK:   -6.16 KCAL/MOL
REMARK 924 INTRA-LIGAND FREE ENERGY PREDICTED BY IDOCK:   -0.98 KCAL/MOL
REMARK 927      BINDING AFFINITY PREDICTED BY RF-SCORE:    0.00 PKD
ROOT
HETATM    1  C   UNL     1     -10.908  19.665  65.701  1.00  0.00    -0.358 C  
HETATM    2  C   UNL     1     -10.726  19.564  67.209  1.00  0.00    -0.604 C  
ENDROOT
BRANCH   2   3
HETATM    3  C   UNL     1      -9.353  20.073  67.646  1.00  0.00    -0.476 C  
BRANCH   3   4
HETATM    4  C   UNL     1      -8.278  18.972  67.621  1.00  0.00    -0.275 C  
BRANCH   4   5
HETATM    5  N   UNL     1      -7.821  18.591  66.263  1.00  0.00    -0.340 NA 
HETATM    6  C   UNL     1      -6.575  19.284  65.880  1.00  0.00    -0.235 C  
HETATM    7  C   UNL     1      -5.359  18.869  66.713  1.00  0.00    -0.153 C  
HETATM    8  C   UNL     1      -5.156  17.355  66.692  1.00  0.00    -0.202 C  
HETATM    9  C   UNL     1      -6.448  16.593  66.983  1.00  0.00    -0.231 C  
HETATM   10  C   UNL     1      -7.598  17.116  66.111  1.00  0.00    -0.269 C  
BRANCH  10  11
HETATM   11  C   UNL     1      -8.909  16.308  66.275  1.00  0.00    -0.331 C  
HETATM   12  N   UNL     1      -8.907  15.526  67.421  1.00  0.00    -0.184 N  
HETATM   13  O   UNL     1      -9.861  16.445  65.509  1.00  0.00    -0.522 OA 
HETATM   14  H   UNL     1      -8.100  15.627  68.038  1.00  0.00     0.000 HD 
BRANCH  12  15
HETATM   15  C   UNL     1      -9.898  14.606  67.832  1.00  0.00    -0.217 A  
HETATM   16  C   UNL     1     -11.053  14.994  68.546  1.00  0.00    -0.279 A  
HETATM   17  C   UNL     1     -11.381  16.398  68.973  1.00  0.00    -0.253 C  
HETATM   18  C   UNL     1     -12.027  14.025  68.862  1.00  0.00    -0.387 A  
HETATM   19  C   UNL     1     -11.891  12.702  68.449  1.00  0.00    -0.347 A  
HETATM   20  C   UNL     1     -10.761  12.321  67.738  1.00  0.00    -0.246 A  
HETATM   21  C   UNL     1      -9.762  13.255  67.421  1.00  0.00    -0.221 A  
HETATM   22  C   UNL     1      -8.529  12.745  66.713  1.00  0.00    -0.036 C  
ENDBRANCH  12  15
ENDBRANCH  10  11
ENDBRANCH   4   5
ENDBRANCH   3   4
ENDBRANCH   2   3
TORSDOF 5
ENDMDL
MODEL       70
REMARK 921   NORMALIZED FREE ENERGY PREDICTED BY IDOCK:   -4.79 KCAL/MOL
REMARK 922        TOTAL FREE ENERGY PREDICTED BY IDOCK:   -7.14 KCAL/MOL
REMARK 923 INTER-LIGAND FREE ENERGY PREDICTED BY IDOCK:   -6.27 KCAL/MOL
REMARK 924 INTRA-LIGAND FREE ENERGY PREDICTED BY IDOCK:   -0.87 KCAL/MOL
REMARK 927      BINDING AFFINITY PREDICTED BY RF-SCORE:    0.00 PKD
ROOT
HETATM    1  C   UNL     1     -12.033  14.905  64.451  1.00  0.00    -0.408 C  
HETATM    2  C   UNL     1     -12.602  13.986  65.525  1.00  0.00    -0.543 C  
ENDROOT
BRANCH   2   3
HETATM    3  C   UNL     1     -11.536  13.580  66.540  1.00  0.00    -0.365 C  
BRANCH   3   4
HETATM    4  C   UNL     1     -10.401  12.754  65.908  1.00  0.00    -0.283 C  
BRANCH   4   5
HETATM    5  N   UNL     1     -10.805  11.403  65.451  1.00  0.00    -0.261 NA 
HETATM    6  C   UNL     1     -11.031  11.352  63.994  1.00  0.00    -0.355 C  
HETATM    7  C   UNL     1      -9.760  11.560  63.166  1.00  0.00    -0.412 C  
HETATM    8  C   UNL     1      -8.661  10.578  63.571  1.00  0.00    -0.187 C  
HETATM    9  C   UNL     1      -8.462  10.523  65.085  1.00  0.00    -0.170 C  
HETATM   10  C   UNL     1      -9.807  10.342  65.804  1.00  0.00    -0.257 C  
BRANCH  10  11
HETATM   11  C   UNL     1      -9.663  10.162  67.336  1.00  0.00    -0.161 C  
HETATM   12  N   UNL     1     -10.796   9.604  67.911  1.00  0.00    -0.426 N  
HETATM   13  O   UNL     1      -8.613  10.406  67.926  1.00  0.00    -0.117 OA 
HETATM   14  H   UNL     1     -11.537   9.320  67.269  1.00  0.00     0.000 HD 
BRANCH  12  15
HETATM   15  C   UNL     1     -11.040   9.383  69.285  1.00  0.00    -0.045 A  
HETATM   16  C   UNL     1     -11.582  10.374  70.134  1.00  0.00    -0.392 A  
HETATM   17  C   UNL     1     -11.953  11.770  69.715  1.00  0.00    -0.392 C  
HETATM   18  C   UNL     1     -11.856  10.055  71.480  1.00  0.00    -0.406 A  
HETATM   19  C   UNL     1     -11.641   8.773  71.976  1.00  0.00    -0.436 A  
HETATM   20  C   UNL     1     -11.118   7.795  71.141  1.00  0.00    -0.269 A  
HETATM   21  C   UNL     1     -10.816   8.081  69.800  1.00  0.00    -0.194 A  
HETATM   22  C   UNL     1     -10.179   6.985  68.979  1.00  0.00    -0.191 C  
ENDBRANCH  12  15
ENDBRANCH  10  11
ENDBRANCH   4   5
ENDBRANCH   3   4
ENDBRANCH   2   3
TORSDOF 5
ENDMDL
MODEL       71
REMARK 921   NORMALIZED FREE ENERGY PREDICTED BY IDOCK:   -4.79 KCAL/MOL
REMARK 922        TOTAL FREE ENERGY PREDICTED BY IDOCK:   -7.14 KCAL/MOL
REMARK 923 INTER-LIGAND FREE ENERGY PREDICTED BY IDOCK:   -6.30 KCAL/MOL
REMARK 924 INTRA-LIGAND FREE ENERGY PREDICTED BY IDOCK:   -0.84 KCAL/MOL
REMARK 927      BINDING AFFINITY PREDICTED BY RF-SCORE:    0.00 PKD
ROOT
HETATM    1  C   UNL     1      -5.939  11.985  69.732  1.00  0.00    -0.136 C  
HETATM    2  C   UNL     1      -7.142  11.884  68.805  1.00  0.00    -0.111 C  
ENDROOT
BRANCH   2   3
HETATM    3  C   UNL     1      -7.192  13.049  67.818  1.00  0.00    -0.139 C  
BRANCH   3   4
HETATM    4  C   UNL     1      -8.620  13.350  67.328  1.00  0.00    -0.213 C  
BRANCH   4   5
HETATM    5  N   UNL     1      -9.269  14.501  67.998  1.00  0.00    -0.184 NA 
HETATM    6  C   UNL     1      -8.594  15.777  67.691  1.00  0.00    -0.163 C  
HETATM    7  C   UNL     1      -8.716  16.201  66.225  1.00  0.00    -0.373 C  
HETATM    8  C   UNL     1     -10.174  16.246  65.774  1.00  0.00    -0.390 C  
HETATM    9  C   UNL     1     -10.941  14.983  66.162  1.00  0.00    -0.334 C  
HETATM   10  C   UNL     1     -10.719  14.645  67.644  1.00  0.00    -0.271 C  
BRANCH  10  11
HETATM   11  C   UNL     1     -11.561  13.440  68.131  1.00  0.00    -0.341 C  
HETATM   12  N   UNL     1     -11.350  13.157  69.473  1.00  0.00    -0.437 N  
HETATM   13  O   UNL     1     -12.386  12.885  67.408  1.00  0.00    -0.286 OA 
HETATM   14  H   UNL     1     -10.741  13.799  69.981  1.00  0.00     0.000 HD 
BRANCH  12  15
HETATM   15  C   UNL     1     -11.884  12.080  70.215  1.00  0.00    -0.270 A  
HETATM   16  C   UNL     1     -11.446  10.746  70.052  1.00  0.00    -0.412 A  
HETATM   17  C   UNL     1     -10.389  10.291  69.083  1.00  0.00    -0.241 C  
HETATM   18  C   UNL     1     -11.983   9.737  70.876  1.00  0.00    -0.413 A  
HETATM   19  C   UNL     1     -12.906  10.035  71.875  1.00  0.00    -0.524 A  
HETATM   20  C   UNL     1     -13.330  11.346  72.045  1.00  0.00    -0.388 A  
HETATM   21  C   UNL     1     -12.830  12.375  71.229  1.00  0.00    -0.337 A  
HETATM   22  C   UNL     1     -13.400  13.759  71.426  1.00  0.00    -0.340 C  
ENDBRANCH  12  15
ENDBRANCH  10  11
ENDBRANCH   4   5
ENDBRANCH   3   4
ENDBRANCH   2   3
TORSDOF 5
ENDMDL
MODEL       72
REMARK 921   NORMALIZED FREE ENERGY PREDICTED BY IDOCK:   -4.78 KCAL/MOL
REMARK 922        TOTAL FREE ENERGY PREDICTED BY IDOCK:   -7.12 KCAL/MOL
REMARK 923 INTER-LIGAND FREE ENERGY PREDICTED BY IDOCK:   -6.34 KCAL/MOL
REMARK 924 INTRA-LIGAND FREE ENERGY PREDICTED BY IDOCK:   -0.78 KCAL/MOL
REMARK 927      BINDING AFFINITY PREDICTED BY RF-SCORE:    0.00 PKD
ROOT
HETATM    1  C   UNL     1     -13.267  15.604  72.614  1.00  0.00    -0.592 C  
HETATM    2  C   UNL     1     -12.624  14.985  71.380  1.00  0.00    -0.406 C  
ENDROOT
BRANCH   2   3
HETATM    3  C   UNL     1     -11.909  16.035  70.532  1.00  0.00    -0.314 C  
BRANCH   3   4
HETATM    4  C   UNL     1     -11.807  15.629  69.051  1.00  0.00    -0.364 C  
BRANCH   4   5
HETATM    5  N   UNL     1     -10.719  14.669  68.751  1.00  0.00    -0.242 NA 
HETATM    6  C   UNL     1     -11.237  13.346  68.350  1.00  0.00    -0.279 C  
HETATM    7  C   UNL     1     -11.979  13.357  67.010  1.00  0.00    -0.429 C  
HETATM    8  C   UNL     1     -11.119  13.952  65.898  1.00  0.00    -0.291 C  
HETATM    9  C   UNL     1     -10.476  15.278  66.308  1.00  0.00    -0.313 C  
HETATM   10  C   UNL     1      -9.790  15.149  67.676  1.00  0.00    -0.219 C  
BRANCH  10  11
HETATM   11  C   UNL     1      -9.021  16.425  68.098  1.00  0.00    -0.197 C  
HETATM   12  N   UNL     1      -8.911  17.342  67.061  1.00  0.00    -0.235 N  
HETATM   13  O   UNL     1      -8.651  16.612  69.255  1.00  0.00    -0.174 OA 
HETATM   14  H   UNL     1      -9.396  17.107  66.195  1.00  0.00     0.000 HD 
BRANCH  12  15
HETATM   15  C   UNL     1      -8.203  18.566  67.072  1.00  0.00    -0.247 A  
HETATM   16  C   UNL     1      -8.773  19.775  67.529  1.00  0.00    -0.388 A  
HETATM   17  C   UNL     1     -10.178  19.936  68.041  1.00  0.00    -0.572 C  
HETATM   18  C   UNL     1      -7.980  20.940  67.568  1.00  0.00    -0.153 A  
HETATM   19  C   UNL     1      -6.637  20.912  67.204  1.00  0.00    -0.399 A  
HETATM   20  C   UNL     1      -6.072  19.722  66.765  1.00  0.00    -0.180 A  
HETATM   21  C   UNL     1      -6.836  18.546  66.695  1.00  0.00    -0.221 A  
HETATM   22  C   UNL     1      -6.169  17.313  66.135  1.00  0.00    -0.122 C  
ENDBRANCH  12  15
ENDBRANCH  10  11
ENDBRANCH   4   5
ENDBRANCH   3   4
ENDBRANCH   2   3
TORSDOF 5
ENDMDL
MODEL       73
REMARK 921   NORMALIZED FREE ENERGY PREDICTED BY IDOCK:   -4.77 KCAL/MOL
REMARK 922        TOTAL FREE ENERGY PREDICTED BY IDOCK:   -7.12 KCAL/MOL
REMARK 923 INTER-LIGAND FREE ENERGY PREDICTED BY IDOCK:   -6.07 KCAL/MOL
REMARK 924 INTRA-LIGAND FREE ENERGY PREDICTED BY IDOCK:   -1.05 KCAL/MOL
REMARK 927      BINDING AFFINITY PREDICTED BY RF-SCORE:    0.00 PKD
ROOT
HETATM    1  C   UNL     1     -12.018  13.729  66.366  1.00  0.00    -0.473 C  
HETATM    2  C   UNL     1     -11.565  12.292  66.142  1.00  0.00    -0.450 C  
ENDROOT
BRANCH   2   3
HETATM    3  C   UNL     1     -10.146  12.230  65.580  1.00  0.00    -0.279 C  
BRANCH   3   4
HETATM    4  C   UNL     1      -9.075  12.150  66.682  1.00  0.00    -0.206 C  
BRANCH   4   5
HETATM    5  N   UNL     1      -8.302  10.886  66.696  1.00  0.00    -0.138 NA 
HETATM    6  C   UNL     1      -6.917  11.074  66.223  1.00  0.00    -0.095 C  
HETATM    7  C   UNL     1      -6.061  11.937  67.154  1.00  0.00    -0.152 C  
HETATM    8  C   UNL     1      -6.068  11.397  68.583  1.00  0.00    -0.043 C  
HETATM    9  C   UNL     1      -7.480  11.089  69.079  1.00  0.00    -0.129 C  
HETATM   10  C   UNL     1      -8.247  10.246  68.051  1.00  0.00    -0.113 C  
BRANCH  10  11
HETATM   11  C   UNL     1      -9.647   9.802  68.543  1.00  0.00    -0.149 C  
HETATM   12  N   UNL     1      -9.893  10.191  69.853  1.00  0.00    -0.369 N  
HETATM   13  O   UNL     1     -10.458   9.256  67.799  1.00  0.00    -0.233 OA 
HETATM   14  H   UNL     1      -9.177  10.766  70.297  1.00  0.00     0.000 HD 
BRANCH  12  15
HETATM   15  C   UNL     1     -11.025   9.880  70.640  1.00  0.00    -0.337 A  
HETATM   16  C   UNL     1     -11.149   8.668  71.356  1.00  0.00    -0.343 A  
HETATM   17  C   UNL     1     -10.133   7.560  71.373  1.00  0.00    -0.201 C  
HETATM   18  C   UNL     1     -12.281   8.461  72.170  1.00  0.00    -0.434 A  
HETATM   19  C   UNL     1     -13.257   9.443  72.314  1.00  0.00    -0.528 A  
HETATM   20  C   UNL     1     -13.132  10.638  71.620  1.00  0.00    -0.555 A  
HETATM   21  C   UNL     1     -12.027  10.872  70.785  1.00  0.00    -0.449 A  
HETATM   22  C   UNL     1     -12.005  12.165  70.005  1.00  0.00    -0.391 C  
ENDBRANCH  12  15
ENDBRANCH  10  11
ENDBRANCH   4   5
ENDBRANCH   3   4
ENDBRANCH   2   3
TORSDOF 5
ENDMDL
MODEL       74
REMARK 921   NORMALIZED FREE ENERGY PREDICTED BY IDOCK:   -4.77 KCAL/MOL
REMARK 922        TOTAL FREE ENERGY PREDICTED BY IDOCK:   -7.11 KCAL/MOL
REMARK 923 INTER-LIGAND FREE ENERGY PREDICTED BY IDOCK:   -6.49 KCAL/MOL
REMARK 924 INTRA-LIGAND FREE ENERGY PREDICTED BY IDOCK:   -0.62 KCAL/MOL
REMARK 927      BINDING AFFINITY PREDICTED BY RF-SCORE:    0.00 PKD
ROOT
HETATM    1  C   UNL     1     -10.719  19.142  65.749  1.00  0.00    -0.388 C  
HETATM    2  C   UNL     1      -9.790  20.046  66.548  1.00  0.00    -0.581 C  
ENDROOT
BRANCH   2   3
HETATM    3  C   UNL     1      -8.949  19.251  67.544  1.00  0.00    -0.344 C  
BRANCH   3   4
HETATM    4  C   UNL     1      -9.266  17.745  67.516  1.00  0.00    -0.244 C  
BRANCH   4   5
HETATM    5  N   UNL     1      -8.156  16.893  67.027  1.00  0.00    -0.184 NA 
HETATM    6  C   UNL     1      -6.834  17.478  67.318  1.00  0.00    -0.166 C  
HETATM    7  C   UNL     1      -6.503  17.538  68.812  1.00  0.00    -0.207 C  
HETATM    8  C   UNL     1      -6.636  16.167  69.471  1.00  0.00    -0.200 C  
HETATM    9  C   UNL     1      -7.953  15.477  69.113  1.00  0.00    -0.222 C  
HETATM   10  C   UNL     1      -8.186  15.506  67.595  1.00  0.00    -0.154 C  
BRANCH  10  11
HETATM   11  C   UNL     1      -9.447  14.722  67.155  1.00  0.00    -0.227 C  
HETATM   12  N   UNL     1      -9.341  14.237  65.859  1.00  0.00    -0.524 N  
HETATM   13  O   UNL     1     -10.376  14.491  67.927  1.00  0.00    -0.228 OA 
HETATM   14  H   UNL     1      -8.447  14.387  65.390  1.00  0.00     0.000 HD 
BRANCH  12  15
HETATM   15  C   UNL     1     -10.333  13.558  65.114  1.00  0.00    -0.353 A  
HETATM   16  C   UNL     1     -11.374  14.231  64.436  1.00  0.00    -0.284 A  
HETATM   17  C   UNL     1     -11.581  15.721  64.421  1.00  0.00    -0.240 C  
HETATM   18  C   UNL     1     -12.287  13.487  63.662  1.00  0.00    -0.377 A  
HETATM   19  C   UNL     1     -12.157  12.109  63.519  1.00  0.00    -0.649 A  
HETATM   20  C   UNL     1     -11.129  11.447  64.175  1.00  0.00    -0.382 A  
HETATM   21  C   UNL     1     -10.212  12.153  64.970  1.00  0.00    -0.312 A  
HETATM   22  C   UNL     1      -9.169  11.351  65.712  1.00  0.00    -0.223 C  
ENDBRANCH  12  15
ENDBRANCH  10  11
ENDBRANCH   4   5
ENDBRANCH   3   4
ENDBRANCH   2   3
TORSDOF 5
ENDMDL
MODEL       75
REMARK 921   NORMALIZED FREE ENERGY PREDICTED BY IDOCK:   -4.77 KCAL/MOL
REMARK 922        TOTAL FREE ENERGY PREDICTED BY IDOCK:   -7.11 KCAL/MOL
REMARK 923 INTER-LIGAND FREE ENERGY PREDICTED BY IDOCK:   -6.76 KCAL/MOL
REMARK 924 INTRA-LIGAND FREE ENERGY PREDICTED BY IDOCK:   -0.35 KCAL/MOL
REMARK 927      BINDING AFFINITY PREDICTED BY RF-SCORE:    0.00 PKD
ROOT
HETATM    1  C   UNL     1     -12.356  11.902  63.509  1.00  0.00    -0.603 C  
HETATM    2  C   UNL     1     -12.112  13.377  63.799  1.00  0.00    -0.516 C  
ENDROOT
BRANCH   2   3
HETATM    3  C   UNL     1     -10.867  13.583  64.660  1.00  0.00    -0.416 C  
BRANCH   3   4
HETATM    4  C   UNL     1     -11.093  14.599  65.794  1.00  0.00    -0.331 C  
BRANCH   4   5
HETATM    5  N   UNL     1      -9.848  15.129  66.400  1.00  0.00    -0.264 NA 
HETATM    6  C   UNL     1      -9.442  16.416  65.804  1.00  0.00    -0.156 C  
HETATM    7  C   UNL     1     -10.410  17.565  66.101  1.00  0.00    -0.330 C  
HETATM    8  C   UNL     1     -10.648  17.723  67.601  1.00  0.00    -0.385 C  
HETATM    9  C   UNL     1     -10.973  16.393  68.280  1.00  0.00    -0.355 C  
HETATM   10  C   UNL     1      -9.952  15.317  67.884  1.00  0.00    -0.228 C  
BRANCH  10  11
HETATM   11  C   UNL     1     -10.157  13.974  68.628  1.00  0.00    -0.217 C  
HETATM   12  N   UNL     1     -11.480  13.769  68.992  1.00  0.00    -0.284 N  
HETATM   13  O   UNL     1      -9.244  13.163  68.775  1.00  0.00    -0.024 OA 
HETATM   14  H   UNL     1     -12.151  14.468  68.674  1.00  0.00     0.000 HD 
BRANCH  12  15
HETATM   15  C   UNL     1     -12.003  12.699  69.754  1.00  0.00    -0.295 A  
HETATM   16  C   UNL     1     -12.537  12.874  71.051  1.00  0.00    -0.376 A  
HETATM   17  C   UNL     1     -12.611  14.180  71.792  1.00  0.00    -0.400 C  
HETATM   18  C   UNL     1     -13.099  11.768  71.720  1.00  0.00    -0.480 A  
HETATM   19  C   UNL     1     -13.174  10.517  71.112  1.00  0.00    -0.358 A  
HETATM   20  C   UNL     1     -12.660  10.346  69.835  1.00  0.00    -0.059 A  
HETATM   21  C   UNL     1     -12.076  11.421  69.145  1.00  0.00    -0.331 A  
HETATM   22  C   UNL     1     -11.470  11.135  67.791  1.00  0.00    -0.349 C  
ENDBRANCH  12  15
ENDBRANCH  10  11
ENDBRANCH   4   5
ENDBRANCH   3   4
ENDBRANCH   2   3
TORSDOF 5
ENDMDL
MODEL       76
REMARK 921   NORMALIZED FREE ENERGY PREDICTED BY IDOCK:   -4.76 KCAL/MOL
REMARK 922        TOTAL FREE ENERGY PREDICTED BY IDOCK:   -7.10 KCAL/MOL
REMARK 923 INTER-LIGAND FREE ENERGY PREDICTED BY IDOCK:   -6.50 KCAL/MOL
REMARK 924 INTRA-LIGAND FREE ENERGY PREDICTED BY IDOCK:   -0.60 KCAL/MOL
REMARK 927      BINDING AFFINITY PREDICTED BY RF-SCORE:    0.00 PKD
ROOT
HETATM    1  C   UNL     1      -5.712  13.979  69.125  1.00  0.00    -0.085 C  
HETATM    2  C   UNL     1      -7.145  14.420  68.861  1.00  0.00    -0.116 C  
ENDROOT
BRANCH   2   3
HETATM    3  C   UNL     1      -7.263  15.195  67.550  1.00  0.00    -0.227 C  
BRANCH   3   4
HETATM    4  C   UNL     1      -8.630  15.885  67.391  1.00  0.00    -0.172 C  
BRANCH   4   5
HETATM    5  N   UNL     1      -9.031  16.727  68.543  1.00  0.00    -0.236 NA 
HETATM    6  C   UNL     1      -8.271  17.990  68.601  1.00  0.00    -0.278 C  
HETATM    7  C   UNL     1      -8.570  18.943  67.440  1.00  0.00    -0.293 C  
HETATM    8  C   UNL     1     -10.067  19.225  67.319  1.00  0.00    -0.481 C  
HETATM    9  C   UNL     1     -10.903  17.946  67.358  1.00  0.00    -0.218 C  
HETATM   10  C   UNL     1     -10.492  17.063  68.544  1.00  0.00    -0.373 C  
BRANCH  10  11
HETATM   11  C   UNL     1     -11.379  15.804  68.708  1.00  0.00    -0.362 C  
HETATM   12  N   UNL     1     -11.341  15.295  69.999  1.00  0.00    -0.267 N  
HETATM   13  O   UNL     1     -12.100  15.391  67.802  1.00  0.00    -0.038 OA 
HETATM   14  H   UNL     1     -10.807  15.833  70.682  1.00  0.00     0.000 HD 
BRANCH  12  15
HETATM   15  C   UNL     1     -11.957  14.115  70.473  1.00  0.00    -0.323 A  
HETATM   16  C   UNL     1     -11.676  12.838  69.939  1.00  0.00    -0.321 A  
HETATM   17  C   UNL     1     -10.720  12.558  68.812  1.00  0.00    -0.235 C  
HETATM   18  C   UNL     1     -12.284  11.702  70.510  1.00  0.00    -0.451 A  
HETATM   19  C   UNL     1     -13.123  11.810  71.615  1.00  0.00    -0.443 A  
HETATM   20  C   UNL     1     -13.393  13.063  72.149  1.00  0.00    -0.622 A  
HETATM   21  C   UNL     1     -12.819  14.219  71.594  1.00  0.00    -0.424 A  
HETATM   22  C   UNL     1     -13.224  15.550  72.183  1.00  0.00    -0.541 C  
ENDBRANCH  12  15
ENDBRANCH  10  11
ENDBRANCH   4   5
ENDBRANCH   3   4
ENDBRANCH   2   3
TORSDOF 5
ENDMDL
MODEL       77
REMARK 921   NORMALIZED FREE ENERGY PREDICTED BY IDOCK:   -4.76 KCAL/MOL
REMARK 922        TOTAL FREE ENERGY PREDICTED BY IDOCK:   -7.10 KCAL/MOL
REMARK 923 INTER-LIGAND FREE ENERGY PREDICTED BY IDOCK:   -6.12 KCAL/MOL
REMARK 924 INTRA-LIGAND FREE ENERGY PREDICTED BY IDOCK:   -0.98 KCAL/MOL
REMARK 927      BINDING AFFINITY PREDICTED BY RF-SCORE:    0.00 PKD
ROOT
HETATM    1  C   UNL     1     -11.935  12.093  63.552  1.00  0.00    -0.619 C  
HETATM    2  C   UNL     1     -10.454  11.814  63.330  1.00  0.00    -0.485 C  
ENDROOT
BRANCH   2   3
HETATM    3  C   UNL     1      -9.976  10.623  64.158  1.00  0.00    -0.406 C  
BRANCH   3   4
HETATM    4  C   UNL     1      -9.742  10.985  65.636  1.00  0.00    -0.232 C  
BRANCH   4   5
HETATM    5  N   UNL     1     -10.813  10.534  66.555  1.00  0.00    -0.120 NA 
HETATM    6  C   UNL     1     -10.623   9.137  66.989  1.00  0.00    -0.195 C  
HETATM    7  C   UNL     1      -9.390   8.928  67.871  1.00  0.00    -0.155 C  
HETATM    8  C   UNL     1      -9.399   9.864  69.078  1.00  0.00    -0.175 C  
HETATM    9  C   UNL     1      -9.694  11.312  68.686  1.00  0.00    -0.200 C  
HETATM   10  C   UNL     1     -10.932  11.389  67.782  1.00  0.00    -0.247 C  
BRANCH  10  11
HETATM   11  C   UNL     1     -11.354  12.840  67.442  1.00  0.00    -0.313 C  
HETATM   12  N   UNL     1     -10.355  13.760  67.728  1.00  0.00    -0.238 N  
HETATM   13  O   UNL     1     -12.422  13.098  66.892  1.00  0.00    -0.279 OA 
HETATM   14  H   UNL     1      -9.465  13.378  68.048  1.00  0.00     0.000 HD 
BRANCH  12  15
HETATM   15  C   UNL     1     -10.431  15.168  67.623  1.00  0.00    -0.253 A  
HETATM   16  C   UNL     1     -10.671  16.005  68.736  1.00  0.00    -0.282 A  
HETATM   17  C   UNL     1     -10.888  15.534  70.148  1.00  0.00    -0.346 C  
HETATM   18  C   UNL     1     -10.669  17.403  68.561  1.00  0.00    -0.279 A  
HETATM   19  C   UNL     1     -10.394  17.976  67.322  1.00  0.00    -0.387 A  
HETATM   20  C   UNL     1     -10.147  17.156  66.230  1.00  0.00    -0.329 A  
HETATM   21  C   UNL     1     -10.160  15.757  66.363  1.00  0.00    -0.305 A  
HETATM   22  C   UNL     1      -9.959  14.936  65.112  1.00  0.00    -0.277 C  
ENDBRANCH  12  15
ENDBRANCH  10  11
ENDBRANCH   4   5
ENDBRANCH   3   4
ENDBRANCH   2   3
TORSDOF 5
ENDMDL
MODEL       78
REMARK 921   NORMALIZED FREE ENERGY PREDICTED BY IDOCK:   -4.75 KCAL/MOL
REMARK 922        TOTAL FREE ENERGY PREDICTED BY IDOCK:   -7.09 KCAL/MOL
REMARK 923 INTER-LIGAND FREE ENERGY PREDICTED BY IDOCK:   -6.51 KCAL/MOL
REMARK 924 INTRA-LIGAND FREE ENERGY PREDICTED BY IDOCK:   -0.59 KCAL/MOL
REMARK 927      BINDING AFFINITY PREDICTED BY RF-SCORE:    0.00 PKD
ROOT
HETATM    1  C   UNL     1     -13.761   8.992  72.193  1.00  0.00    -0.536 C  
HETATM    2  C   UNL     1     -12.304   8.552  72.220  1.00  0.00    -0.450 C  
ENDROOT
BRANCH   2   3
HETATM    3  C   UNL     1     -11.416   9.496  71.412  1.00  0.00    -0.462 C  
BRANCH   3   4
HETATM    4  C   UNL     1     -10.788   8.813  70.184  1.00  0.00    -0.227 C  
BRANCH   4   5
HETATM    5  N   UNL     1      -9.505   9.407  69.740  1.00  0.00    -0.188 NA 
HETATM    6  C   UNL     1      -8.422   9.190  70.719  1.00  0.00    -0.212 C  
HETATM    7  C   UNL     1      -8.015   7.722  70.871  1.00  0.00    -0.097 C  
HETATM    8  C   UNL     1      -7.649   7.100  69.525  1.00  0.00    -0.101 C  
HETATM    9  C   UNL     1      -8.697   7.387  68.450  1.00  0.00    -0.123 C  
HETATM   10  C   UNL     1      -9.043   8.883  68.413  1.00  0.00    -0.137 C  
BRANCH  10  11
HETATM   11  C   UNL     1     -10.014   9.259  67.267  1.00  0.00    -0.207 C  
HETATM   12  N   UNL     1      -9.846  10.569  66.842  1.00  0.00    -0.186 N  
HETATM   13  O   UNL     1     -10.766   8.434  66.751  1.00  0.00    -0.249 OA 
HETATM   14  H   UNL     1      -9.081  11.090  67.270  1.00  0.00     0.000 HD 
BRANCH  12  15
HETATM   15  C   UNL     1     -10.617  11.264  65.882  1.00  0.00    -0.253 A  
HETATM   16  C   UNL     1     -11.606  12.210  66.235  1.00  0.00    -0.424 A  
HETATM   17  C   UNL     1     -11.981  12.593  67.639  1.00  0.00    -0.309 C  
HETATM   18  C   UNL     1     -12.287  12.908  65.217  1.00  0.00    -0.544 A  
HETATM   19  C   UNL     1     -11.975  12.713  63.874  1.00  0.00    -0.558 A  
HETATM   20  C   UNL     1     -10.997  11.792  63.526  1.00  0.00    -0.499 A  
HETATM   21  C   UNL     1     -10.310  11.065  64.512  1.00  0.00    -0.420 A  
HETATM   22  C   UNL     1      -9.316  10.028  64.048  1.00  0.00    -0.324 C  
ENDBRANCH  12  15
ENDBRANCH  10  11
ENDBRANCH   4   5
ENDBRANCH   3   4
ENDBRANCH   2   3
TORSDOF 5
ENDMDL
MODEL       79
REMARK 921   NORMALIZED FREE ENERGY PREDICTED BY IDOCK:   -4.75 KCAL/MOL
REMARK 922        TOTAL FREE ENERGY PREDICTED BY IDOCK:   -7.09 KCAL/MOL
REMARK 923 INTER-LIGAND FREE ENERGY PREDICTED BY IDOCK:   -6.35 KCAL/MOL
REMARK 924 INTRA-LIGAND FREE ENERGY PREDICTED BY IDOCK:   -0.74 KCAL/MOL
REMARK 927      BINDING AFFINITY PREDICTED BY RF-SCORE:    0.00 PKD
ROOT
HETATM    1  C   UNL     1     -10.098  19.783  65.867  1.00  0.00    -0.513 C  
HETATM    2  C   UNL     1     -10.306  19.549  67.357  1.00  0.00    -0.572 C  
ENDROOT
BRANCH   2   3
HETATM    3  C   UNL     1      -8.977  19.493  68.109  1.00  0.00    -0.380 C  
BRANCH   3   4
HETATM    4  C   UNL     1      -8.600  18.064  68.537  1.00  0.00    -0.297 C  
BRANCH   4   5
HETATM    5  N   UNL     1      -7.702  17.356  67.594  1.00  0.00    -0.191 NA 
HETATM    6  C   UNL     1      -6.332  17.904  67.611  1.00  0.00    -0.172 C  
HETATM    7  C   UNL     1      -5.592  17.670  68.931  1.00  0.00    -0.172 C  
HETATM    8  C   UNL     1      -5.580  16.191  69.312  1.00  0.00    -0.118 C  
HETATM    9  C   UNL     1      -6.966  15.555  69.209  1.00  0.00    -0.171 C  
HETATM   10  C   UNL     1      -7.617  15.883  67.858  1.00  0.00    -0.133 C  
BRANCH  10  11
HETATM   11  C   UNL     1      -8.975  15.172  67.643  1.00  0.00    -0.180 C  
HETATM   12  N   UNL     1      -9.069  14.578  66.392  1.00  0.00    -0.451 N  
HETATM   13  O   UNL     1      -9.813  15.080  68.538  1.00  0.00    -0.205 OA 
HETATM   14  H   UNL     1      -8.233  14.617  65.808  1.00  0.00     0.000 HD 
BRANCH  12  15
HETATM   15  C   UNL     1     -10.192  13.926  65.835  1.00  0.00    -0.315 A  
HETATM   16  C   UNL     1     -10.481  12.563  66.074  1.00  0.00    -0.282 A  
HETATM   17  C   UNL     1      -9.653  11.633  66.916  1.00  0.00    -0.199 C  
HETATM   18  C   UNL     1     -11.657  12.003  65.534  1.00  0.00    -0.352 A  
HETATM   19  C   UNL     1     -12.558  12.776  64.807  1.00  0.00    -0.518 A  
HETATM   20  C   UNL     1     -12.281  14.117  64.580  1.00  0.00    -0.465 A  
HETATM   21  C   UNL     1     -11.110  14.705  65.087  1.00  0.00    -0.382 A  
HETATM   22  C   UNL     1     -10.845  16.148  64.731  1.00  0.00    -0.282 C  
ENDBRANCH  12  15
ENDBRANCH  10  11
ENDBRANCH   4   5
ENDBRANCH   3   4
ENDBRANCH   2   3
TORSDOF 5
ENDMDL
MODEL       80
REMARK 921   NORMALIZED FREE ENERGY PREDICTED BY IDOCK:   -4.70 KCAL/MOL
REMARK 922        TOTAL FREE ENERGY PREDICTED BY IDOCK:   -7.03 KCAL/MOL
REMARK 923 INTER-LIGAND FREE ENERGY PREDICTED BY IDOCK:   -6.03 KCAL/MOL
REMARK 924 INTRA-LIGAND FREE ENERGY PREDICTED BY IDOCK:   -1.00 KCAL/MOL
REMARK 927      BINDING AFFINITY PREDICTED BY RF-SCORE:    0.00 PKD
ROOT
HETATM    1  C   UNL     1      -9.779  20.663  67.122  1.00  0.00    -0.530 C  
HETATM    2  C   UNL     1     -10.910  19.694  67.438  1.00  0.00    -0.497 C  
ENDROOT
BRANCH   2   3
HETATM    3  C   UNL     1     -10.539  18.258  67.074  1.00  0.00    -0.375 C  
BRANCH   3   4
HETATM    4  C   UNL     1      -9.081  17.915  67.427  1.00  0.00    -0.245 C  
BRANCH   4   5
HETATM    5  N   UNL     1      -8.302  17.323  66.314  1.00  0.00    -0.410 NA 
HETATM    6  C   UNL     1      -7.122  18.137  65.964  1.00  0.00    -0.283 C  
HETATM    7  C   UNL     1      -6.056  18.177  67.062  1.00  0.00    -0.178 C  
HETATM    8  C   UNL     1      -5.629  16.772  67.481  1.00  0.00    -0.165 C  
HETATM    9  C   UNL     1      -6.826  15.861  67.755  1.00  0.00    -0.174 C  
HETATM   10  C   UNL     1      -7.836  15.927  66.601  1.00  0.00    -0.201 C  
BRANCH  10  11
HETATM   11  C   UNL     1      -9.017  14.939  66.762  1.00  0.00    -0.268 C  
HETATM   12  N   UNL     1      -9.153  14.487  68.067  1.00  0.00    -0.179 N  
HETATM   13  O   UNL     1      -9.787  14.685  65.838  1.00  0.00    -0.305 OA 
HETATM   14  H   UNL     1      -8.525  14.900  68.758  1.00  0.00     0.000 HD 
BRANCH  12  15
HETATM   15  C   UNL     1     -10.063  13.519  68.548  1.00  0.00    -0.215 A  
HETATM   16  C   UNL     1      -9.845  12.129  68.410  1.00  0.00    -0.200 A  
HETATM   17  C   UNL     1      -8.657  11.498  67.739  1.00  0.00    -0.138 C  
HETATM   18  C   UNL     1     -10.769  11.227  68.975  1.00  0.00    -0.257 A  
HETATM   19  C   UNL     1     -11.868  11.677  69.700  1.00  0.00    -0.419 A  
HETATM   20  C   UNL     1     -12.079  13.042  69.846  1.00  0.00    -0.347 A  
HETATM   21  C   UNL     1     -11.189  13.971  69.281  1.00  0.00    -0.304 A  
HETATM   22  C   UNL     1     -11.530  15.435  69.419  1.00  0.00    -0.335 C  
ENDBRANCH  12  15
ENDBRANCH  10  11
ENDBRANCH   4   5
ENDBRANCH   3   4
ENDBRANCH   2   3
TORSDOF 5
ENDMDL
MODEL       81
REMARK 921   NORMALIZED FREE ENERGY PREDICTED BY IDOCK:   -4.69 KCAL/MOL
REMARK 922        TOTAL FREE ENERGY PREDICTED BY IDOCK:   -7.00 KCAL/MOL
REMARK 923 INTER-LIGAND FREE ENERGY PREDICTED BY IDOCK:   -6.07 KCAL/MOL
REMARK 924 INTRA-LIGAND FREE ENERGY PREDICTED BY IDOCK:   -0.94 KCAL/MOL
REMARK 927      BINDING AFFINITY PREDICTED BY RF-SCORE:    0.00 PKD
ROOT
HETATM    1  C   UNL     1      -5.605  10.958  68.489  1.00  0.00    -0.043 C  
HETATM    2  C   UNL     1      -6.376  11.329  67.229  1.00  0.00    -0.081 C  
ENDROOT
BRANCH   2   3
HETATM    3  C   UNL     1      -7.250  12.563  67.447  1.00  0.00    -0.146 C  
BRANCH   3   4
HETATM    4  C   UNL     1      -8.753  12.232  67.444  1.00  0.00    -0.180 C  
BRANCH   4   5
HETATM    5  N   UNL     1      -9.588  13.160  68.243  1.00  0.00    -0.225 NA 
HETATM    6  C   UNL     1      -9.369  14.570  67.868  1.00  0.00    -0.201 C  
HETATM    7  C   UNL     1      -9.846  14.911  66.453  1.00  0.00    -0.292 C  
HETATM    8  C   UNL     1     -11.309  14.525  66.247  1.00  0.00    -0.352 C  
HETATM    9  C   UNL     1     -11.605  13.102  66.718  1.00  0.00    -0.414 C  
HETATM   10  C   UNL     1     -11.055  12.872  68.134  1.00  0.00    -0.253 C  
BRANCH  10  11
HETATM   11  C   UNL     1     -11.423  11.485  68.716  1.00  0.00    -0.287 C  
HETATM   12  N   UNL     1     -10.979  11.326  70.022  1.00  0.00    -0.464 N  
HETATM   13  O   UNL     1     -12.116  10.680  68.097  1.00  0.00    -0.403 OA 
HETATM   14  H   UNL     1     -10.542  12.141  70.454  1.00  0.00     0.000 HD 
BRANCH  12  15
HETATM   15  C   UNL     1     -11.066  10.163  70.820  1.00  0.00    -0.298 A  
HETATM   16  C   UNL     1     -12.223   9.827  71.558  1.00  0.00    -0.493 A  
HETATM   17  C   UNL     1     -13.487  10.639  71.611  1.00  0.00    -0.280 C  
HETATM   18  C   UNL     1     -12.253   8.616  72.279  1.00  0.00    -0.447 A  
HETATM   19  C   UNL     1     -11.182   7.727  72.244  1.00  0.00    -0.365 A  
HETATM   20  C   UNL     1     -10.049   8.051  71.512  1.00  0.00    -0.228 A  
HETATM   21  C   UNL     1      -9.975   9.258  70.796  1.00  0.00    -0.357 A  
HETATM   22  C   UNL     1      -8.679   9.571  70.088  1.00  0.00    -0.258 C  
ENDBRANCH  12  15
ENDBRANCH  10  11
ENDBRANCH   4   5
ENDBRANCH   3   4
ENDBRANCH   2   3
TORSDOF 5
ENDMDL
MODEL       82
REMARK 921   NORMALIZED FREE ENERGY PREDICTED BY IDOCK:   -4.66 KCAL/MOL
REMARK 922        TOTAL FREE ENERGY PREDICTED BY IDOCK:   -6.97 KCAL/MOL
REMARK 923 INTER-LIGAND FREE ENERGY PREDICTED BY IDOCK:   -5.96 KCAL/MOL
REMARK 924 INTRA-LIGAND FREE ENERGY PREDICTED BY IDOCK:   -1.01 KCAL/MOL
REMARK 927      BINDING AFFINITY PREDICTED BY RF-SCORE:    0.00 PKD
ROOT
HETATM    1  C   UNL     1     -14.047   7.401  71.553  1.00  0.00    -0.541 C  
HETATM    2  C   UNL     1     -14.260   8.723  72.278  1.00  0.00    -0.498 C  
ENDROOT
BRANCH   2   3
HETATM    3  C   UNL     1     -13.192   9.749  71.902  1.00  0.00    -0.545 C  
BRANCH   3   4
HETATM    4  C   UNL     1     -12.311   9.283  70.730  1.00  0.00    -0.087 C  
BRANCH   4   5
HETATM    5  N   UNL     1     -10.861   9.534  70.914  1.00  0.00    -0.311 NA 
HETATM    6  C   UNL     1     -10.219   8.501  71.749  1.00  0.00    -0.282 C  
HETATM    7  C   UNL     1     -10.184   7.116  71.096  1.00  0.00    -0.200 C  
HETATM    8  C   UNL     1      -9.535   7.164  69.714  1.00  0.00    -0.149 C  
HETATM    9  C   UNL     1     -10.100   8.289  68.848  1.00  0.00    -0.208 C  
HETATM   10  C   UNL     1     -10.111   9.617  69.618  1.00  0.00    -0.224 C  
BRANCH  10  11
HETATM   11  C   UNL     1     -10.565  10.822  68.758  1.00  0.00    -0.200 C  
HETATM   12  N   UNL     1     -10.173  12.037  69.302  1.00  0.00    -0.401 N  
HETATM   13  O   UNL     1     -11.121  10.675  67.671  1.00  0.00    -0.294 OA 
HETATM   14  H   UNL     1      -9.590  11.992  70.138  1.00  0.00     0.000 HD 
BRANCH  12  15
HETATM   15  C   UNL     1     -10.491  13.330  68.828  1.00  0.00    -0.169 A  
HETATM   16  C   UNL     1      -9.766  13.966  67.795  1.00  0.00    -0.225 A  
HETATM   17  C   UNL     1      -8.577  13.384  67.082  1.00  0.00    -0.201 C  
HETATM   18  C   UNL     1     -10.186  15.230  67.334  1.00  0.00    -0.243 A  
HETATM   19  C   UNL     1     -11.325  15.844  67.847  1.00  0.00    -0.252 A  
HETATM   20  C   UNL     1     -12.046  15.217  68.854  1.00  0.00    -0.227 A  
HETATM   21  C   UNL     1     -11.646  13.965  69.351  1.00  0.00    -0.350 A  
HETATM   22  C   UNL     1     -12.438  13.386  70.499  1.00  0.00    -0.350 C  
ENDBRANCH  12  15
ENDBRANCH  10  11
ENDBRANCH   4   5
ENDBRANCH   3   4
ENDBRANCH   2   3
TORSDOF 5
ENDMDL
MODEL       83
REMARK 921   NORMALIZED FREE ENERGY PREDICTED BY IDOCK:   -4.63 KCAL/MOL
REMARK 922        TOTAL FREE ENERGY PREDICTED BY IDOCK:   -6.93 KCAL/MOL
REMARK 923 INTER-LIGAND FREE ENERGY PREDICTED BY IDOCK:   -6.15 KCAL/MOL
REMARK 924 INTRA-LIGAND FREE ENERGY PREDICTED BY IDOCK:   -0.78 KCAL/MOL
REMARK 927      BINDING AFFINITY PREDICTED BY RF-SCORE:    0.00 PKD
ROOT
HETATM    1  C   UNL     1      -6.598  10.642  70.083  1.00  0.00    -0.151 C  
HETATM    2  C   UNL     1      -7.322   9.311  69.935  1.00  0.00    -0.074 C  
ENDROOT
BRANCH   2   3
HETATM    3  C   UNL     1      -8.701   9.487  69.303  1.00  0.00    -0.151 C  
BRANCH   3   4
HETATM    4  C   UNL     1      -9.815   9.662  70.351  1.00  0.00    -0.256 C  
BRANCH   4   5
HETATM    5  N   UNL     1     -11.145   9.171  69.921  1.00  0.00    -0.203 NA 
HETATM    6  C   UNL     1     -11.595   8.011  70.716  1.00  0.00    -0.242 C  
HETATM    7  C   UNL     1     -11.879   8.344  72.183  1.00  0.00    -0.441 C  
HETATM    8  C   UNL     1     -12.871   9.498  72.314  1.00  0.00    -0.426 C  
HETATM    9  C   UNL     1     -12.499  10.686  71.427  1.00  0.00    -0.496 C  
HETATM   10  C   UNL     1     -12.211  10.224  69.991  1.00  0.00    -0.120 C  
BRANCH  10  11
HETATM   11  C   UNL     1     -11.940  11.393  69.014  1.00  0.00    -0.320 C  
HETATM   12  N   UNL     1     -11.342  12.478  69.641  1.00  0.00    -0.479 N  
HETATM   13  O   UNL     1     -12.153  11.298  67.807  1.00  0.00    -0.631 OA 
HETATM   14  H   UNL     1     -11.094  12.354  70.623  1.00  0.00     0.000 HD 
BRANCH  12  15
HETATM   15  C   UNL     1     -11.038  13.736  69.072  1.00  0.00    -0.259 A  
HETATM   16  C   UNL     1      -9.994  13.920  68.137  1.00  0.00    -0.240 A  
HETATM   17  C   UNL     1      -9.074  12.841  67.638  1.00  0.00    -0.193 C  
HETATM   18  C   UNL     1      -9.797  15.193  67.566  1.00  0.00    -0.220 A  
HETATM   19  C   UNL     1     -10.634  16.261  67.875  1.00  0.00    -0.318 A  
HETATM   20  C   UNL     1     -11.666  16.080  68.785  1.00  0.00    -0.302 A  
HETATM   21  C   UNL     1     -11.882  14.830  69.387  1.00  0.00    -0.360 A  
HETATM   22  C   UNL     1     -12.977  14.735  70.423  1.00  0.00    -0.269 C  
ENDBRANCH  12  15
ENDBRANCH  10  11
ENDBRANCH   4   5
ENDBRANCH   3   4
ENDBRANCH   2   3
TORSDOF 5
ENDMDL
MODEL       84
REMARK 921   NORMALIZED FREE ENERGY PREDICTED BY IDOCK:   -4.62 KCAL/MOL
REMARK 922        TOTAL FREE ENERGY PREDICTED BY IDOCK:   -6.92 KCAL/MOL
REMARK 923 INTER-LIGAND FREE ENERGY PREDICTED BY IDOCK:   -6.17 KCAL/MOL
REMARK 924 INTRA-LIGAND FREE ENERGY PREDICTED BY IDOCK:   -0.75 KCAL/MOL
REMARK 927      BINDING AFFINITY PREDICTED BY RF-SCORE:    0.00 PKD
ROOT
HETATM    1  C   UNL     1      -7.372  10.666  69.305  1.00  0.00    -0.119 C  
HETATM    2  C   UNL     1      -8.741  10.996  68.727  1.00  0.00    -0.146 C  
ENDROOT
BRANCH   2   3
HETATM    3  C   UNL     1      -8.650  12.069  67.643  1.00  0.00    -0.163 C  
BRANCH   3   4
HETATM    4  C   UNL     1      -9.240  13.417  68.094  1.00  0.00    -0.215 C  
BRANCH   4   5
HETATM    5  N   UNL     1     -10.577  13.721  67.532  1.00  0.00    -0.244 NA 
HETATM    6  C   UNL     1     -11.608  12.776  68.003  1.00  0.00    -0.341 C  
HETATM    7  C   UNL     1     -11.903  12.883  69.502  1.00  0.00    -0.383 C  
HETATM    8  C   UNL     1     -12.267  14.312  69.900  1.00  0.00    -0.407 C  
HETATM    9  C   UNL     1     -11.279  15.339  69.345  1.00  0.00    -0.291 C  
HETATM   10  C   UNL     1     -11.044  15.111  67.845  1.00  0.00    -0.321 C  
BRANCH  10  11
HETATM   11  C   UNL     1     -10.141  16.189  67.196  1.00  0.00    -0.269 C  
HETATM   12  N   UNL     1      -9.699  17.131  68.115  1.00  0.00    -0.266 N  
HETATM   13  O   UNL     1      -9.795  16.129  66.018  1.00  0.00    -0.304 OA 
HETATM   14  H   UNL     1      -9.954  16.967  69.090  1.00  0.00     0.000 HD 
BRANCH  12  15
HETATM   15  C   UNL     1      -8.937  18.292  67.853  1.00  0.00    -0.276 A  
HETATM   16  C   UNL     1      -9.481  19.441  67.235  1.00  0.00    -0.398 A  
HETATM   17  C   UNL     1     -10.902  19.586  66.768  1.00  0.00    -0.500 C  
HETATM   18  C   UNL     1      -8.671  20.582  67.068  1.00  0.00    -0.340 A  
HETATM   19  C   UNL     1      -7.360  20.613  67.536  1.00  0.00    -0.364 A  
HETATM   20  C   UNL     1      -6.827  19.490  68.152  1.00  0.00    -0.306 A  
HETATM   21  C   UNL     1      -7.599  18.328  68.320  1.00  0.00    -0.289 A  
HETATM   22  C   UNL     1      -6.922  17.124  68.931  1.00  0.00    -0.232 C  
ENDBRANCH  12  15
ENDBRANCH  10  11
ENDBRANCH   4   5
ENDBRANCH   3   4
ENDBRANCH   2   3
TORSDOF 5
ENDMDL
MODEL       85
REMARK 921   NORMALIZED FREE ENERGY PREDICTED BY IDOCK:   -4.62 KCAL/MOL
REMARK 922        TOTAL FREE ENERGY PREDICTED BY IDOCK:   -6.91 KCAL/MOL
REMARK 923 INTER-LIGAND FREE ENERGY PREDICTED BY IDOCK:   -5.95 KCAL/MOL
REMARK 924 INTRA-LIGAND FREE ENERGY PREDICTED BY IDOCK:   -0.96 KCAL/MOL
REMARK 927      BINDING AFFINITY PREDICTED BY RF-SCORE:    0.00 PKD
ROOT
HETATM    1  C   UNL     1     -10.932  15.094  64.803  1.00  0.00    -0.394 C  
HETATM    2  C   UNL     1     -12.066  14.525  65.645  1.00  0.00    -0.295 C  
ENDROOT
BRANCH   2   3
HETATM    3  C   UNL     1     -11.555  13.507  66.663  1.00  0.00    -0.396 C  
BRANCH   3   4
HETATM    4  C   UNL     1     -10.425  12.625  66.103  1.00  0.00    -0.258 C  
BRANCH   4   5
HETATM    5  N   UNL     1     -10.876  11.322  65.558  1.00  0.00    -0.222 NA 
HETATM    6  C   UNL     1     -11.145  11.387  64.109  1.00  0.00    -0.308 C  
HETATM    7  C   UNL     1      -9.893  11.628  63.261  1.00  0.00    -0.428 C  
HETATM    8  C   UNL     1      -8.809  10.593  63.557  1.00  0.00    -0.189 C  
HETATM    9  C   UNL     1      -8.568  10.419  65.056  1.00  0.00    -0.190 C  
HETATM   10  C   UNL     1      -9.895  10.214  65.800  1.00  0.00    -0.266 C  
BRANCH  10  11
HETATM   11  C   UNL     1      -9.713   9.916  67.309  1.00  0.00    -0.171 C  
HETATM   12  N   UNL     1     -10.848   9.355  67.877  1.00  0.00    -0.466 N  
HETATM   13  O   UNL     1      -8.637  10.079  67.881  1.00  0.00    -0.121 OA 
HETATM   14  H   UNL     1     -11.617   9.146  67.240  1.00  0.00     0.000 HD 
BRANCH  12  15
HETATM   15  C   UNL     1     -11.058   9.040  69.239  1.00  0.00     0.060 A  
HETATM   16  C   UNL     1     -10.732   7.782  69.792  1.00  0.00    -0.236 A  
HETATM   17  C   UNL     1     -10.146   6.624  69.033  1.00  0.00    -0.176 C  
HETATM   18  C   UNL     1     -10.911   7.568  71.174  1.00  0.00    -0.264 A  
HETATM   19  C   UNL     1     -11.364   8.586  72.009  1.00  0.00    -0.425 A  
HETATM   20  C   UNL     1     -11.674   9.826  71.470  1.00  0.00    -0.450 A  
HETATM   21  C   UNL     1     -11.525  10.070  70.095  1.00  0.00    -0.344 A  
HETATM   22  C   UNL     1     -11.958  11.420  69.575  1.00  0.00    -0.409 C  
ENDBRANCH  12  15
ENDBRANCH  10  11
ENDBRANCH   4   5
ENDBRANCH   3   4
ENDBRANCH   2   3
TORSDOF 5
ENDMDL
MODEL       86
REMARK 921   NORMALIZED FREE ENERGY PREDICTED BY IDOCK:   -4.62 KCAL/MOL
REMARK 922        TOTAL FREE ENERGY PREDICTED BY IDOCK:   -6.91 KCAL/MOL
REMARK 923 INTER-LIGAND FREE ENERGY PREDICTED BY IDOCK:   -6.76 KCAL/MOL
REMARK 924 INTRA-LIGAND FREE ENERGY PREDICTED BY IDOCK:   -0.15 KCAL/MOL
REMARK 927      BINDING AFFINITY PREDICTED BY RF-SCORE:    0.00 PKD
ROOT
HETATM    1  C   UNL     1      -9.870   6.745  74.098  1.00  0.00    -0.352 C  
HETATM    2  C   UNL     1      -9.059   7.856  73.446  1.00  0.00    -0.347 C  
ENDROOT
BRANCH   2   3
HETATM    3  C   UNL     1      -9.325   7.941  71.945  1.00  0.00    -0.204 C  
BRANCH   3   4
HETATM    4  C   UNL     1     -10.169   9.170  71.562  1.00  0.00    -0.333 C  
BRANCH   4   5
HETATM    5  N   UNL     1     -11.246   8.894  70.581  1.00  0.00    -0.262 NA 
HETATM    6  C   UNL     1     -12.090   7.754  70.987  1.00  0.00    -0.244 C  
HETATM    7  C   UNL     1     -12.919   8.019  72.247  1.00  0.00    -0.179 C  
HETATM    8  C   UNL     1     -13.763   9.284  72.106  1.00  0.00    -0.517 C  
HETATM    9  C   UNL     1     -12.948  10.470  71.589  1.00  0.00    -0.581 C  
HETATM   10  C   UNL     1     -12.141  10.074  70.345  1.00  0.00    -0.202 C  
BRANCH  10  11
HETATM   11  C   UNL     1     -11.382  11.262  69.703  1.00  0.00    -0.287 C  
HETATM   12  N   UNL     1     -12.156  12.413  69.645  1.00  0.00    -0.249 N  
HETATM   13  O   UNL     1     -10.198  11.184  69.383  1.00  0.00    -0.145 OA 
HETATM   14  H   UNL     1     -13.076  12.363  70.083  1.00  0.00     0.000 HD 
BRANCH  12  15
HETATM   15  C   UNL     1     -11.812  13.647  69.049  1.00  0.00    -0.352 A  
HETATM   16  C   UNL     1     -11.596  14.825  69.799  1.00  0.00    -0.338 A  
HETATM   17  C   UNL     1     -11.712  14.938  71.293  1.00  0.00    -0.382 C  
HETATM   18  C   UNL     1     -11.193  16.001  69.134  1.00  0.00    -0.342 A  
HETATM   19  C   UNL     1     -10.963  16.013  67.761  1.00  0.00    -0.307 A  
HETATM   20  C   UNL     1     -11.164  14.854  67.025  1.00  0.00    -0.344 A  
HETATM   21  C   UNL     1     -11.584  13.669  67.650  1.00  0.00    -0.381 A  
HETATM   22  C   UNL     1     -11.854  12.473  66.767  1.00  0.00    -0.416 C  
ENDBRANCH  12  15
ENDBRANCH  10  11
ENDBRANCH   4   5
ENDBRANCH   3   4
ENDBRANCH   2   3
TORSDOF 5
ENDMDL
MODEL       87
REMARK 921   NORMALIZED FREE ENERGY PREDICTED BY IDOCK:   -4.60 KCAL/MOL
REMARK 922        TOTAL FREE ENERGY PREDICTED BY IDOCK:   -6.90 KCAL/MOL
REMARK 923 INTER-LIGAND FREE ENERGY PREDICTED BY IDOCK:   -6.53 KCAL/MOL
REMARK 924 INTRA-LIGAND FREE ENERGY PREDICTED BY IDOCK:   -0.37 KCAL/MOL
REMARK 927      BINDING AFFINITY PREDICTED BY RF-SCORE:    0.00 PKD
ROOT
HETATM    1  C   UNL     1     -13.247   8.197  71.531  1.00  0.00    -0.310 C  
HETATM    2  C   UNL     1     -13.573   9.538  72.174  1.00  0.00    -0.500 C  
ENDROOT
BRANCH   2   3
HETATM    3  C   UNL     1     -12.852  10.688  71.473  1.00  0.00    -0.567 C  
BRANCH   3   4
HETATM    4  C   UNL     1     -12.233  10.267  70.128  1.00  0.00    -0.176 C  
BRANCH   4   5
HETATM    5  N   UNL     1     -10.766  10.459  70.040  1.00  0.00    -0.281 NA 
HETATM    6  C   UNL     1     -10.020   9.292  70.550  1.00  0.00    -0.249 C  
HETATM    7  C   UNL     1     -10.190   8.032  69.697  1.00  0.00    -0.208 C  
HETATM    8  C   UNL     1      -9.836   8.294  68.234  1.00  0.00    -0.192 C  
HETATM    9  C   UNL     1     -10.509   9.555  67.692  1.00  0.00    -0.321 C  
HETATM   10  C   UNL     1     -10.294  10.739  68.645  1.00  0.00    -0.192 C  
BRANCH  10  11
HETATM   11  C   UNL     1     -10.852  12.076  68.098  1.00  0.00    -0.221 C  
HETATM   12  N   UNL     1     -10.355  12.379  66.838  1.00  0.00    -0.223 N  
HETATM   13  O   UNL     1     -11.712  12.718  68.697  1.00  0.00    -0.288 OA 
HETATM   14  H   UNL     1      -9.757  11.675  66.405  1.00  0.00     0.000 HD 
BRANCH  12  15
HETATM   15  C   UNL     1     -10.584  13.554  66.087  1.00  0.00    -0.290 A  
HETATM   16  C   UNL     1     -11.676  13.694  65.200  1.00  0.00    -0.346 A  
HETATM   17  C   UNL     1     -12.712  12.641  64.924  1.00  0.00    -0.450 C  
HETATM   18  C   UNL     1     -11.872  14.922  64.536  1.00  0.00    -0.404 A  
HETATM   19  C   UNL     1     -11.036  16.011  64.769  1.00  0.00    -0.378 A  
HETATM   20  C   UNL     1      -9.970  15.879  65.647  1.00  0.00    -0.368 A  
HETATM   21  C   UNL     1      -9.732  14.665  66.313  1.00  0.00    -0.329 A  
HETATM   22  C   UNL     1      -8.507  14.579  67.192  1.00  0.00    -0.234 C  
ENDBRANCH  12  15
ENDBRANCH  10  11
ENDBRANCH   4   5
ENDBRANCH   3   4
ENDBRANCH   2   3
TORSDOF 5
ENDMDL
MODEL       88
REMARK 921   NORMALIZED FREE ENERGY PREDICTED BY IDOCK:   -4.59 KCAL/MOL
REMARK 922        TOTAL FREE ENERGY PREDICTED BY IDOCK:   -6.88 KCAL/MOL
REMARK 923 INTER-LIGAND FREE ENERGY PREDICTED BY IDOCK:   -5.86 KCAL/MOL
REMARK 924 INTRA-LIGAND FREE ENERGY PREDICTED BY IDOCK:   -1.02 KCAL/MOL
REMARK 927      BINDING AFFINITY PREDICTED BY RF-SCORE:    0.00 PKD
ROOT
HETATM    1  C   UNL     1      -7.468   6.725  66.072  1.00  0.00    -0.081 C  
HETATM    2  C   UNL     1      -7.816   8.121  65.574  1.00  0.00    -0.104 C  
ENDROOT
BRANCH   2   3
HETATM    3  C   UNL     1      -8.964   8.734  66.374  1.00  0.00    -0.194 C  
BRANCH   3   4
HETATM    4  C   UNL     1      -9.171   8.046  67.735  1.00  0.00    -0.134 C  
BRANCH   4   5
HETATM    5  N   UNL     1     -10.577   7.688  68.036  1.00  0.00    -0.186 NA 
HETATM    6  C   UNL     1     -10.916   6.328  67.575  1.00  0.00    -0.350 C  
HETATM    7  C   UNL     1     -10.177   5.220  68.331  1.00  0.00    -0.206 C  
HETATM    8  C   UNL     1     -10.382   5.339  69.840  1.00  0.00    -0.374 C  
HETATM    9  C   UNL     1     -10.140   6.760  70.347  1.00  0.00    -0.200 C  
HETATM   10  C   UNL     1     -10.908   7.781  69.495  1.00  0.00    -0.153 C  
BRANCH  10  11
HETATM   11  C   UNL     1     -10.798   9.230  70.027  1.00  0.00    -0.238 C  
HETATM   12  N   UNL     1     -11.803  10.052  69.535  1.00  0.00    -0.472 N  
HETATM   13  O   UNL     1      -9.961   9.556  70.867  1.00  0.00    -0.284 OA 
HETATM   14  H   UNL     1     -12.514   9.601  68.958  1.00  0.00     0.000 HD 
BRANCH  12  15
HETATM   15  C   UNL     1     -11.953  11.441  69.745  1.00  0.00    -0.353 A  
HETATM   16  C   UNL     1     -12.598  11.978  70.881  1.00  0.00    -0.347 A  
HETATM   17  C   UNL     1     -13.214  11.174  71.993  1.00  0.00    -0.428 C  
HETATM   18  C   UNL     1     -12.649  13.377  71.049  1.00  0.00    -0.425 A  
HETATM   19  C   UNL     1     -12.042  14.237  70.138  1.00  0.00    -0.403 A  
HETATM   20  C   UNL     1     -11.398  13.711  69.026  1.00  0.00    -0.333 A  
HETATM   21  C   UNL     1     -11.343  12.323  68.817  1.00  0.00    -0.337 A  
HETATM   22  C   UNL     1     -10.692  11.835  67.545  1.00  0.00    -0.262 C  
ENDBRANCH  12  15
ENDBRANCH  10  11
ENDBRANCH   4   5
ENDBRANCH   3   4
ENDBRANCH   2   3
TORSDOF 5
ENDMDL
MODEL       89
REMARK 921   NORMALIZED FREE ENERGY PREDICTED BY IDOCK:   -4.58 KCAL/MOL
REMARK 922        TOTAL FREE ENERGY PREDICTED BY IDOCK:   -6.86 KCAL/MOL
REMARK 923 INTER-LIGAND FREE ENERGY PREDICTED BY IDOCK:   -6.04 KCAL/MOL
REMARK 924 INTRA-LIGAND FREE ENERGY PREDICTED BY IDOCK:   -0.82 KCAL/MOL
REMARK 927      BINDING AFFINITY PREDICTED BY RF-SCORE:    0.00 PKD
ROOT
HETATM    1  C   UNL     1      -5.689  14.816  69.121  1.00  0.00    -0.095 C  
HETATM    2  C   UNL     1      -6.535  16.081  69.086  1.00  0.00    -0.157 C  
ENDROOT
BRANCH   2   3
HETATM    3  C   UNL     1      -6.410  16.805  67.747  1.00  0.00    -0.164 C  
BRANCH   3   4
HETATM    4  C   UNL     1      -7.778  17.143  67.127  1.00  0.00    -0.177 C  
BRANCH   4   5
HETATM    5  N   UNL     1      -8.735  17.783  68.061  1.00  0.00    -0.245 NA 
HETATM    6  C   UNL     1      -8.410  19.202  68.305  1.00  0.00    -0.335 C  
HETATM    7  C   UNL     1      -8.583  20.093  67.072  1.00  0.00    -0.408 C  
HETATM    8  C   UNL     1      -9.983  19.960  66.477  1.00  0.00    -0.591 C  
HETATM    9  C   UNL     1     -10.403  18.501  66.301  1.00  0.00    -0.459 C  
HETATM   10  C   UNL     1     -10.156  17.705  67.591  1.00  0.00    -0.339 C  
BRANCH  10  11
HETATM   11  C   UNL     1     -10.667  16.245  67.517  1.00  0.00    -0.300 C  
HETATM   12  N   UNL     1     -10.444  15.547  68.696  1.00  0.00    -0.231 N  
HETATM   13  O   UNL     1     -11.284  15.818  66.543  1.00  0.00    -0.156 OA 
HETATM   14  H   UNL     1     -10.048  16.081  69.470  1.00  0.00     0.000 HD 
BRANCH  12  15
HETATM   15  C   UNL     1     -10.703  14.180  68.944  1.00  0.00    -0.256 A  
HETATM   16  C   UNL     1     -11.760  13.740  69.772  1.00  0.00    -0.367 A  
HETATM   17  C   UNL     1     -12.725  14.635  70.499  1.00  0.00    -0.394 C  
HETATM   18  C   UNL     1     -11.993  12.358  69.917  1.00  0.00    -0.369 A  
HETATM   19  C   UNL     1     -11.228  11.420  69.230  1.00  0.00    -0.342 A  
HETATM   20  C   UNL     1     -10.195  11.850  68.408  1.00  0.00    -0.205 A  
HETATM   21  C   UNL     1      -9.922  13.219  68.253  1.00  0.00    -0.236 A  
HETATM   22  C   UNL     1      -8.734  13.602  67.403  1.00  0.00    -0.214 C  
ENDBRANCH  12  15
ENDBRANCH  10  11
ENDBRANCH   4   5
ENDBRANCH   3   4
ENDBRANCH   2   3
TORSDOF 5
ENDMDL
MODEL       90
REMARK 921   NORMALIZED FREE ENERGY PREDICTED BY IDOCK:   -4.57 KCAL/MOL
REMARK 922        TOTAL FREE ENERGY PREDICTED BY IDOCK:   -6.85 KCAL/MOL
REMARK 923 INTER-LIGAND FREE ENERGY PREDICTED BY IDOCK:   -5.91 KCAL/MOL
REMARK 924 INTRA-LIGAND FREE ENERGY PREDICTED BY IDOCK:   -0.94 KCAL/MOL
REMARK 927      BINDING AFFINITY PREDICTED BY RF-SCORE:    0.00 PKD
ROOT
HETATM    1  C   UNL     1     -12.887  12.749  64.745  1.00  0.00    -0.374 C  
HETATM    2  C   UNL     1     -12.028  12.718  63.488  1.00  0.00    -0.633 C  
ENDROOT
BRANCH   2   3
HETATM    3  C   UNL     1     -10.984  11.605  63.547  1.00  0.00    -0.485 C  
BRANCH   3   4
HETATM    4  C   UNL     1      -9.915  11.852  64.626  1.00  0.00    -0.230 C  
BRANCH   4   5
HETATM    5  N   UNL     1     -10.185  11.187  65.922  1.00  0.00    -0.244 NA 
HETATM    6  C   UNL     1      -9.762   9.773  65.921  1.00  0.00    -0.266 C  
HETATM    7  C   UNL     1      -8.246   9.584  65.819  1.00  0.00    -0.116 C  
HETATM    8  C   UNL     1      -7.510  10.360  66.909  1.00  0.00    -0.107 C  
HETATM    9  C   UNL     1      -7.990  11.808  67.015  1.00  0.00    -0.164 C  
HETATM   10  C   UNL     1      -9.523  11.869  67.081  1.00  0.00    -0.178 C  
BRANCH  10  11
HETATM   11  C   UNL     1     -10.069  13.301  67.305  1.00  0.00    -0.234 C  
HETATM   12  N   UNL     1      -9.164  14.279  66.918  1.00  0.00    -0.244 N  
HETATM   13  O   UNL     1     -11.218  13.508  67.691  1.00  0.00    -0.261 OA 
HETATM   14  H   UNL     1      -8.303  13.950  66.479  1.00  0.00     0.000 HD 
BRANCH  12  15
HETATM   15  C   UNL     1      -9.300  15.678  67.062  1.00  0.00    -0.226 A  
HETATM   16  C   UNL     1     -10.064  16.467  66.174  1.00  0.00    -0.365 A  
HETATM   17  C   UNL     1     -10.809  15.952  64.974  1.00  0.00    -0.444 C  
HETATM   18  C   UNL     1     -10.204  17.848  66.424  1.00  0.00    -0.372 A  
HETATM   19  C   UNL     1      -9.638  18.439  67.551  1.00  0.00    -0.293 A  
HETATM   20  C   UNL     1      -8.896  17.663  68.430  1.00  0.00    -0.281 A  
HETATM   21  C   UNL     1      -8.720  16.288  68.203  1.00  0.00    -0.182 A  
HETATM   22  C   UNL     1      -7.835  15.530  69.164  1.00  0.00    -0.215 C  
ENDBRANCH  12  15
ENDBRANCH  10  11
ENDBRANCH   4   5
ENDBRANCH   3   4
ENDBRANCH   2   3
TORSDOF 5
ENDMDL
MODEL       91
REMARK 921   NORMALIZED FREE ENERGY PREDICTED BY IDOCK:   -4.56 KCAL/MOL
REMARK 922        TOTAL FREE ENERGY PREDICTED BY IDOCK:   -6.84 KCAL/MOL
REMARK 923 INTER-LIGAND FREE ENERGY PREDICTED BY IDOCK:   -6.37 KCAL/MOL
REMARK 924 INTRA-LIGAND FREE ENERGY PREDICTED BY IDOCK:   -0.47 KCAL/MOL
REMARK 927      BINDING AFFINITY PREDICTED BY RF-SCORE:    0.00 PKD
ROOT
HETATM    1  C   UNL     1     -13.876   8.986  72.341  1.00  0.00    -0.540 C  
HETATM    2  C   UNL     1     -12.504   8.466  71.932  1.00  0.00    -0.390 C  
ENDROOT
BRANCH   2   3
HETATM    3  C   UNL     1     -11.577   9.602  71.502  1.00  0.00    -0.451 C  
BRANCH   3   4
HETATM    4  C   UNL     1     -11.487   9.744  69.972  1.00  0.00    -0.180 C  
BRANCH   4   5
HETATM    5  N   UNL     1     -10.110   9.923  69.452  1.00  0.00    -0.198 NA 
HETATM    6  C   UNL     1      -9.230   8.791  69.803  1.00  0.00    -0.155 C  
HETATM    7  C   UNL     1      -9.618   7.476  69.122  1.00  0.00    -0.157 C  
HETATM    8  C   UNL     1      -9.704   7.634  67.606  1.00  0.00    -0.189 C  
HETATM    9  C   UNL     1     -10.524   8.858  67.196  1.00  0.00    -0.344 C  
HETATM   10  C   UNL     1     -10.063  10.104  67.965  1.00  0.00    -0.157 C  
BRANCH  10  11
HETATM   11  C   UNL     1     -10.776  11.402  67.513  1.00  0.00    -0.222 C  
HETATM   12  N   UNL     1      -9.892  12.337  66.991  1.00  0.00    -0.203 N  
HETATM   13  O   UNL     1     -12.000  11.517  67.536  1.00  0.00    -0.629 OA 
HETATM   14  H   UNL     1      -8.919  12.040  66.904  1.00  0.00     0.000 HD 
BRANCH  12  15
HETATM   15  C   UNL     1     -10.187  13.652  66.568  1.00  0.00    -0.284 A  
HETATM   16  C   UNL     1     -10.097  14.770  67.427  1.00  0.00    -0.231 A  
HETATM   17  C   UNL     1      -9.700  14.723  68.876  1.00  0.00    -0.215 C  
HETATM   18  C   UNL     1     -10.346  16.058  66.911  1.00  0.00    -0.289 A  
HETATM   19  C   UNL     1     -10.637  16.253  65.564  1.00  0.00    -0.369 A  
HETATM   20  C   UNL     1     -10.716  15.158  64.716  1.00  0.00    -0.344 A  
HETATM   21  C   UNL     1     -10.493  13.857  65.198  1.00  0.00    -0.409 A  
HETATM   22  C   UNL     1     -10.673  12.713  64.229  1.00  0.00    -0.409 C  
ENDBRANCH  12  15
ENDBRANCH  10  11
ENDBRANCH   4   5
ENDBRANCH   3   4
ENDBRANCH   2   3
TORSDOF 5
ENDMDL
MODEL       92
REMARK 921   NORMALIZED FREE ENERGY PREDICTED BY IDOCK:   -4.56 KCAL/MOL
REMARK 922        TOTAL FREE ENERGY PREDICTED BY IDOCK:   -6.84 KCAL/MOL
REMARK 923 INTER-LIGAND FREE ENERGY PREDICTED BY IDOCK:   -6.09 KCAL/MOL
REMARK 924 INTRA-LIGAND FREE ENERGY PREDICTED BY IDOCK:   -0.75 KCAL/MOL
REMARK 927      BINDING AFFINITY PREDICTED BY RF-SCORE:    0.00 PKD
ROOT
HETATM    1  C   UNL     1     -12.069  12.689  63.616  1.00  0.00    -0.632 C  
HETATM    2  C   UNL     1     -10.572  12.415  63.631  1.00  0.00    -0.481 C  
ENDROOT
BRANCH   2   3
HETATM    3  C   UNL     1     -10.260  11.019  64.168  1.00  0.00    -0.419 C  
BRANCH   3   4
HETATM    4  C   UNL     1      -9.245  11.042  65.324  1.00  0.00    -0.207 C  
BRANCH   4   5
HETATM    5  N   UNL     1      -8.643   9.725  65.639  1.00  0.00    -0.136 NA 
HETATM    6  C   UNL     1      -7.301   9.570  65.045  1.00  0.00    -0.110 C  
HETATM    7  C   UNL     1      -6.250  10.509  65.643  1.00  0.00    -0.129 C  
HETATM    8  C   UNL     1      -6.180  10.375  67.163  1.00  0.00    -0.062 C  
HETATM    9  C   UNL     1      -7.562  10.428  67.815  1.00  0.00    -0.089 C  
HETATM   10  C   UNL     1      -8.532   9.468  67.112  1.00  0.00    -0.131 C  
BRANCH  10  11
HETATM   11  C   UNL     1      -9.918   9.388  67.797  1.00  0.00    -0.184 C  
HETATM   12  N   UNL     1      -9.936  10.023  69.031  1.00  0.00    -0.185 N  
HETATM   13  O   UNL     1     -10.896   8.896  67.237  1.00  0.00    -0.216 OA 
HETATM   14  H   UNL     1      -9.082  10.513  69.300  1.00  0.00     0.000 HD 
BRANCH  12  15
HETATM   15  C   UNL     1     -11.002  10.068  69.957  1.00  0.00    -0.300 A  
HETATM   16  C   UNL     1     -11.280   9.013  70.855  1.00  0.00    -0.348 A  
HETATM   17  C   UNL     1     -10.514   7.722  70.943  1.00  0.00    -0.214 C  
HETATM   18  C   UNL     1     -12.322   9.161  71.792  1.00  0.00    -0.444 A  
HETATM   19  C   UNL     1     -13.055  10.342  71.877  1.00  0.00    -0.568 A  
HETATM   20  C   UNL     1     -12.777  11.384  71.003  1.00  0.00    -0.447 A  
HETATM   21  C   UNL     1     -11.758  11.264  70.043  1.00  0.00    -0.428 A  
HETATM   22  C   UNL     1     -11.570  12.412  69.080  1.00  0.00    -0.362 C  
ENDBRANCH  12  15
ENDBRANCH  10  11
ENDBRANCH   4   5
ENDBRANCH   3   4
ENDBRANCH   2   3
TORSDOF 5
ENDMDL
MODEL       93
REMARK 921   NORMALIZED FREE ENERGY PREDICTED BY IDOCK:   -4.55 KCAL/MOL
REMARK 922        TOTAL FREE ENERGY PREDICTED BY IDOCK:   -6.83 KCAL/MOL
REMARK 923 INTER-LIGAND FREE ENERGY PREDICTED BY IDOCK:   -5.89 KCAL/MOL
REMARK 924 INTRA-LIGAND FREE ENERGY PREDICTED BY IDOCK:   -0.94 KCAL/MOL
REMARK 927      BINDING AFFINITY PREDICTED BY RF-SCORE:    0.00 PKD
ROOT
HETATM    1  C   UNL     1     -12.671  12.912  64.988  1.00  0.00    -0.474 C  
HETATM    2  C   UNL     1     -11.898  12.854  66.299  1.00  0.00    -0.477 C  
ENDROOT
BRANCH   2   3
HETATM    3  C   UNL     1     -10.566  12.126  66.135  1.00  0.00    -0.290 C  
BRANCH   3   4
HETATM    4  C   UNL     1      -9.360  13.008  66.505  1.00  0.00    -0.217 C  
BRANCH   4   5
HETATM    5  N   UNL     1      -8.905  12.868  67.909  1.00  0.00    -0.180 NA 
HETATM    6  C   UNL     1      -8.118  11.638  68.120  1.00  0.00    -0.148 C  
HETATM    7  C   UNL     1      -6.773  11.635  67.387  1.00  0.00    -0.108 C  
HETATM    8  C   UNL     1      -5.941  12.867  67.738  1.00  0.00    -0.141 C  
HETATM    9  C   UNL     1      -6.749  14.160  67.632  1.00  0.00    -0.188 C  
HETATM   10  C   UNL     1      -8.084  14.031  68.379  1.00  0.00    -0.148 C  
BRANCH  10  11
HETATM   11  C   UNL     1      -8.900  15.347  68.408  1.00  0.00    -0.177 C  
HETATM   12  N   UNL     1      -8.462  16.261  67.460  1.00  0.00    -0.166 N  
HETATM   13  O   UNL     1      -9.881  15.491  69.135  1.00  0.00    -0.213 OA 
HETATM   14  H   UNL     1      -7.726  15.942  66.829  1.00  0.00     0.000 HD 
BRANCH  12  15
HETATM   15  C   UNL     1      -8.920  17.584  67.270  1.00  0.00    -0.235 A  
HETATM   16  C   UNL     1      -8.363  18.691  67.949  1.00  0.00    -0.293 A  
HETATM   17  C   UNL     1      -7.246  18.623  68.952  1.00  0.00    -0.311 C  
HETATM   18  C   UNL     1      -8.832  19.988  67.655  1.00  0.00    -0.407 A  
HETATM   19  C   UNL     1      -9.804  20.202  66.682  1.00  0.00    -0.588 A  
HETATM   20  C   UNL     1     -10.345  19.117  66.006  1.00  0.00    -0.538 A  
HETATM   21  C   UNL     1      -9.915  17.809  66.285  1.00  0.00    -0.322 A  
HETATM   22  C   UNL     1     -10.608  16.678  65.562  1.00  0.00    -0.273 C  
ENDBRANCH  12  15
ENDBRANCH  10  11
ENDBRANCH   4   5
ENDBRANCH   3   4
ENDBRANCH   2   3
TORSDOF 5
ENDMDL
MODEL       94
REMARK 921   NORMALIZED FREE ENERGY PREDICTED BY IDOCK:   -4.53 KCAL/MOL
REMARK 922        TOTAL FREE ENERGY PREDICTED BY IDOCK:   -6.80 KCAL/MOL
REMARK 923 INTER-LIGAND FREE ENERGY PREDICTED BY IDOCK:   -6.05 KCAL/MOL
REMARK 924 INTRA-LIGAND FREE ENERGY PREDICTED BY IDOCK:   -0.75 KCAL/MOL
REMARK 927      BINDING AFFINITY PREDICTED BY RF-SCORE:    0.00 PKD
ROOT
HETATM    1  C   UNL     1      -9.622   3.702  70.298  1.00  0.00    -0.246 C  
HETATM    2  C   UNL     1      -9.965   4.949  69.494  1.00  0.00    -0.295 C  
ENDROOT
BRANCH   2   3
HETATM    3  C   UNL     1     -11.121   5.725  70.123  1.00  0.00    -0.323 C  
BRANCH   3   4
HETATM    4  C   UNL     1     -10.921   7.249  70.048  1.00  0.00    -0.253 C  
BRANCH   4   5
HETATM    5  N   UNL     1     -10.912   7.933  71.363  1.00  0.00    -0.229 NA 
HETATM    6  C   UNL     1     -10.092   7.216  72.358  1.00  0.00    -0.182 C  
HETATM    7  C   UNL     1      -8.595   7.212  72.034  1.00  0.00    -0.118 C  
HETATM    8  C   UNL     1      -8.063   8.628  71.825  1.00  0.00    -0.170 C  
HETATM    9  C   UNL     1      -8.943   9.443  70.877  1.00  0.00    -0.198 C  
HETATM   10  C   UNL     1     -10.420   9.347  71.286  1.00  0.00    -0.315 C  
BRANCH  10  11
HETATM   11  C   UNL     1     -11.351  10.244  70.434  1.00  0.00    -0.332 C  
HETATM   12  N   UNL     1     -10.648  11.025  69.528  1.00  0.00    -0.409 N  
HETATM   13  O   UNL     1     -12.576  10.171  70.511  1.00  0.00    -0.281 OA 
HETATM   14  H   UNL     1      -9.641  10.870  69.482  1.00  0.00     0.000 HD 
BRANCH  12  15
HETATM   15  C   UNL     1     -11.171  12.013  68.663  1.00  0.00    -0.258 A  
HETATM   16  C   UNL     1     -11.700  13.237  69.130  1.00  0.00    -0.379 A  
HETATM   17  C   UNL     1     -11.796  13.648  70.573  1.00  0.00    -0.277 C  
HETATM   18  C   UNL     1     -12.142  14.198  68.199  1.00  0.00    -0.297 A  
HETATM   19  C   UNL     1     -12.030  13.981  66.828  1.00  0.00    -0.473 A  
HETATM   20  C   UNL     1     -11.500  12.784  66.367  1.00  0.00    -0.409 A  
HETATM   21  C   UNL     1     -11.066  11.796  67.266  1.00  0.00    -0.342 A  
HETATM   22  C   UNL     1     -10.574  10.492  66.684  1.00  0.00    -0.263 C  
ENDBRANCH  12  15
ENDBRANCH  10  11
ENDBRANCH   4   5
ENDBRANCH   3   4
ENDBRANCH   2   3
TORSDOF 5
ENDMDL
MODEL       95
REMARK 921   NORMALIZED FREE ENERGY PREDICTED BY IDOCK:   -4.51 KCAL/MOL
REMARK 922        TOTAL FREE ENERGY PREDICTED BY IDOCK:   -6.77 KCAL/MOL
REMARK 923 INTER-LIGAND FREE ENERGY PREDICTED BY IDOCK:   -5.89 KCAL/MOL
REMARK 924 INTRA-LIGAND FREE ENERGY PREDICTED BY IDOCK:   -0.88 KCAL/MOL
REMARK 927      BINDING AFFINITY PREDICTED BY RF-SCORE:    0.00 PKD
ROOT
HETATM    1  C   UNL     1     -12.349   6.776  71.625  1.00  0.00    -0.409 C  
HETATM    2  C   UNL     1     -12.367   8.198  72.171  1.00  0.00    -0.383 C  
ENDROOT
BRANCH   2   3
HETATM    3  C   UNL     1     -11.139   8.988  71.723  1.00  0.00    -0.444 C  
BRANCH   3   4
HETATM    4  C   UNL     1     -11.243   9.467  70.265  1.00  0.00    -0.261 C  
BRANCH   4   5
HETATM    5  N   UNL     1      -9.939   9.655  69.586  1.00  0.00    -0.206 NA 
HETATM    6  C   UNL     1      -9.074   8.465  69.700  1.00  0.00    -0.153 C  
HETATM    7  C   UNL     1      -9.608   7.242  68.949  1.00  0.00    -0.143 C  
HETATM    8  C   UNL     1      -9.883   7.562  67.481  1.00  0.00    -0.209 C  
HETATM    9  C   UNL     1     -10.692   8.848  67.310  1.00  0.00    -0.219 C  
HETATM   10  C   UNL     1     -10.077   9.991  68.131  1.00  0.00    -0.159 C  
BRANCH  10  11
HETATM   11  C   UNL     1     -10.782  11.352  67.911  1.00  0.00    -0.200 C  
HETATM   12  N   UNL     1     -10.249  12.357  68.705  1.00  0.00    -0.393 N  
HETATM   13  O   UNL     1     -11.646  11.508  67.050  1.00  0.00    -0.510 OA 
HETATM   14  H   UNL     1      -9.436  12.107  69.268  1.00  0.00     0.000 HD 
BRANCH  12  15
HETATM   15  C   UNL     1     -10.706  13.690  68.822  1.00  0.00    -0.244 A  
HETATM   16  C   UNL     1     -10.230  14.736  68.000  1.00  0.00    -0.226 A  
HETATM   17  C   UNL     1      -9.189  14.592  66.925  1.00  0.00    -0.267 C  
HETATM   18  C   UNL     1     -10.783  16.025  68.135  1.00  0.00    -0.311 A  
HETATM   19  C   UNL     1     -11.818  16.277  69.032  1.00  0.00    -0.072 A  
HETATM   20  C   UNL     1     -12.294  15.249  69.833  1.00  0.00    -0.323 A  
HETATM   21  C   UNL     1     -11.754  13.955  69.739  1.00  0.00    -0.372 A  
HETATM   22  C   UNL     1     -12.274  12.911  70.698  1.00  0.00    -0.386 C  
ENDBRANCH  12  15
ENDBRANCH  10  11
ENDBRANCH   4   5
ENDBRANCH   3   4
ENDBRANCH   2   3
TORSDOF 5
ENDMDL
MODEL       96
REMARK 921   NORMALIZED FREE ENERGY PREDICTED BY IDOCK:   -4.51 KCAL/MOL
REMARK 922        TOTAL FREE ENERGY PREDICTED BY IDOCK:   -6.77 KCAL/MOL
REMARK 923 INTER-LIGAND FREE ENERGY PREDICTED BY IDOCK:   -5.89 KCAL/MOL
REMARK 924 INTRA-LIGAND FREE ENERGY PREDICTED BY IDOCK:   -0.89 KCAL/MOL
REMARK 927      BINDING AFFINITY PREDICTED BY RF-SCORE:    0.00 PKD
ROOT
HETATM    1  C   UNL     1      -5.997  10.090  68.622  1.00  0.00    -0.041 C  
HETATM    2  C   UNL     1      -6.606  10.206  67.231  1.00  0.00    -0.069 C  
ENDROOT
BRANCH   2   3
HETATM    3  C   UNL     1      -7.151  11.609  66.971  1.00  0.00    -0.145 C  
BRANCH   3   4
HETATM    4  C   UNL     1      -8.656  11.725  67.270  1.00  0.00    -0.162 C  
BRANCH   4   5
HETATM    5  N   UNL     1      -8.992  12.639  68.387  1.00  0.00    -0.165 NA 
HETATM    6  C   UNL     1      -8.269  13.923  68.293  1.00  0.00    -0.158 C  
HETATM    7  C   UNL     1      -8.688  14.778  67.095  1.00  0.00    -0.241 C  
HETATM    8  C   UNL     1     -10.197  15.013  67.074  1.00  0.00    -0.257 C  
HETATM    9  C   UNL     1     -10.988  13.719  67.272  1.00  0.00    -0.302 C  
HETATM   10  C   UNL     1     -10.458  12.937  68.482  1.00  0.00    -0.247 C  
BRANCH  10  11
HETATM   11  C   UNL     1     -11.290  11.673  68.807  1.00  0.00    -0.264 C  
HETATM   12  N   UNL     1     -10.891  11.067  69.990  1.00  0.00    -0.463 N  
HETATM   13  O   UNL     1     -12.253  11.331  68.122  1.00  0.00    -0.622 OA 
HETATM   14  H   UNL     1     -10.169  11.550  70.525  1.00  0.00     0.000 HD 
BRANCH  12  15
HETATM   15  C   UNL     1     -11.372   9.856  70.537  1.00  0.00    -0.327 A  
HETATM   16  C   UNL     1     -10.890   8.590  70.135  1.00  0.00    -0.238 A  
HETATM   17  C   UNL     1      -9.838   8.354  69.087  1.00  0.00    -0.183 C  
HETATM   18  C   UNL     1     -11.374   7.432  70.775  1.00  0.00    -0.303 A  
HETATM   19  C   UNL     1     -12.287   7.514  71.823  1.00  0.00    -0.357 A  
HETATM   20  C   UNL     1     -12.754   8.757  72.228  1.00  0.00    -0.466 A  
HETATM   21  C   UNL     1     -12.307   9.931  71.600  1.00  0.00    -0.496 A  
HETATM   22  C   UNL     1     -12.921  11.237  72.046  1.00  0.00    -0.379 C  
ENDBRANCH  12  15
ENDBRANCH  10  11
ENDBRANCH   4   5
ENDBRANCH   3   4
ENDBRANCH   2   3
TORSDOF 5
ENDMDL
MODEL       97
REMARK 921   NORMALIZED FREE ENERGY PREDICTED BY IDOCK:   -4.48 KCAL/MOL
REMARK 922        TOTAL FREE ENERGY PREDICTED BY IDOCK:   -6.74 KCAL/MOL
REMARK 923 INTER-LIGAND FREE ENERGY PREDICTED BY IDOCK:   -6.45 KCAL/MOL
REMARK 924 INTRA-LIGAND FREE ENERGY PREDICTED BY IDOCK:   -0.29 KCAL/MOL
REMARK 927      BINDING AFFINITY PREDICTED BY RF-SCORE:    0.00 PKD
ROOT
HETATM    1  C   UNL     1     -11.184  14.390  65.481  1.00  0.00    -0.330 C  
HETATM    2  C   UNL     1     -11.784  13.756  66.729  1.00  0.00    -0.420 C  
ENDROOT
BRANCH   2   3
HETATM    3  C   UNL     1     -11.280  14.433  68.002  1.00  0.00    -0.298 C  
BRANCH   3   4
HETATM    4  C   UNL     1     -12.251  14.268  69.184  1.00  0.00    -0.237 C  
BRANCH   4   5
HETATM    5  N   UNL     1     -11.595  13.987  70.483  1.00  0.00    -0.177 NA 
HETATM    6  C   UNL     1     -11.455  15.200  71.312  1.00  0.00    -0.349 C  
HETATM    7  C   UNL     1     -12.791  15.775  71.791  1.00  0.00    -0.517 C  
HETATM    8  C   UNL     1     -13.624  14.723  72.521  1.00  0.00    -0.571 C  
HETATM    9  C   UNL     1     -13.710  13.410  71.743  1.00  0.00    -0.335 C  
HETATM   10  C   UNL     1     -12.316  12.951  71.293  1.00  0.00    -0.078 C  
BRANCH  10  11
HETATM   11  C   UNL     1     -12.321  11.567  70.599  1.00  0.00    -0.364 C  
HETATM   12  N   UNL     1     -11.820  10.564  71.418  1.00  0.00    -0.242 N  
HETATM   13  O   UNL     1     -12.812  11.397  69.485  1.00  0.00     0.013 OA 
HETATM   14  H   UNL     1     -11.582  10.835  72.372  1.00  0.00     0.000 HD 
BRANCH  12  15
HETATM   15  C   UNL     1     -11.601   9.210  71.077  1.00  0.00    -0.306 A  
HETATM   16  C   UNL     1     -12.537   8.190  71.360  1.00  0.00    -0.301 A  
HETATM   17  C   UNL     1     -13.855   8.388  72.055  1.00  0.00    -0.439 C  
HETATM   18  C   UNL     1     -12.273   6.874  70.929  1.00  0.00    -0.404 A  
HETATM   19  C   UNL     1     -11.129   6.569  70.197  1.00  0.00    -0.410 A  
HETATM   20  C   UNL     1     -10.214   7.571  69.909  1.00  0.00    -0.210 A  
HETATM   21  C   UNL     1     -10.434   8.891  70.337  1.00  0.00    -0.245 A  
HETATM   22  C   UNL     1      -9.354   9.906  70.051  1.00  0.00    -0.232 C  
ENDBRANCH  12  15
ENDBRANCH  10  11
ENDBRANCH   4   5
ENDBRANCH   3   4
ENDBRANCH   2   3
TORSDOF 5
ENDMDL
MODEL       98
REMARK 921   NORMALIZED FREE ENERGY PREDICTED BY IDOCK:   -4.48 KCAL/MOL
REMARK 922        TOTAL FREE ENERGY PREDICTED BY IDOCK:   -6.74 KCAL/MOL
REMARK 923 INTER-LIGAND FREE ENERGY PREDICTED BY IDOCK:   -5.89 KCAL/MOL
REMARK 924 INTRA-LIGAND FREE ENERGY PREDICTED BY IDOCK:   -0.84 KCAL/MOL
REMARK 927      BINDING AFFINITY PREDICTED BY RF-SCORE:    0.00 PKD
ROOT
HETATM    1  C   UNL     1      -5.428  21.013  67.949  1.00  0.00    -0.348 C  
HETATM    2  C   UNL     1      -5.843  19.766  67.179  1.00  0.00    -0.181 C  
ENDROOT
BRANCH   2   3
HETATM    3  C   UNL     1      -6.499  18.733  68.092  1.00  0.00    -0.227 C  
BRANCH   3   4
HETATM    4  C   UNL     1      -7.607  17.934  67.383  1.00  0.00    -0.206 C  
BRANCH   4   5
HETATM    5  N   UNL     1      -8.901  17.904  68.105  1.00  0.00    -0.258 NA 
HETATM    6  C   UNL     1      -9.248  19.217  68.682  1.00  0.00    -0.385 C  
HETATM    7  C   UNL     1      -9.538  20.293  67.631  1.00  0.00    -0.530 C  
HETATM    8  C   UNL     1     -10.615  19.840  66.648  1.00  0.00    -0.578 C  
HETATM    9  C   UNL     1     -10.349  18.437  66.102  1.00  0.00    -0.431 C  
HETATM   10  C   UNL     1     -10.044  17.457  67.244  1.00  0.00    -0.310 C  
BRANCH  10  11
HETATM   11  C   UNL     1      -9.878  15.994  66.767  1.00  0.00    -0.250 C  
HETATM   12  N   UNL     1      -9.762  15.103  67.826  1.00  0.00    -0.211 N  
HETATM   13  O   UNL     1      -9.945  15.682  65.580  1.00  0.00    -0.337 OA 
HETATM   14  H   UNL     1      -9.868  15.496  68.762  1.00  0.00     0.000 HD 
BRANCH  12  15
HETATM   15  C   UNL     1      -9.513  13.714  67.753  1.00  0.00    -0.221 A  
HETATM   16  C   UNL     1      -8.216  13.177  67.590  1.00  0.00    -0.175 A  
HETATM   17  C   UNL     1      -6.953  13.981  67.458  1.00  0.00    -0.167 C  
HETATM   18  C   UNL     1      -8.043  11.778  67.592  1.00  0.00    -0.144 A  
HETATM   19  C   UNL     1      -9.119  10.918  67.794  1.00  0.00    -0.149 A  
HETATM   20  C   UNL     1     -10.392  11.443  67.965  1.00  0.00    -0.204 A  
HETATM   21  C   UNL     1     -10.605  12.832  67.950  1.00  0.00    -0.232 A  
HETATM   22  C   UNL     1     -12.029  13.320  68.067  1.00  0.00    -0.351 C  
ENDBRANCH  12  15
ENDBRANCH  10  11
ENDBRANCH   4   5
ENDBRANCH   3   4
ENDBRANCH   2   3
TORSDOF 5
ENDMDL
MODEL       99
REMARK 921   NORMALIZED FREE ENERGY PREDICTED BY IDOCK:   -4.48 KCAL/MOL
REMARK 922        TOTAL FREE ENERGY PREDICTED BY IDOCK:   -6.74 KCAL/MOL
REMARK 923 INTER-LIGAND FREE ENERGY PREDICTED BY IDOCK:   -6.45 KCAL/MOL
REMARK 924 INTRA-LIGAND FREE ENERGY PREDICTED BY IDOCK:   -0.29 KCAL/MOL
REMARK 927      BINDING AFFINITY PREDICTED BY RF-SCORE:    0.00 PKD
ROOT
HETATM    1  C   UNL     1     -10.067  18.271  68.089  1.00  0.00    -0.397 C  
HETATM    2  C   UNL     1     -10.243  17.106  69.054  1.00  0.00    -0.315 C  
ENDROOT
BRANCH   2   3
HETATM    3  C   UNL     1     -11.206  16.057  68.502  1.00  0.00    -0.374 C  
BRANCH   3   4
HETATM    4  C   UNL     1     -12.131  15.475  69.585  1.00  0.00    -0.328 C  
BRANCH   4   5
HETATM    5  N   UNL     1     -11.425  14.772  70.683  1.00  0.00    -0.259 NA 
HETATM    6  C   UNL     1     -11.490  15.517  71.954  1.00  0.00    -0.423 C  
HETATM    7  C   UNL     1     -12.901  15.609  72.542  1.00  0.00    -0.526 C  
HETATM    8  C   UNL     1     -13.534  14.228  72.700  1.00  0.00    -0.623 C  
HETATM    9  C   UNL     1     -13.399  13.381  71.435  1.00  0.00    -0.267 C  
HETATM   10  C   UNL     1     -11.950  13.388  70.927  1.00  0.00    -0.042 C  
BRANCH  10  11
HETATM   11  C   UNL     1     -11.721  12.455  69.713  1.00  0.00    -0.291 C  
HETATM   12  N   UNL     1     -10.715  12.915  68.875  1.00  0.00    -0.374 N  
HETATM   13  O   UNL     1     -12.314  11.385  69.591  1.00  0.00    -0.259 OA 
HETATM   14  H   UNL     1     -10.213  13.748  69.185  1.00  0.00     0.000 HD 
BRANCH  12  15
HETATM   15  C   UNL     1     -10.308  12.361  67.640  1.00  0.00    -0.216 A  
HETATM   16  C   UNL     1     -10.974  12.632  66.424  1.00  0.00    -0.304 A  
HETATM   17  C   UNL     1     -12.184  13.511  66.272  1.00  0.00    -0.468 C  
HETATM   18  C   UNL     1     -10.466  12.092  65.225  1.00  0.00    -0.323 A  
HETATM   19  C   UNL     1      -9.300  11.331  65.211  1.00  0.00    -0.225 A  
HETATM   20  C   UNL     1      -8.639  11.072  66.404  1.00  0.00    -0.165 A  
HETATM   21  C   UNL     1      -9.125  11.579  67.620  1.00  0.00    -0.168 A  
HETATM   22  C   UNL     1      -8.392  11.188  68.881  1.00  0.00    -0.101 C  
ENDBRANCH  12  15
ENDBRANCH  10  11
ENDBRANCH   4   5
ENDBRANCH   3   4
ENDBRANCH   2   3
TORSDOF 5
ENDMDL
MODEL      100
REMARK 921   NORMALIZED FREE ENERGY PREDICTED BY IDOCK:   -4.46 KCAL/MOL
REMARK 922        TOTAL FREE ENERGY PREDICTED BY IDOCK:   -6.71 KCAL/MOL
REMARK 923 INTER-LIGAND FREE ENERGY PREDICTED BY IDOCK:   -6.12 KCAL/MOL
REMARK 924 INTRA-LIGAND FREE ENERGY PREDICTED BY IDOCK:   -0.59 KCAL/MOL
REMARK 927      BINDING AFFINITY PREDICTED BY RF-SCORE:    0.00 PKD
ROOT
HETATM    1  C   UNL     1     -12.175  12.513  63.710  1.00  0.00    -0.615 C  
HETATM    2  C   UNL     1     -11.629  12.258  65.109  1.00  0.00    -0.402 C  
ENDROOT
BRANCH   2   3
HETATM    3  C   UNL     1     -10.249  12.885  65.298  1.00  0.00    -0.294 C  
BRANCH   3   4
HETATM    4  C   UNL     1      -9.450  12.227  66.436  1.00  0.00    -0.237 C  
BRANCH   4   5
HETATM    5  N   UNL     1      -9.153  10.790  66.227  1.00  0.00    -0.169 NA 
HETATM    6  C   UNL     1      -7.887  10.584  65.497  1.00  0.00    -0.138 C  
HETATM    7  C   UNL     1      -6.646  11.015  66.283  1.00  0.00    -0.105 C  
HETATM    8  C   UNL     1      -6.588  10.342  67.653  1.00  0.00    -0.066 C  
HETATM    9  C   UNL     1      -7.915  10.442  68.405  1.00  0.00    -0.110 C  
HETATM   10  C   UNL     1      -9.084  10.012  67.507  1.00  0.00    -0.134 C  
BRANCH  10  11
HETATM   11  C   UNL     1     -10.445   9.981  68.245  1.00  0.00    -0.213 C  
HETATM   12  N   UNL     1     -10.297   9.909  69.623  1.00  0.00    -0.224 N  
HETATM   13  O   UNL     1     -11.513  10.107  67.650  1.00  0.00    -0.271 OA 
HETATM   14  H   UNL     1      -9.342   9.956  69.979  1.00  0.00     0.000 HD 
BRANCH  12  15
HETATM   15  C   UNL     1     -11.320   9.778  70.589  1.00  0.00    -0.330 A  
HETATM   16  C   UNL     1     -12.199  10.834  70.920  1.00  0.00    -0.487 A  
HETATM   17  C   UNL     1     -12.165  12.213  70.322  1.00  0.00    -0.344 C  
HETATM   18  C   UNL     1     -13.236  10.603  71.847  1.00  0.00    -0.528 A  
HETATM   19  C   UNL     1     -13.435   9.346  72.410  1.00  0.00    -0.506 A  
HETATM   20  C   UNL     1     -12.579   8.304  72.078  1.00  0.00    -0.387 A  
HETATM   21  C   UNL     1     -11.524   8.502  71.172  1.00  0.00    -0.322 A  
HETATM   22  C   UNL     1     -10.592   7.340  70.924  1.00  0.00    -0.234 C  
ENDBRANCH  12  15
ENDBRANCH  10  11
ENDBRANCH   4   5
ENDBRANCH   3   4
ENDBRANCH   2   3
TORSDOF 5
ENDMDL
MODEL      101
REMARK 921   NORMALIZED FREE ENERGY PREDICTED BY IDOCK:   -4.43 KCAL/MOL
REMARK 922        TOTAL FREE ENERGY PREDICTED BY IDOCK:   -6.67 KCAL/MOL
REMARK 923 INTER-LIGAND FREE ENERGY PREDICTED BY IDOCK:   -5.74 KCAL/MOL
REMARK 924 INTRA-LIGAND FREE ENERGY PREDICTED BY IDOCK:   -0.93 KCAL/MOL
REMARK 927      BINDING AFFINITY PREDICTED BY RF-SCORE:    0.00 PKD
ROOT
HETATM    1  C   UNL     1     -12.274  14.730  64.367  1.00  0.00    -0.447 C  
HETATM    2  C   UNL     1     -11.285  15.825  64.741  1.00  0.00    -0.375 C  
ENDROOT
BRANCH   2   3
HETATM    3  C   UNL     1     -10.369  15.390  65.884  1.00  0.00    -0.359 C  
BRANCH   3   4
HETATM    4  C   UNL     1     -11.109  14.574  66.958  1.00  0.00    -0.322 C  
BRANCH   4   5
HETATM    5  N   UNL     1     -10.286  14.226  68.140  1.00  0.00    -0.229 NA 
HETATM    6  C   UNL     1     -10.867  14.742  69.395  1.00  0.00    -0.255 C  
HETATM    7  C   UNL     1     -12.196  14.084  69.774  1.00  0.00    -0.396 C  
HETATM    8  C   UNL     1     -12.072  12.562  69.831  1.00  0.00    -0.322 C  
HETATM    9  C   UNL     1     -11.381  11.991  68.592  1.00  0.00    -0.329 C  
HETATM   10  C   UNL     1     -10.079  12.749  68.298  1.00  0.00    -0.237 C  
BRANCH  10  11
HETATM   11  C   UNL     1      -9.271  12.145  67.123  1.00  0.00    -0.193 C  
HETATM   12  N   UNL     1      -9.985  11.174  66.435  1.00  0.00    -0.210 N  
HETATM   13  O   UNL     1      -8.163  12.573  66.804  1.00  0.00    -0.116 OA 
HETATM   14  H   UNL     1     -10.951  11.028  66.730  1.00  0.00     0.000 HD 
BRANCH  12  15
HETATM   15  C   UNL     1      -9.524  10.363  65.373  1.00  0.00    -0.232 A  
HETATM   16  C   UNL     1      -9.633  10.746  64.017  1.00  0.00    -0.339 A  
HETATM   17  C   UNL     1     -10.248  12.025  63.521  1.00  0.00    -0.477 C  
HETATM   18  C   UNL     1      -9.090   9.911  63.019  1.00  0.00    -0.291 A  
HETATM   19  C   UNL     1      -8.414   8.739  63.346  1.00  0.00    -0.116 A  
HETATM   20  C   UNL     1      -8.297   8.367  64.678  1.00  0.00    -0.137 A  
HETATM   21  C   UNL     1      -8.842   9.164  65.698  1.00  0.00    -0.222 A  
HETATM   22  C   UNL     1      -8.739   8.651  67.115  1.00  0.00    -0.134 C  
ENDBRANCH  12  15
ENDBRANCH  10  11
ENDBRANCH   4   5
ENDBRANCH   3   4
ENDBRANCH   2   3
TORSDOF 5
ENDMDL
MODEL      102
REMARK 921   NORMALIZED FREE ENERGY PREDICTED BY IDOCK:   -4.41 KCAL/MOL
REMARK 922        TOTAL FREE ENERGY PREDICTED BY IDOCK:   -6.65 KCAL/MOL
REMARK 923 INTER-LIGAND FREE ENERGY PREDICTED BY IDOCK:   -5.74 KCAL/MOL
REMARK 924 INTRA-LIGAND FREE ENERGY PREDICTED BY IDOCK:   -0.91 KCAL/MOL
REMARK 927      BINDING AFFINITY PREDICTED BY RF-SCORE:    0.00 PKD
ROOT
HETATM    1  C   UNL     1      -7.555   6.055  65.931  1.00  0.00    -0.087 C  
HETATM    2  C   UNL     1      -8.191   7.179  65.124  1.00  0.00    -0.114 C  
ENDROOT
BRANCH   2   3
HETATM    3  C   UNL     1      -8.724   8.289  66.028  1.00  0.00    -0.181 C  
BRANCH   3   4
HETATM    4  C   UNL     1      -9.007   7.801  67.460  1.00  0.00    -0.123 C  
BRANCH   4   5
HETATM    5  N   UNL     1     -10.443   7.598  67.767  1.00  0.00    -0.221 NA 
HETATM    6  C   UNL     1     -10.907   6.248  67.394  1.00  0.00    -0.363 C  
HETATM    7  C   UNL     1     -10.281   5.129  68.231  1.00  0.00    -0.179 C  
HETATM    8  C   UNL     1     -10.481   5.368  69.726  1.00  0.00    -0.378 C  
HETATM    9  C   UNL     1     -10.108   6.792  70.140  1.00  0.00    -0.195 C  
HETATM   10  C   UNL     1     -10.772   7.820  69.213  1.00  0.00    -0.147 C  
BRANCH  10  11
HETATM   11  C   UNL     1     -10.527   9.286  69.648  1.00  0.00    -0.224 C  
HETATM   12  N   UNL     1     -11.540  10.137  69.229  1.00  0.00    -0.462 N  
HETATM   13  O   UNL     1      -9.583   9.604  70.368  1.00  0.00    -0.251 OA 
HETATM   14  H   UNL     1     -12.335   9.700  68.761  1.00  0.00     0.000 HD 
BRANCH  12  15
HETATM   15  C   UNL     1     -11.594  11.542  69.376  1.00  0.00    -0.321 A  
HETATM   16  C   UNL     1     -11.069  12.433  68.414  1.00  0.00    -0.288 A  
HETATM   17  C   UNL     1     -10.383  12.028  67.138  1.00  0.00    -0.235 C  
HETATM   18  C   UNL     1     -11.220  13.821  68.603  1.00  0.00    -0.308 A  
HETATM   19  C   UNL     1     -11.913  14.329  69.699  1.00  0.00    -0.387 A  
HETATM   20  C   UNL     1     -12.439  13.456  70.640  1.00  0.00    -0.385 A  
HETATM   21  C   UNL     1     -12.292  12.067  70.494  1.00  0.00    -0.369 A  
HETATM   22  C   UNL     1     -12.825  11.188  71.600  1.00  0.00    -0.524 C  
ENDBRANCH  12  15
ENDBRANCH  10  11
ENDBRANCH   4   5
ENDBRANCH   3   4
ENDBRANCH   2   3
TORSDOF 5
ENDMDL
MODEL      103
REMARK 921   NORMALIZED FREE ENERGY PREDICTED BY IDOCK:   -4.40 KCAL/MOL
REMARK 922        TOTAL FREE ENERGY PREDICTED BY IDOCK:   -6.63 KCAL/MOL
REMARK 923 INTER-LIGAND FREE ENERGY PREDICTED BY IDOCK:   -5.77 KCAL/MOL
REMARK 924 INTRA-LIGAND FREE ENERGY PREDICTED BY IDOCK:   -0.86 KCAL/MOL
REMARK 927      BINDING AFFINITY PREDICTED BY RF-SCORE:    0.00 PKD
ROOT
HETATM    1  C   UNL     1     -12.356  12.108  63.811  1.00  0.00    -0.635 C  
HETATM    2  C   UNL     1     -12.274  13.608  63.561  1.00  0.00    -0.329 C  
ENDROOT
BRANCH   2   3
HETATM    3  C   UNL     1     -11.325  14.291  64.544  1.00  0.00    -0.341 C  
BRANCH   3   4
HETATM    4  C   UNL     1     -11.709  14.035  66.012  1.00  0.00    -0.369 C  
BRANCH   4   5
HETATM    5  N   UNL     1     -10.568  14.052  66.957  1.00  0.00    -0.278 NA 
HETATM    6  C   UNL     1     -10.367  15.381  67.566  1.00  0.00    -0.264 C  
HETATM    7  C   UNL     1     -11.506  15.811  68.494  1.00  0.00    -0.381 C  
HETATM    8  C   UNL     1     -11.774  14.765  69.574  1.00  0.00    -0.358 C  
HETATM    9  C   UNL     1     -11.888  13.353  68.998  1.00  0.00    -0.378 C  
HETATM   10  C   UNL     1     -10.708  13.050  68.064  1.00  0.00    -0.232 C  
BRANCH  10  11
HETATM   11  C   UNL     1     -10.702  11.594  67.537  1.00  0.00    -0.215 C  
HETATM   12  N   UNL     1      -9.416  11.095  67.376  1.00  0.00    -0.164 N  
HETATM   13  O   UNL     1     -11.738  10.950  67.385  1.00  0.00    -0.510 OA 
HETATM   14  H   UNL     1      -8.654  11.701  67.682  1.00  0.00     0.000 HD 
BRANCH  12  15
HETATM   15  C   UNL     1      -9.044   9.843  66.837  1.00  0.00    -0.142 A  
HETATM   16  C   UNL     1      -8.917   9.617  65.448  1.00  0.00    -0.231 A  
HETATM   17  C   UNL     1      -9.166  10.639  64.374  1.00  0.00    -0.267 C  
HETATM   18  C   UNL     1      -8.478   8.357  64.992  1.00  0.00    -0.160 A  
HETATM   19  C   UNL     1      -8.129   7.347  65.884  1.00  0.00    -0.128 A  
HETATM   20  C   UNL     1      -8.243   7.571  67.249  1.00  0.00    -0.115 A  
HETATM   21  C   UNL     1      -8.694   8.808  67.739  1.00  0.00    -0.136 A  
HETATM   22  C   UNL     1      -8.864   8.945  69.234  1.00  0.00    -0.139 C  
ENDBRANCH  12  15
ENDBRANCH  10  11
ENDBRANCH   4   5
ENDBRANCH   3   4
ENDBRANCH   2   3
TORSDOF 5
ENDMDL
MODEL      104
REMARK 921   NORMALIZED FREE ENERGY PREDICTED BY IDOCK:   -4.39 KCAL/MOL
REMARK 922        TOTAL FREE ENERGY PREDICTED BY IDOCK:   -6.62 KCAL/MOL
REMARK 923 INTER-LIGAND FREE ENERGY PREDICTED BY IDOCK:   -5.99 KCAL/MOL
REMARK 924 INTRA-LIGAND FREE ENERGY PREDICTED BY IDOCK:   -0.62 KCAL/MOL
REMARK 927      BINDING AFFINITY PREDICTED BY RF-SCORE:    0.00 PKD
ROOT
HETATM    1  C   UNL     1      -6.649   9.887  70.362  1.00  0.00    -0.125 C  
HETATM    2  C   UNL     1      -7.625   8.721  70.434  1.00  0.00    -0.082 C  
ENDROOT
BRANCH   2   3
HETATM    3  C   UNL     1      -8.882   8.986  69.608  1.00  0.00    -0.145 C  
BRANCH   3   4
HETATM    4  C   UNL     1      -9.995   9.664  70.427  1.00  0.00    -0.271 C  
BRANCH   4   5
HETATM    5  N   UNL     1     -11.371   9.289  70.022  1.00  0.00    -0.172 NA 
HETATM    6  C   UNL     1     -11.909   8.182  70.836  1.00  0.00    -0.218 C  
HETATM    7  C   UNL     1     -12.140   8.553  72.303  1.00  0.00    -0.455 C  
HETATM    8  C   UNL     1     -13.024   9.792  72.436  1.00  0.00    -0.312 C  
HETATM    9  C   UNL     1     -12.562  10.933  71.530  1.00  0.00    -0.480 C  
HETATM   10  C   UNL     1     -12.337  10.433  70.096  1.00  0.00    -0.208 C  
BRANCH  10  11
HETATM   11  C   UNL     1     -11.979  11.564  69.101  1.00  0.00    -0.320 C  
HETATM   12  N   UNL     1     -11.352  12.635  69.723  1.00  0.00    -0.496 N  
HETATM   13  O   UNL     1     -12.155  11.449  67.890  1.00  0.00    -0.646 OA 
HETATM   14  H   UNL     1     -11.144  12.524  70.716  1.00  0.00     0.000 HD 
BRANCH  12  15
HETATM   15  C   UNL     1     -10.970  13.863  69.136  1.00  0.00    -0.218 A  
HETATM   16  C   UNL     1     -11.668  15.070  69.366  1.00  0.00    -0.351 A  
HETATM   17  C   UNL     1     -12.890  15.217  70.230  1.00  0.00    -0.298 C  
HETATM   18  C   UNL     1     -11.185  16.265  68.795  1.00  0.00    -0.343 A  
HETATM   19  C   UNL     1     -10.012  16.285  68.045  1.00  0.00    -0.240 A  
HETATM   20  C   UNL     1      -9.320  15.103  67.827  1.00  0.00    -0.189 A  
HETATM   21  C   UNL     1      -9.781  13.890  68.364  1.00  0.00    -0.226 A  
HETATM   22  C   UNL     1      -9.013  12.636  68.017  1.00  0.00    -0.200 C  
ENDBRANCH  12  15
ENDBRANCH  10  11
ENDBRANCH   4   5
ENDBRANCH   3   4
ENDBRANCH   2   3
TORSDOF 5
ENDMDL
MODEL      105
REMARK 921   NORMALIZED FREE ENERGY PREDICTED BY IDOCK:   -4.38 KCAL/MOL
REMARK 922        TOTAL FREE ENERGY PREDICTED BY IDOCK:   -6.61 KCAL/MOL
REMARK 923 INTER-LIGAND FREE ENERGY PREDICTED BY IDOCK:   -5.74 KCAL/MOL
REMARK 924 INTRA-LIGAND FREE ENERGY PREDICTED BY IDOCK:   -0.86 KCAL/MOL
REMARK 927      BINDING AFFINITY PREDICTED BY RF-SCORE:    0.00 PKD
ROOT
HETATM    1  C   UNL     1      -7.718   8.731  65.395  1.00  0.00    -0.089 C  
HETATM    2  C   UNL     1      -8.771   8.983  64.325  1.00  0.00    -0.140 C  
ENDROOT
BRANCH   2   3
HETATM    3  C   UNL     1      -9.479  10.320  64.536  1.00  0.00    -0.356 C  
BRANCH   3   4
HETATM    4  C   UNL     1     -10.096  10.448  65.940  1.00  0.00    -0.261 C  
BRANCH   4   5
HETATM    5  N   UNL     1      -9.612  11.613  66.719  1.00  0.00    -0.189 NA 
HETATM    6  C   UNL     1      -9.804  12.885  65.996  1.00  0.00    -0.255 C  
HETATM    7  C   UNL     1     -11.274  13.268  65.803  1.00  0.00    -0.313 C  
HETATM    8  C   UNL     1     -12.026  13.290  67.133  1.00  0.00    -0.400 C  
HETATM    9  C   UNL     1     -11.774  12.032  67.963  1.00  0.00    -0.398 C  
HETATM   10  C   UNL     1     -10.270  11.736  68.060  1.00  0.00    -0.193 C  
BRANCH  10  11
HETATM   11  C   UNL     1      -9.940  10.538  68.985  1.00  0.00    -0.211 C  
HETATM   12  N   UNL     1     -11.036   9.713  69.191  1.00  0.00    -0.413 N  
HETATM   13  O   UNL     1      -8.800  10.321  69.390  1.00  0.00    -0.172 OA 
HETATM   14  H   UNL     1     -11.883   9.944  68.670  1.00  0.00     0.000 HD 
BRANCH  12  15
HETATM   15  C   UNL     1     -11.113   8.587  70.043  1.00  0.00    -0.151 A  
HETATM   16  C   UNL     1     -10.523   7.344  69.722  1.00  0.00    -0.235 A  
HETATM   17  C   UNL     1      -9.764   7.042  68.459  1.00  0.00    -0.141 C  
HETATM   18  C   UNL     1     -10.587   6.289  70.654  1.00  0.00    -0.301 A  
HETATM   19  C   UNL     1     -11.185   6.460  71.899  1.00  0.00    -0.325 A  
HETATM   20  C   UNL     1     -11.756   7.684  72.221  1.00  0.00    -0.371 A  
HETATM   21  C   UNL     1     -11.726   8.753  71.310  1.00  0.00    -0.356 A  
HETATM   22  C   UNL     1     -12.437  10.025  71.706  1.00  0.00    -0.475 C  
ENDBRANCH  12  15
ENDBRANCH  10  11
ENDBRANCH   4   5
ENDBRANCH   3   4
ENDBRANCH   2   3
TORSDOF 5
ENDMDL
MODEL      106
REMARK 921   NORMALIZED FREE ENERGY PREDICTED BY IDOCK:   -4.34 KCAL/MOL
REMARK 922        TOTAL FREE ENERGY PREDICTED BY IDOCK:   -6.55 KCAL/MOL
REMARK 923 INTER-LIGAND FREE ENERGY PREDICTED BY IDOCK:   -5.65 KCAL/MOL
REMARK 924 INTRA-LIGAND FREE ENERGY PREDICTED BY IDOCK:   -0.91 KCAL/MOL
REMARK 927      BINDING AFFINITY PREDICTED BY RF-SCORE:    0.00 PKD
ROOT
HETATM    1  C   UNL     1     -10.371  10.839  64.821  1.00  0.00    -0.380 C  
HETATM    2  C   UNL     1      -9.450   9.902  65.591  1.00  0.00    -0.295 C  
ENDROOT
BRANCH   2   3
HETATM    3  C   UNL     1     -10.200   9.155  66.692  1.00  0.00    -0.328 C  
BRANCH   3   4
HETATM    4  C   UNL     1     -10.995  10.099  67.612  1.00  0.00    -0.268 C  
BRANCH   4   5
HETATM    5  N   UNL     1     -10.200  10.702  68.707  1.00  0.00    -0.181 NA 
HETATM    6  C   UNL     1      -9.739  12.064  68.376  1.00  0.00    -0.199 C  
HETATM    7  C   UNL     1     -10.873  13.086  68.256  1.00  0.00    -0.267 C  
HETATM    8  C   UNL     1     -11.742  13.108  69.512  1.00  0.00    -0.382 C  
HETATM    9  C   UNL     1     -12.160  11.705  69.952  1.00  0.00    -0.373 C  
HETATM   10  C   UNL     1     -10.946  10.767  70.007  1.00  0.00    -0.211 C  
BRANCH  10  11
HETATM   11  C   UNL     1     -11.283   9.360  70.557  1.00  0.00    -0.275 C  
HETATM   12  N   UNL     1     -10.163   8.543  70.641  1.00  0.00    -0.192 N  
HETATM   13  O   UNL     1     -12.408   9.067  70.957  1.00  0.00    -0.280 OA 
HETATM   14  H   UNL     1      -9.269   8.975  70.406  1.00  0.00     0.000 HD 
BRANCH  12  15
HETATM   15  C   UNL     1     -10.123   7.181  71.015  1.00  0.00    -0.192 A  
HETATM   16  C   UNL     1     -10.471   6.135  70.131  1.00  0.00    -0.291 A  
HETATM   17  C   UNL     1     -10.936   6.314  68.712  1.00  0.00    -0.424 C  
HETATM   18  C   UNL     1     -10.342   4.798  70.559  1.00  0.00    -0.187 A  
HETATM   19  C   UNL     1      -9.839   4.489  71.820  1.00  0.00    -0.252 A  
HETATM   20  C   UNL     1      -9.486   5.515  72.686  1.00  0.00    -0.160 A  
HETATM   21  C   UNL     1      -9.619   6.859  72.300  1.00  0.00    -0.159 A  
HETATM   22  C   UNL     1      -9.286   7.915  73.327  1.00  0.00    -0.351 C  
ENDBRANCH  12  15
ENDBRANCH  10  11
ENDBRANCH   4   5
ENDBRANCH   3   4
ENDBRANCH   2   3
TORSDOF 5
ENDMDL
MODEL      107
REMARK 921   NORMALIZED FREE ENERGY PREDICTED BY IDOCK:   -4.34 KCAL/MOL
REMARK 922        TOTAL FREE ENERGY PREDICTED BY IDOCK:   -6.55 KCAL/MOL
REMARK 923 INTER-LIGAND FREE ENERGY PREDICTED BY IDOCK:   -5.64 KCAL/MOL
REMARK 924 INTRA-LIGAND FREE ENERGY PREDICTED BY IDOCK:   -0.91 KCAL/MOL
REMARK 927      BINDING AFFINITY PREDICTED BY RF-SCORE:    0.00 PKD
ROOT
HETATM    1  C   UNL     1      -9.670   4.459  69.541  1.00  0.00    -0.280 C  
HETATM    2  C   UNL     1      -9.938   5.384  68.361  1.00  0.00    -0.217 C  
ENDROOT
BRANCH   2   3
HETATM    3  C   UNL     1     -11.027   6.405  68.683  1.00  0.00    -0.404 C  
BRANCH   3   4
HETATM    4  C   UNL     1     -10.538   7.858  68.542  1.00  0.00    -0.106 C  
BRANCH   4   5
HETATM    5  N   UNL     1     -10.784   8.707  69.732  1.00  0.00    -0.228 NA 
HETATM    6  C   UNL     1     -10.307   8.074  70.977  1.00  0.00    -0.201 C  
HETATM    7  C   UNL     1      -8.785   7.927  71.048  1.00  0.00    -0.138 C  
HETATM    8  C   UNL     1      -8.081   9.264  70.825  1.00  0.00    -0.194 C  
HETATM    9  C   UNL     1      -8.617  10.004  69.600  1.00  0.00    -0.198 C  
HETATM   10  C   UNL     1     -10.151  10.062  69.627  1.00  0.00    -0.236 C  
BRANCH  10  11
HETATM   11  C   UNL     1     -10.753  10.899  68.472  1.00  0.00    -0.204 C  
HETATM   12  N   UNL     1      -9.780  11.565  67.739  1.00  0.00    -0.171 N  
HETATM   13  O   UNL     1     -11.953  10.874  68.203  1.00  0.00    -0.581 OA 
HETATM   14  H   UNL     1      -8.811  11.374  67.994  1.00  0.00     0.000 HD 
BRANCH  12  15
HETATM   15  C   UNL     1      -9.981  12.478  66.679  1.00  0.00    -0.236 A  
HETATM   16  C   UNL     1     -10.211  12.065  65.347  1.00  0.00    -0.295 A  
HETATM   17  C   UNL     1     -10.259  10.638  64.876  1.00  0.00    -0.395 C  
HETATM   18  C   UNL     1     -10.467  13.036  64.359  1.00  0.00    -0.426 A  
HETATM   19  C   UNL     1     -10.538  14.390  64.677  1.00  0.00    -0.331 A  
HETATM   20  C   UNL     1     -10.323  14.797  65.986  1.00  0.00    -0.318 A  
HETATM   21  C   UNL     1     -10.047  13.859  66.994  1.00  0.00    -0.256 A  
HETATM   22  C   UNL     1      -9.749  14.388  68.377  1.00  0.00    -0.226 C  
ENDBRANCH  12  15
ENDBRANCH  10  11
ENDBRANCH   4   5
ENDBRANCH   3   4
ENDBRANCH   2   3
TORSDOF 5
ENDMDL
MODEL      108
REMARK 921   NORMALIZED FREE ENERGY PREDICTED BY IDOCK:   -4.33 KCAL/MOL
REMARK 922        TOTAL FREE ENERGY PREDICTED BY IDOCK:   -6.54 KCAL/MOL
REMARK 923 INTER-LIGAND FREE ENERGY PREDICTED BY IDOCK:   -5.67 KCAL/MOL
REMARK 924 INTRA-LIGAND FREE ENERGY PREDICTED BY IDOCK:   -0.88 KCAL/MOL
REMARK 927      BINDING AFFINITY PREDICTED BY RF-SCORE:    0.00 PKD
ROOT
HETATM    1  C   UNL     1     -10.202  17.463  68.852  1.00  0.00    -0.352 C  
HETATM    2  C   UNL     1     -10.323  16.642  67.576  1.00  0.00    -0.294 C  
ENDROOT
BRANCH   2   3
HETATM    3  C   UNL     1     -11.086  15.341  67.814  1.00  0.00    -0.318 C  
BRANCH   3   4
HETATM    4  C   UNL     1     -10.940  14.347  66.648  1.00  0.00    -0.318 C  
BRANCH   4   5
HETATM    5  N   UNL     1     -12.157  13.549  66.365  1.00  0.00    -0.415 NA 
HETATM    6  C   UNL     1     -12.896  14.056  65.193  1.00  0.00    -0.334 C  
HETATM    7  C   UNL     1     -12.141  13.894  63.871  1.00  0.00    -0.387 C  
HETATM    8  C   UNL     1     -11.711  12.446  63.645  1.00  0.00    -0.596 C  
HETATM    9  C   UNL     1     -11.030  11.845  64.874  1.00  0.00    -0.367 C  
HETATM   10  C   UNL     1     -11.866  12.096  66.137  1.00  0.00    -0.254 C  
BRANCH  10  11
HETATM   11  C   UNL     1     -11.287  11.412  67.401  1.00  0.00    -0.288 C  
HETATM   12  N   UNL     1     -10.058  10.813  67.161  1.00  0.00    -0.197 N  
HETATM   13  O   UNL     1     -11.836  11.496  68.498  1.00  0.00    -0.388 OA 
HETATM   14  H   UNL     1      -9.660  10.952  66.232  1.00  0.00     0.000 HD 
BRANCH  12  15
HETATM   15  C   UNL     1      -9.295  10.034  68.060  1.00  0.00    -0.130 A  
HETATM   16  C   UNL     1      -9.482   8.642  68.213  1.00  0.00    -0.150 A  
HETATM   17  C   UNL     1     -10.498   7.814  67.476  1.00  0.00    -0.338 C  
HETATM   18  C   UNL     1      -8.636   7.924  69.084  1.00  0.00    -0.138 A  
HETATM   19  C   UNL     1      -7.597   8.553  69.763  1.00  0.00    -0.083 A  
HETATM   20  C   UNL     1      -7.405   9.919  69.606  1.00  0.00    -0.115 A  
HETATM   21  C   UNL     1      -8.239  10.669  68.761  1.00  0.00    -0.142 A  
HETATM   22  C   UNL     1      -8.014  12.162  68.705  1.00  0.00    -0.063 C  
ENDBRANCH  12  15
ENDBRANCH  10  11
ENDBRANCH   4   5
ENDBRANCH   3   4
ENDBRANCH   2   3
TORSDOF 5
ENDMDL
MODEL      109
REMARK 921   NORMALIZED FREE ENERGY PREDICTED BY IDOCK:   -4.33 KCAL/MOL
REMARK 922        TOTAL FREE ENERGY PREDICTED BY IDOCK:   -6.54 KCAL/MOL
REMARK 923 INTER-LIGAND FREE ENERGY PREDICTED BY IDOCK:   -6.28 KCAL/MOL
REMARK 924 INTRA-LIGAND FREE ENERGY PREDICTED BY IDOCK:   -0.26 KCAL/MOL
REMARK 927      BINDING AFFINITY PREDICTED BY RF-SCORE:    0.00 PKD
ROOT
HETATM    1  C   UNL     1      -7.217  14.586  67.565  1.00  0.00    -0.210 C  
HETATM    2  C   UNL     1      -8.211  13.521  68.010  1.00  0.00    -0.163 C  
ENDROOT
BRANCH   2   3
HETATM    3  C   UNL     1      -7.503  12.272  68.529  1.00  0.00    -0.113 C  
BRANCH   3   4
HETATM    4  C   UNL     1      -8.462  11.084  68.720  1.00  0.00    -0.144 C  
BRANCH   4   5
HETATM    5  N   UNL     1      -9.171  10.662  67.488  1.00  0.00    -0.143 NA 
HETATM    6  C   UNL     1      -8.447   9.599  66.764  1.00  0.00    -0.127 C  
HETATM    7  C   UNL     1      -8.388   8.270  67.522  1.00  0.00    -0.130 C  
HETATM    8  C   UNL     1      -9.781   7.790  67.922  1.00  0.00    -0.181 C  
HETATM    9  C   UNL     1     -10.606   8.893  68.585  1.00  0.00    -0.182 C  
HETATM   10  C   UNL     1     -10.566  10.180  67.749  1.00  0.00    -0.256 C  
BRANCH  10  11
HETATM   11  C   UNL     1     -11.477  11.301  68.307  1.00  0.00    -0.308 C  
HETATM   12  N   UNL     1     -11.247  11.547  69.654  1.00  0.00    -0.417 N  
HETATM   13  O   UNL     1     -12.235  11.947  67.586  1.00  0.00    -0.510 OA 
HETATM   14  H   UNL     1     -10.482  11.027  70.085  1.00  0.00     0.000 HD 
BRANCH  12  15
HETATM   15  C   UNL     1     -11.954  12.435  70.496  1.00  0.00    -0.195 A  
HETATM   16  C   UNL     1     -11.913  13.838  70.332  1.00  0.00    -0.385 A  
HETATM   17  C   UNL     1     -11.124  14.569  69.281  1.00  0.00    -0.296 C  
HETATM   18  C   UNL     1     -12.698  14.653  71.173  1.00  0.00    -0.409 A  
HETATM   19  C   UNL     1     -13.543  14.101  72.132  1.00  0.00    -0.568 A  
HETATM   20  C   UNL     1     -13.593  12.723  72.286  1.00  0.00    -0.563 A  
HETATM   21  C   UNL     1     -12.811  11.880  71.479  1.00  0.00    -0.421 A  
HETATM   22  C   UNL     1     -12.864  10.398  71.762  1.00  0.00    -0.561 C  
ENDBRANCH  12  15
ENDBRANCH  10  11
ENDBRANCH   4   5
ENDBRANCH   3   4
ENDBRANCH   2   3
TORSDOF 5
ENDMDL
MODEL      110
REMARK 921   NORMALIZED FREE ENERGY PREDICTED BY IDOCK:   -4.30 KCAL/MOL
REMARK 922        TOTAL FREE ENERGY PREDICTED BY IDOCK:   -6.51 KCAL/MOL
REMARK 923 INTER-LIGAND FREE ENERGY PREDICTED BY IDOCK:   -5.82 KCAL/MOL
REMARK 924 INTRA-LIGAND FREE ENERGY PREDICTED BY IDOCK:   -0.69 KCAL/MOL
REMARK 927      BINDING AFFINITY PREDICTED BY RF-SCORE:    0.00 PKD
ROOT
HETATM    1  C   UNL     1      -6.241  13.157  68.802  1.00  0.00    -0.083 C  
HETATM    2  C   UNL     1      -7.048  13.832  67.702  1.00  0.00    -0.187 C  
ENDROOT
BRANCH   2   3
HETATM    3  C   UNL     1      -8.436  13.209  67.559  1.00  0.00    -0.198 C  
BRANCH   3   4
HETATM    4  C   UNL     1      -8.383  11.757  67.053  1.00  0.00    -0.172 C  
BRANCH   4   5
HETATM    5  N   UNL     1      -9.678  11.232  66.557  1.00  0.00    -0.198 NA 
HETATM    6  C   UNL     1      -9.583  10.737  65.170  1.00  0.00    -0.245 C  
HETATM    7  C   UNL     1      -8.701   9.495  65.019  1.00  0.00    -0.205 C  
HETATM    8  C   UNL     1      -9.145   8.374  65.956  1.00  0.00    -0.235 C  
HETATM    9  C   UNL     1      -9.355   8.865  67.388  1.00  0.00    -0.165 C  
HETATM   10  C   UNL     1     -10.229  10.128  67.408  1.00  0.00    -0.218 C  
BRANCH  10  11
HETATM   11  C   UNL     1     -10.575  10.611  68.838  1.00  0.00    -0.212 C  
HETATM   12  N   UNL     1     -11.762  11.329  68.880  1.00  0.00    -0.316 N  
HETATM   13  O   UNL     1      -9.903  10.290  69.817  1.00  0.00    -0.224 OA 
HETATM   14  H   UNL     1     -12.285  11.391  68.006  1.00  0.00     0.000 HD 
BRANCH  12  15
HETATM   15  C   UNL     1     -12.327  11.985  69.997  1.00  0.00    -0.108 A  
HETATM   16  C   UNL     1     -12.894  11.288  71.088  1.00  0.00    -0.452 A  
HETATM   17  C   UNL     1     -12.989   9.792  71.208  1.00  0.00    -0.470 C  
HETATM   18  C   UNL     1     -13.379  12.014  72.194  1.00  0.00    -0.396 A  
HETATM   19  C   UNL     1     -13.272  13.401  72.250  1.00  0.00    -0.570 A  
HETATM   20  C   UNL     1     -12.706  14.087  71.185  1.00  0.00    -0.436 A  
HETATM   21  C   UNL     1     -12.229  13.398  70.058  1.00  0.00    -0.367 A  
HETATM   22  C   UNL     1     -11.699  14.223  68.910  1.00  0.00    -0.363 C  
ENDBRANCH  12  15
ENDBRANCH  10  11
ENDBRANCH   4   5
ENDBRANCH   3   4
ENDBRANCH   2   3
TORSDOF 5
ENDMDL
MODEL      111
REMARK 921   NORMALIZED FREE ENERGY PREDICTED BY IDOCK:   -4.29 KCAL/MOL
REMARK 922        TOTAL FREE ENERGY PREDICTED BY IDOCK:   -6.49 KCAL/MOL
REMARK 923 INTER-LIGAND FREE ENERGY PREDICTED BY IDOCK:   -5.62 KCAL/MOL
REMARK 924 INTRA-LIGAND FREE ENERGY PREDICTED BY IDOCK:   -0.87 KCAL/MOL
REMARK 927      BINDING AFFINITY PREDICTED BY RF-SCORE:    0.00 PKD
ROOT
HETATM    1  C   UNL     1     -10.042   6.705  74.165  1.00  0.00    -0.390 C  
HETATM    2  C   UNL     1     -10.762   5.498  73.578  1.00  0.00    -0.322 C  
ENDROOT
BRANCH   2   3
HETATM    3  C   UNL     1     -11.158   5.732  72.121  1.00  0.00    -0.327 C  
BRANCH   3   4
HETATM    4  C   UNL     1     -11.058   7.213  71.712  1.00  0.00    -0.236 C  
BRANCH   4   5
HETATM    5  N   UNL     1     -12.155   7.681  70.831  1.00  0.00    -0.250 NA 
HETATM    6  C   UNL     1     -13.455   7.709  71.528  1.00  0.00    -0.336 C  
HETATM    7  C   UNL     1     -13.532   8.749  72.649  1.00  0.00    -0.349 C  
HETATM    8  C   UNL     1     -13.167  10.144  72.145  1.00  0.00    -0.463 C  
HETATM    9  C   UNL     1     -11.875  10.145  71.328  1.00  0.00    -0.448 C  
HETATM   10  C   UNL     1     -11.905   9.044  70.258  1.00  0.00     0.100 C  
BRANCH  10  11
HETATM   11  C   UNL     1     -10.673   9.067  69.321  1.00  0.00    -0.174 C  
HETATM   12  N   UNL     1     -10.964   8.577  68.055  1.00  0.00    -0.471 N  
HETATM   13  O   UNL     1      -9.601   9.562  69.663  1.00  0.00    -0.177 OA 
HETATM   14  H   UNL     1     -11.939   8.335  67.876  1.00  0.00     0.000 HD 
BRANCH  12  15
HETATM   15  C   UNL     1     -10.062   8.375  66.986  1.00  0.00    -0.284 A  
HETATM   16  C   UNL     1      -9.715   9.397  66.074  1.00  0.00    -0.345 A  
HETATM   17  C   UNL     1     -10.252  10.801  66.098  1.00  0.00    -0.308 C  
HETATM   18  C   UNL     1      -8.758   9.134  65.074  1.00  0.00    -0.222 A  
HETATM   19  C   UNL     1      -8.117   7.900  64.994  1.00  0.00    -0.144 A  
HETATM   20  C   UNL     1      -8.448   6.898  65.896  1.00  0.00    -0.147 A  
HETATM   21  C   UNL     1      -9.411   7.118  66.894  1.00  0.00    -0.200 A  
HETATM   22  C   UNL     1      -9.770   5.954  67.786  1.00  0.00    -0.124 C  
ENDBRANCH  12  15
ENDBRANCH  10  11
ENDBRANCH   4   5
ENDBRANCH   3   4
ENDBRANCH   2   3
TORSDOF 5
ENDMDL
MODEL      112
REMARK 921   NORMALIZED FREE ENERGY PREDICTED BY IDOCK:   -4.28 KCAL/MOL
REMARK 922        TOTAL FREE ENERGY PREDICTED BY IDOCK:   -6.48 KCAL/MOL
REMARK 923 INTER-LIGAND FREE ENERGY PREDICTED BY IDOCK:   -5.71 KCAL/MOL
REMARK 924 INTRA-LIGAND FREE ENERGY PREDICTED BY IDOCK:   -0.77 KCAL/MOL
REMARK 927      BINDING AFFINITY PREDICTED BY RF-SCORE:    0.00 PKD
ROOT
HETATM    1  C   UNL     1     -12.562  13.098  63.736  1.00  0.00    -0.257 C  
HETATM    2  C   UNL     1     -11.226  12.518  64.180  1.00  0.00    -0.437 C  
ENDROOT
BRANCH   2   3
HETATM    3  C   UNL     1     -11.200  12.252  65.684  1.00  0.00    -0.375 C  
BRANCH   3   4
HETATM    4  C   UNL     1      -9.860  11.662  66.158  1.00  0.00    -0.223 C  
BRANCH   4   5
HETATM    5  N   UNL     1      -9.806  10.181  66.157  1.00  0.00    -0.223 NA 
HETATM    6  C   UNL     1      -9.397   9.640  64.846  1.00  0.00    -0.242 C  
HETATM    7  C   UNL     1      -7.951   9.973  64.466  1.00  0.00    -0.148 C  
HETATM    8  C   UNL     1      -6.971   9.537  65.554  1.00  0.00    -0.089 C  
HETATM    9  C   UNL     1      -7.410   9.991  66.946  1.00  0.00    -0.092 C  
HETATM   10  C   UNL     1      -8.880   9.627  67.198  1.00  0.00    -0.132 C  
BRANCH  10  11
HETATM   11  C   UNL     1      -9.355   9.956  68.635  1.00  0.00    -0.149 C  
HETATM   12  N   UNL     1     -10.652   9.523  68.875  1.00  0.00    -0.219 N  
HETATM   13  O   UNL     1      -8.606  10.456  69.472  1.00  0.00    -0.159 OA 
HETATM   14  H   UNL     1     -11.099   8.993  68.126  1.00  0.00     0.000 HD 
BRANCH  12  15
HETATM   15  C   UNL     1     -11.424   9.733  70.040  1.00  0.00    -0.180 A  
HETATM   16  C   UNL     1     -11.996  10.985  70.362  1.00  0.00    -0.459 A  
HETATM   17  C   UNL     1     -11.858  12.240  69.546  1.00  0.00    -0.380 C  
HETATM   18  C   UNL     1     -12.807  11.097  71.510  1.00  0.00    -0.542 A  
HETATM   19  C   UNL     1     -13.088   9.991  72.307  1.00  0.00    -0.385 A  
HETATM   20  C   UNL     1     -12.536   8.759  71.986  1.00  0.00    -0.447 A  
HETATM   21  C   UNL     1     -11.708   8.613  70.861  1.00  0.00    -0.287 A  
HETATM   22  C   UNL     1     -11.085   7.258  70.624  1.00  0.00    -0.287 C  
ENDBRANCH  12  15
ENDBRANCH  10  11
ENDBRANCH   4   5
ENDBRANCH   3   4
ENDBRANCH   2   3
TORSDOF 5
ENDMDL
MODEL      113
REMARK 921   NORMALIZED FREE ENERGY PREDICTED BY IDOCK:   -4.27 KCAL/MOL
REMARK 922        TOTAL FREE ENERGY PREDICTED BY IDOCK:   -6.46 KCAL/MOL
REMARK 923 INTER-LIGAND FREE ENERGY PREDICTED BY IDOCK:   -5.76 KCAL/MOL
REMARK 924 INTRA-LIGAND FREE ENERGY PREDICTED BY IDOCK:   -0.70 KCAL/MOL
REMARK 927      BINDING AFFINITY PREDICTED BY RF-SCORE:    0.00 PKD
ROOT
HETATM    1  C   UNL     1      -5.493  14.289  69.944  1.00  0.00    -0.098 C  
HETATM    2  C   UNL     1      -6.489  15.026  69.059  1.00  0.00    -0.102 C  
ENDROOT
BRANCH   2   3
HETATM    3  C   UNL     1      -6.073  16.478  68.831  1.00  0.00    -0.147 C  
BRANCH   3   4
HETATM    4  C   UNL     1      -7.139  17.287  68.071  1.00  0.00    -0.182 C  
BRANCH   4   5
HETATM    5  N   UNL     1      -7.922  18.219  68.916  1.00  0.00    -0.235 NA 
HETATM    6  C   UNL     1      -7.164  19.442  69.245  1.00  0.00    -0.301 C  
HETATM    7  C   UNL     1      -6.880  20.334  68.033  1.00  0.00    -0.335 C  
HETATM    8  C   UNL     1      -8.162  20.686  67.283  1.00  0.00    -0.309 C  
HETATM    9  C   UNL     1      -9.030  19.458  67.010  1.00  0.00    -0.350 C  
HETATM   10  C   UNL     1      -9.220  18.631  68.290  1.00  0.00    -0.322 C  
BRANCH  10  11
HETATM   11  C   UNL     1     -10.186  17.434  68.108  1.00  0.00    -0.350 C  
HETATM   12  N   UNL     1     -10.054  16.491  69.118  1.00  0.00    -0.277 N  
HETATM   13  O   UNL     1     -11.028  17.404  67.213  1.00  0.00    -0.190 OA 
HETATM   14  H   UNL     1      -9.409  16.724  69.874  1.00  0.00     0.000 HD 
BRANCH  12  15
HETATM   15  C   UNL     1     -10.712  15.244  69.217  1.00  0.00    -0.252 A  
HETATM   16  C   UNL     1     -10.432  14.161  68.353  1.00  0.00    -0.254 A  
HETATM   17  C   UNL     1      -9.435  14.182  67.228  1.00  0.00    -0.229 C  
HETATM   18  C   UNL     1     -11.084  12.929  68.559  1.00  0.00    -0.299 A  
HETATM   19  C   UNL     1     -11.967  12.747  69.620  1.00  0.00    -0.354 A  
HETATM   20  C   UNL     1     -12.235  13.805  70.476  1.00  0.00    -0.440 A  
HETATM   21  C   UNL     1     -11.617  15.053  70.291  1.00  0.00    -0.329 A  
HETATM   22  C   UNL     1     -12.021  16.175  71.218  1.00  0.00    -0.402 C  
ENDBRANCH  12  15
ENDBRANCH  10  11
ENDBRANCH   4   5
ENDBRANCH   3   4
ENDBRANCH   2   3
TORSDOF 5
ENDMDL
MODEL      114
REMARK 921   NORMALIZED FREE ENERGY PREDICTED BY IDOCK:   -4.25 KCAL/MOL
REMARK 922        TOTAL FREE ENERGY PREDICTED BY IDOCK:   -6.44 KCAL/MOL
REMARK 923 INTER-LIGAND FREE ENERGY PREDICTED BY IDOCK:   -5.55 KCAL/MOL
REMARK 924 INTRA-LIGAND FREE ENERGY PREDICTED BY IDOCK:   -0.89 KCAL/MOL
REMARK 927      BINDING AFFINITY PREDICTED BY RF-SCORE:    0.00 PKD
ROOT
HETATM    1  C   UNL     1     -12.294  12.412  63.268  1.00  0.00    -0.497 C  
HETATM    2  C   UNL     1     -12.490  12.335  64.776  1.00  0.00    -0.385 C  
ENDROOT
BRANCH   2   3
HETATM    3  C   UNL     1     -12.898  13.686  65.360  1.00  0.00    -0.440 C  
BRANCH   3   4
HETATM    4  C   UNL     1     -11.870  14.230  66.368  1.00  0.00    -0.411 C  
BRANCH   4   5
HETATM    5  N   UNL     1     -10.495  14.366  65.831  1.00  0.00    -0.296 NA 
HETATM    6  C   UNL     1     -10.210  15.738  65.370  1.00  0.00    -0.349 C  
HETATM    7  C   UNL     1     -10.173  16.772  66.499  1.00  0.00    -0.319 C  
HETATM    8  C   UNL     1      -9.196  16.365  67.600  1.00  0.00    -0.199 C  
HETATM    9  C   UNL     1      -9.388  14.913  68.038  1.00  0.00    -0.193 C  
HETATM   10  C   UNL     1      -9.438  13.979  66.821  1.00  0.00    -0.282 C  
BRANCH  10  11
HETATM   11  C   UNL     1      -9.516  12.480  67.202  1.00  0.00    -0.208 C  
HETATM   12  N   UNL     1      -9.717  12.290  68.562  1.00  0.00    -0.340 N  
HETATM   13  O   UNL     1      -9.497  11.589  66.354  1.00  0.00    -0.200 OA 
HETATM   14  H   UNL     1      -9.856  13.132  69.121  1.00  0.00     0.000 HD 
BRANCH  12  15
HETATM   15  C   UNL     1      -9.749  11.062  69.260  1.00  0.00    -0.008 A  
HETATM   16  C   UNL     1     -10.955  10.421  69.625  1.00  0.00    -0.325 A  
HETATM   17  C   UNL     1     -12.336  10.945  69.346  1.00  0.00    -0.188 C  
HETATM   18  C   UNL     1     -10.903   9.165  70.263  1.00  0.00    -0.282 A  
HETATM   19  C   UNL     1      -9.690   8.526  70.502  1.00  0.00    -0.202 A  
HETATM   20  C   UNL     1      -8.505   9.148  70.135  1.00  0.00    -0.186 A  
HETATM   21  C   UNL     1      -8.517  10.408  69.514  1.00  0.00    -0.115 A  
HETATM   22  C   UNL     1      -7.183  11.051  69.216  1.00  0.00    -0.124 C  
ENDBRANCH  12  15
ENDBRANCH  10  11
ENDBRANCH   4   5
ENDBRANCH   3   4
ENDBRANCH   2   3
TORSDOF 5
ENDMDL
MODEL      115
REMARK 921   NORMALIZED FREE ENERGY PREDICTED BY IDOCK:   -4.24 KCAL/MOL
REMARK 922        TOTAL FREE ENERGY PREDICTED BY IDOCK:   -6.43 KCAL/MOL
REMARK 923 INTER-LIGAND FREE ENERGY PREDICTED BY IDOCK:   -5.38 KCAL/MOL
REMARK 924 INTRA-LIGAND FREE ENERGY PREDICTED BY IDOCK:   -1.05 KCAL/MOL
REMARK 927      BINDING AFFINITY PREDICTED BY RF-SCORE:    0.00 PKD
ROOT
HETATM    1  C   UNL     1      -7.930  15.192  69.067  1.00  0.00    -0.188 C  
HETATM    2  C   UNL     1      -8.208  15.267  67.572  1.00  0.00    -0.191 C  
ENDROOT
BRANCH   2   3
HETATM    3  C   UNL     1      -8.931  14.018  67.071  1.00  0.00    -0.248 C  
BRANCH   3   4
HETATM    4  C   UNL     1      -8.855  12.849  68.069  1.00  0.00    -0.195 C  
BRANCH   4   5
HETATM    5  N   UNL     1      -8.379  11.573  67.485  1.00  0.00    -0.138 NA 
HETATM    6  C   UNL     1      -6.993  11.669  66.989  1.00  0.00    -0.144 C  
HETATM    7  C   UNL     1      -5.956  11.874  68.097  1.00  0.00    -0.051 C  
HETATM    8  C   UNL     1      -6.064  10.794  69.172  1.00  0.00    -0.043 C  
HETATM    9  C   UNL     1      -7.504  10.588  69.644  1.00  0.00    -0.145 C  
HETATM   10  C   UNL     1      -8.450  10.424  68.446  1.00  0.00    -0.124 C  
BRANCH  10  11
HETATM   11  C   UNL     1      -9.907  10.097  68.857  1.00  0.00    -0.189 C  
HETATM   12  N   UNL     1     -10.115  10.236  70.223  1.00  0.00    -0.410 N  
HETATM   13  O   UNL     1     -10.778   9.843  68.027  1.00  0.00    -0.224 OA 
HETATM   14  H   UNL     1      -9.329  10.594  70.766  1.00  0.00     0.000 HD 
BRANCH  12  15
HETATM   15  C   UNL     1     -11.292   9.936  70.945  1.00  0.00    -0.370 A  
HETATM   16  C   UNL     1     -12.360  10.851  71.079  1.00  0.00    -0.498 A  
HETATM   17  C   UNL     1     -12.394  12.239  70.503  1.00  0.00    -0.349 C  
HETATM   18  C   UNL     1     -13.528  10.453  71.760  1.00  0.00    -0.366 A  
HETATM   19  C   UNL     1     -13.664   9.163  72.267  1.00  0.00    -0.548 A  
HETATM   20  C   UNL     1     -12.620   8.260  72.128  1.00  0.00    -0.379 A  
HETATM   21  C   UNL     1     -11.435   8.627  71.471  1.00  0.00    -0.363 A  
HETATM   22  C   UNL     1     -10.317   7.612  71.428  1.00  0.00    -0.219 C  
ENDBRANCH  12  15
ENDBRANCH  10  11
ENDBRANCH   4   5
ENDBRANCH   3   4
ENDBRANCH   2   3
TORSDOF 5
ENDMDL
MODEL      116
REMARK 921   NORMALIZED FREE ENERGY PREDICTED BY IDOCK:   -4.22 KCAL/MOL
REMARK 922        TOTAL FREE ENERGY PREDICTED BY IDOCK:   -6.40 KCAL/MOL
REMARK 923 INTER-LIGAND FREE ENERGY PREDICTED BY IDOCK:   -5.42 KCAL/MOL
REMARK 924 INTRA-LIGAND FREE ENERGY PREDICTED BY IDOCK:   -0.97 KCAL/MOL
REMARK 927      BINDING AFFINITY PREDICTED BY RF-SCORE:    0.00 PKD
ROOT
HETATM    1  C   UNL     1     -12.661  13.301  64.831  1.00  0.00    -0.444 C  
HETATM    2  C   UNL     1     -12.044  14.609  64.355  1.00  0.00    -0.481 C  
ENDROOT
BRANCH   2   3
HETATM    3  C   UNL     1     -10.605  14.763  64.843  1.00  0.00    -0.431 C  
BRANCH   3   4
HETATM    4  C   UNL     1     -10.209  13.688  65.870  1.00  0.00    -0.311 C  
BRANCH   4   5
HETATM    5  N   UNL     1      -9.602  14.219  67.113  1.00  0.00    -0.238 NA 
HETATM    6  C   UNL     1     -10.178  15.521  67.502  1.00  0.00    -0.254 C  
HETATM    7  C   UNL     1     -11.649  15.443  67.920  1.00  0.00    -0.267 C  
HETATM    8  C   UNL     1     -11.863  14.412  69.026  1.00  0.00    -0.358 C  
HETATM    9  C   UNL     1     -11.194  13.074  68.710  1.00  0.00    -0.325 C  
HETATM   10  C   UNL     1      -9.736  13.285  68.278  1.00  0.00    -0.225 C  
BRANCH  10  11
HETATM   11  C   UNL     1      -8.966  11.960  68.054  1.00  0.00    -0.185 C  
HETATM   12  N   UNL     1      -9.812  10.861  67.994  1.00  0.00    -0.168 N  
HETATM   13  O   UNL     1      -7.753  11.935  67.857  1.00  0.00    -0.114 OA 
HETATM   14  H   UNL     1     -10.813  11.057  68.031  1.00  0.00     0.000 HD 
BRANCH  12  15
HETATM   15  C   UNL     1      -9.443   9.501  67.888  1.00  0.00    -0.132 A  
HETATM   16  C   UNL     1      -9.171   8.692  69.014  1.00  0.00    -0.145 A  
HETATM   17  C   UNL     1      -9.219   9.150  70.445  1.00  0.00    -0.271 C  
HETATM   18  C   UNL     1      -8.873   7.327  68.827  1.00  0.00    -0.127 A  
HETATM   19  C   UNL     1      -8.882   6.752  67.559  1.00  0.00    -0.117 A  
HETATM   20  C   UNL     1      -9.159   7.543  66.452  1.00  0.00    -0.210 A  
HETATM   21  C   UNL     1      -9.443   8.911  66.599  1.00  0.00    -0.261 A  
HETATM   22  C   UNL     1      -9.657   9.717  65.340  1.00  0.00    -0.361 C  
ENDBRANCH  12  15
ENDBRANCH  10  11
ENDBRANCH   4   5
ENDBRANCH   3   4
ENDBRANCH   2   3
TORSDOF 5
ENDMDL
MODEL      117
REMARK 921   NORMALIZED FREE ENERGY PREDICTED BY IDOCK:   -4.20 KCAL/MOL
REMARK 922        TOTAL FREE ENERGY PREDICTED BY IDOCK:   -6.37 KCAL/MOL
REMARK 923 INTER-LIGAND FREE ENERGY PREDICTED BY IDOCK:   -5.62 KCAL/MOL
REMARK 924 INTRA-LIGAND FREE ENERGY PREDICTED BY IDOCK:   -0.75 KCAL/MOL
REMARK 927      BINDING AFFINITY PREDICTED BY RF-SCORE:    0.00 PKD
ROOT
HETATM    1  C   UNL     1     -13.102   9.571  71.996  1.00  0.00    -0.528 C  
HETATM    2  C   UNL     1     -12.903  10.614  70.904  1.00  0.00    -0.473 C  
ENDROOT
BRANCH   2   3
HETATM    3  C   UNL     1     -11.429  10.767  70.534  1.00  0.00    -0.367 C  
BRANCH   3   4
HETATM    4  C   UNL     1     -11.178  10.606  69.024  1.00  0.00    -0.265 C  
BRANCH   4   5
HETATM    5  N   UNL     1      -9.778  10.276  68.666  1.00  0.00    -0.160 NA 
HETATM    6  C   UNL     1      -9.619   8.857  68.291  1.00  0.00    -0.146 C  
HETATM    7  C   UNL     1     -10.337   8.479  66.993  1.00  0.00    -0.379 C  
HETATM    8  C   UNL     1      -9.921   9.387  65.837  1.00  0.00    -0.327 C  
HETATM    9  C   UNL     1      -9.973  10.867  66.215  1.00  0.00    -0.274 C  
HETATM   10  C   UNL     1      -9.246  11.116  67.544  1.00  0.00    -0.153 C  
BRANCH  10  11
HETATM   11  C   UNL     1      -9.162  12.614  67.926  1.00  0.00    -0.201 C  
HETATM   12  N   UNL     1     -10.284  13.325  67.523  1.00  0.00    -0.221 N  
HETATM   13  O   UNL     1      -8.236  13.066  68.597  1.00  0.00    -0.101 OA 
HETATM   14  H   UNL     1     -11.037  12.782  67.101  1.00  0.00     0.000 HD 
BRANCH  12  15
HETATM   15  C   UNL     1     -10.500  14.718  67.631  1.00  0.00    -0.254 A  
HETATM   16  C   UNL     1     -10.918  15.335  68.831  1.00  0.00    -0.261 A  
HETATM   17  C   UNL     1     -11.200  14.622  70.124  1.00  0.00    -0.230 C  
HETATM   18  C   UNL     1     -11.049  16.738  68.876  1.00  0.00    -0.194 A  
HETATM   19  C   UNL     1     -10.734  17.528  67.774  1.00  0.00    -0.333 A  
HETATM   20  C   UNL     1     -10.313  16.924  66.597  1.00  0.00    -0.299 A  
HETATM   21  C   UNL     1     -10.189  15.528  66.510  1.00  0.00    -0.291 A  
HETATM   22  C   UNL     1      -9.799  14.944  65.173  1.00  0.00    -0.165 C  
ENDBRANCH  12  15
ENDBRANCH  10  11
ENDBRANCH   4   5
ENDBRANCH   3   4
ENDBRANCH   2   3
TORSDOF 5
ENDMDL
MODEL      118
REMARK 921   NORMALIZED FREE ENERGY PREDICTED BY IDOCK:   -4.19 KCAL/MOL
REMARK 922        TOTAL FREE ENERGY PREDICTED BY IDOCK:   -6.36 KCAL/MOL
REMARK 923 INTER-LIGAND FREE ENERGY PREDICTED BY IDOCK:   -5.60 KCAL/MOL
REMARK 924 INTRA-LIGAND FREE ENERGY PREDICTED BY IDOCK:   -0.76 KCAL/MOL
REMARK 927      BINDING AFFINITY PREDICTED BY RF-SCORE:    0.00 PKD
ROOT
HETATM    1  C   UNL     1     -11.051  14.838  64.710  1.00  0.00    -0.393 C  
HETATM    2  C   UNL     1     -12.383  14.174  65.031  1.00  0.00    -0.452 C  
ENDROOT
BRANCH   2   3
HETATM    3  C   UNL     1     -12.471  13.769  66.501  1.00  0.00    -0.356 C  
BRANCH   3   4
HETATM    4  C   UNL     1     -11.554  12.582  66.844  1.00  0.00    -0.370 C  
BRANCH   4   5
HETATM    5  N   UNL     1     -11.145  12.513  68.267  1.00  0.00    -0.240 NA 
HETATM    6  C   UNL     1     -11.687  11.319  68.945  1.00  0.00    -0.341 C  
HETATM    7  C   UNL     1     -11.111  10.000  68.423  1.00  0.00    -0.236 C  
HETATM    8  C   UNL     1      -9.585   9.996  68.475  1.00  0.00    -0.157 C  
HETATM    9  C   UNL     1      -8.981  11.265  67.874  1.00  0.00    -0.146 C  
HETATM   10  C   UNL     1      -9.657  12.516  68.452  1.00  0.00    -0.176 C  
BRANCH  10  11
HETATM   11  C   UNL     1      -9.013  13.839  67.970  1.00  0.00    -0.187 C  
HETATM   12  N   UNL     1      -8.943  14.791  68.978  1.00  0.00    -0.307 N  
HETATM   13  O   UNL     1      -8.538  13.962  66.842  1.00  0.00    -0.201 OA 
HETATM   14  H   UNL     1      -9.248  14.492  69.905  1.00  0.00     0.000 HD 
BRANCH  12  15
HETATM   15  C   UNL     1      -8.497  16.127  68.865  1.00  0.00    -0.241 A  
HETATM   16  C   UNL     1      -7.216  16.544  69.291  1.00  0.00    -0.213 A  
HETATM   17  C   UNL     1      -6.178  15.657  69.920  1.00  0.00    -0.157 C  
HETATM   18  C   UNL     1      -6.822  17.881  69.084  1.00  0.00    -0.219 A  
HETATM   19  C   UNL     1      -7.654  18.787  68.433  1.00  0.00    -0.329 A  
HETATM   20  C   UNL     1      -8.908  18.377  68.004  1.00  0.00    -0.302 A  
HETATM   21  C   UNL     1      -9.342  17.057  68.209  1.00  0.00    -0.255 A  
HETATM   22  C   UNL     1     -10.749  16.711  67.783  1.00  0.00    -0.327 C  
ENDBRANCH  12  15
ENDBRANCH  10  11
ENDBRANCH   4   5
ENDBRANCH   3   4
ENDBRANCH   2   3
TORSDOF 5
ENDMDL
MODEL      119
REMARK 921   NORMALIZED FREE ENERGY PREDICTED BY IDOCK:   -4.17 KCAL/MOL
REMARK 922        TOTAL FREE ENERGY PREDICTED BY IDOCK:   -6.34 KCAL/MOL
REMARK 923 INTER-LIGAND FREE ENERGY PREDICTED BY IDOCK:   -5.34 KCAL/MOL
REMARK 924 INTRA-LIGAND FREE ENERGY PREDICTED BY IDOCK:   -1.00 KCAL/MOL
REMARK 927      BINDING AFFINITY PREDICTED BY RF-SCORE:    0.00 PKD
ROOT
HETATM    1  C   UNL     1      -8.886  10.015  69.818  1.00  0.00    -0.205 C  
HETATM    2  C   UNL     1      -8.099  10.730  68.728  1.00  0.00    -0.143 C  
ENDROOT
BRANCH   2   3
HETATM    3  C   UNL     1      -6.922  11.513  69.305  1.00  0.00    -0.098 C  
BRANCH   3   4
HETATM    4  C   UNL     1      -6.674  12.840  68.566  1.00  0.00    -0.090 C  
BRANCH   4   5
HETATM    5  N   UNL     1      -7.306  14.023  69.198  1.00  0.00    -0.082 NA 
HETATM    6  C   UNL     1      -6.323  14.877  69.891  1.00  0.00    -0.157 C  
HETATM    7  C   UNL     1      -5.329  15.560  68.948  1.00  0.00    -0.099 C  
HETATM    8  C   UNL     1      -6.046  16.351  67.856  1.00  0.00    -0.137 C  
HETATM    9  C   UNL     1      -7.146  15.535  67.177  1.00  0.00    -0.171 C  
HETATM   10  C   UNL     1      -8.059  14.877  68.222  1.00  0.00    -0.132 C  
BRANCH  10  11
HETATM   11  C   UNL     1      -9.264  14.130  67.600  1.00  0.00    -0.193 C  
HETATM   12  N   UNL     1      -9.201  14.088  66.214  1.00  0.00    -0.487 N  
HETATM   13  O   UNL     1     -10.109  13.565  68.291  1.00  0.00    -0.236 OA 
HETATM   14  H   UNL     1      -8.361  14.479  65.787  1.00  0.00     0.000 HD 
BRANCH  12  15
HETATM   15  C   UNL     1     -10.170  13.566  65.328  1.00  0.00    -0.306 A  
HETATM   16  C   UNL     1     -10.249  12.193  65.004  1.00  0.00    -0.312 A  
HETATM   17  C   UNL     1      -9.332  11.122  65.527  1.00  0.00    -0.247 C  
HETATM   18  C   UNL     1     -11.286  11.741  64.163  1.00  0.00    -0.437 A  
HETATM   19  C   UNL     1     -12.256  12.614  63.679  1.00  0.00    -0.624 A  
HETATM   20  C   UNL     1     -12.187  13.962  64.005  1.00  0.00    -0.413 A  
HETATM   21  C   UNL     1     -11.157  14.451  64.825  1.00  0.00    -0.402 A  
HETATM   22  C   UNL     1     -11.108  15.940  65.069  1.00  0.00    -0.370 C  
ENDBRANCH  12  15
ENDBRANCH  10  11
ENDBRANCH   4   5
ENDBRANCH   3   4
ENDBRANCH   2   3
TORSDOF 5
ENDMDL
MODEL      120
REMARK 921   NORMALIZED FREE ENERGY PREDICTED BY IDOCK:   -4.17 KCAL/MOL
REMARK 922        TOTAL FREE ENERGY PREDICTED BY IDOCK:   -6.34 KCAL/MOL
REMARK 923 INTER-LIGAND FREE ENERGY PREDICTED BY IDOCK:   -5.47 KCAL/MOL
REMARK 924 INTRA-LIGAND FREE ENERGY PREDICTED BY IDOCK:   -0.86 KCAL/MOL
REMARK 927      BINDING AFFINITY PREDICTED BY RF-SCORE:    0.00 PKD
ROOT
HETATM    1  C   UNL     1     -10.552  13.806  64.712  1.00  0.00    -0.444 C  
HETATM    2  C   UNL     1     -11.457  12.962  63.824  1.00  0.00    -0.519 C  
ENDROOT
BRANCH   2   3
HETATM    3  C   UNL     1     -10.849  11.589  63.544  1.00  0.00    -0.473 C  
BRANCH   3   4
HETATM    4  C   UNL     1      -9.935  11.103  64.683  1.00  0.00    -0.292 C  
BRANCH   4   5
HETATM    5  N   UNL     1      -9.398   9.734  64.497  1.00  0.00    -0.263 NA 
HETATM    6  C   UNL     1      -8.408   9.667  63.404  1.00  0.00    -0.170 C  
HETATM    7  C   UNL     1      -7.117  10.438  63.696  1.00  0.00     0.005 C  
HETATM    8  C   UNL     1      -6.487   9.997  65.015  1.00  0.00    -0.117 C  
HETATM    9  C   UNL     1      -7.502   9.953  66.157  1.00  0.00    -0.104 C  
HETATM   10  C   UNL     1      -8.760   9.180  65.736  1.00  0.00    -0.165 C  
BRANCH  10  11
HETATM   11  C   UNL     1      -9.781   8.999  66.886  1.00  0.00    -0.200 C  
HETATM   12  N   UNL     1      -9.482   9.789  67.987  1.00  0.00    -0.131 N  
HETATM   13  O   UNL     1     -10.786   8.301  66.764  1.00  0.00    -0.188 OA 
HETATM   14  H   UNL     1      -8.693  10.428  67.885  1.00  0.00     0.000 HD 
BRANCH  12  15
HETATM   15  C   UNL     1     -10.148   9.809  69.234  1.00  0.00    -0.198 A  
HETATM   16  C   UNL     1     -11.226  10.679  69.512  1.00  0.00    -0.331 A  
HETATM   17  C   UNL     1     -11.795  11.691  68.556  1.00  0.00    -0.357 C  
HETATM   18  C   UNL     1     -11.879  10.592  70.758  1.00  0.00    -0.465 A  
HETATM   19  C   UNL     1     -11.509   9.638  71.702  1.00  0.00    -0.376 A  
HETATM   20  C   UNL     1     -10.458   8.775  71.427  1.00  0.00    -0.354 A  
HETATM   21  C   UNL     1      -9.772   8.845  70.204  1.00  0.00    -0.199 A  
HETATM   22  C   UNL     1      -8.591   7.923  70.013  1.00  0.00    -0.135 C  
ENDBRANCH  12  15
ENDBRANCH  10  11
ENDBRANCH   4   5
ENDBRANCH   3   4
ENDBRANCH   2   3
TORSDOF 5
ENDMDL
MODEL      121
REMARK 921   NORMALIZED FREE ENERGY PREDICTED BY IDOCK:   -4.16 KCAL/MOL
REMARK 922        TOTAL FREE ENERGY PREDICTED BY IDOCK:   -6.33 KCAL/MOL
REMARK 923 INTER-LIGAND FREE ENERGY PREDICTED BY IDOCK:   -5.46 KCAL/MOL
REMARK 924 INTRA-LIGAND FREE ENERGY PREDICTED BY IDOCK:   -0.87 KCAL/MOL
REMARK 927      BINDING AFFINITY PREDICTED BY RF-SCORE:    0.00 PKD
ROOT
HETATM    1  C   UNL     1      -6.452   6.951  69.560  1.00  0.00    -0.044 C  
HETATM    2  C   UNL     1      -7.350   6.016  68.760  1.00  0.00    -0.085 C  
ENDROOT
BRANCH   2   3
HETATM    3  C   UNL     1      -8.364   6.790  67.921  1.00  0.00    -0.120 C  
BRANCH   3   4
HETATM    4  C   UNL     1      -8.825   8.091  68.602  1.00  0.00    -0.134 C  
BRANCH   4   5
HETATM    5  N   UNL     1     -10.296   8.230  68.730  1.00  0.00    -0.211 NA 
HETATM    6  C   UNL     1     -10.903   7.089  69.442  1.00  0.00    -0.227 C  
HETATM    7  C   UNL     1     -10.500   6.999  70.916  1.00  0.00    -0.233 C  
HETATM    8  C   UNL     1     -10.788   8.303  71.656  1.00  0.00    -0.320 C  
HETATM    9  C   UNL     1     -10.264   9.525  70.902  1.00  0.00    -0.356 C  
HETATM   10  C   UNL     1     -10.708   9.489  69.432  1.00  0.00    -0.225 C  
BRANCH  10  11
HETATM   11  C   UNL     1     -10.307  10.757  68.640  1.00  0.00    -0.192 C  
HETATM   12  N   UNL     1     -11.234  11.082  67.659  1.00  0.00    -0.301 N  
HETATM   13  O   UNL     1      -9.323  11.431  68.939  1.00  0.00    -0.142 OA 
HETATM   14  H   UNL     1     -12.077  10.508  67.624  1.00  0.00     0.000 HD 
BRANCH  12  15
HETATM   15  C   UNL     1     -11.141  12.118  66.702  1.00  0.00    -0.306 A  
HETATM   16  C   UNL     1     -11.490  13.457  66.988  1.00  0.00    -0.372 A  
HETATM   17  C   UNL     1     -12.009  13.957  68.308  1.00  0.00    -0.392 C  
HETATM   18  C   UNL     1     -11.308  14.444  65.999  1.00  0.00    -0.335 A  
HETATM   19  C   UNL     1     -10.753  14.132  64.761  1.00  0.00    -0.436 A  
HETATM   20  C   UNL     1     -10.400  12.819  64.481  1.00  0.00    -0.373 A  
HETATM   21  C   UNL     1     -10.584  11.806  65.436  1.00  0.00    -0.325 A  
HETATM   22  C   UNL     1     -10.247  10.392  65.026  1.00  0.00    -0.334 C  
ENDBRANCH  12  15
ENDBRANCH  10  11
ENDBRANCH   4   5
ENDBRANCH   3   4
ENDBRANCH   2   3
TORSDOF 5
ENDMDL
MODEL      122
REMARK 921   NORMALIZED FREE ENERGY PREDICTED BY IDOCK:   -4.16 KCAL/MOL
REMARK 922        TOTAL FREE ENERGY PREDICTED BY IDOCK:   -6.32 KCAL/MOL
REMARK 923 INTER-LIGAND FREE ENERGY PREDICTED BY IDOCK:   -5.24 KCAL/MOL
REMARK 924 INTRA-LIGAND FREE ENERGY PREDICTED BY IDOCK:   -1.08 KCAL/MOL
REMARK 927      BINDING AFFINITY PREDICTED BY RF-SCORE:    0.00 PKD
ROOT
HETATM    1  C   UNL     1     -11.985  15.393  64.206  1.00  0.00    -0.198 C  
HETATM    2  C   UNL     1     -10.749  15.269  65.086  1.00  0.00    -0.455 C  
ENDROOT
BRANCH   2   3
HETATM    3  C   UNL     1     -11.010  15.784  66.500  1.00  0.00    -0.165 C  
BRANCH   3   4
HETATM    4  C   UNL     1     -11.549  14.690  67.438  1.00  0.00    -0.389 C  
BRANCH   4   5
HETATM    5  N   UNL     1     -10.681  14.397  68.603  1.00  0.00    -0.246 NA 
HETATM    6  C   UNL     1     -11.320  14.767  69.881  1.00  0.00    -0.271 C  
HETATM    7  C   UNL     1     -12.546  13.918  70.225  1.00  0.00    -0.328 C  
HETATM    8  C   UNL     1     -12.218  12.426  70.205  1.00  0.00    -0.345 C  
HETATM    9  C   UNL     1     -11.463  12.016  68.941  1.00  0.00    -0.356 C  
HETATM   10  C   UNL     1     -10.276  12.956  68.687  1.00  0.00    -0.160 C  
BRANCH  10  11
HETATM   11  C   UNL     1      -9.401  12.526  67.484  1.00  0.00    -0.187 C  
HETATM   12  N   UNL     1      -9.857  11.358  66.889  1.00  0.00    -0.191 N  
HETATM   13  O   UNL     1      -8.473  13.219  67.071  1.00  0.00    -0.195 OA 
HETATM   14  H   UNL     1     -10.728  10.973  67.257  1.00  0.00     0.000 HD 
BRANCH  12  15
HETATM   15  C   UNL     1      -9.252  10.642  65.832  1.00  0.00    -0.182 A  
HETATM   16  C   UNL     1      -8.152   9.776  66.026  1.00  0.00    -0.114 A  
HETATM   17  C   UNL     1      -7.477   9.510  67.342  1.00  0.00    -0.091 C  
HETATM   18  C   UNL     1      -7.647   9.047  64.930  1.00  0.00    -0.107 A  
HETATM   19  C   UNL     1      -8.235   9.133  63.672  1.00  0.00    -0.174 A  
HETATM   20  C   UNL     1      -9.322   9.975  63.481  1.00  0.00    -0.301 A  
HETATM   21  C   UNL     1      -9.842  10.730  64.545  1.00  0.00    -0.369 A  
HETATM   22  C   UNL     1     -10.976  11.679  64.239  1.00  0.00    -0.418 C  
ENDBRANCH  12  15
ENDBRANCH  10  11
ENDBRANCH   4   5
ENDBRANCH   3   4
ENDBRANCH   2   3
TORSDOF 5
ENDMDL
MODEL      123
REMARK 921   NORMALIZED FREE ENERGY PREDICTED BY IDOCK:   -4.15 KCAL/MOL
REMARK 922        TOTAL FREE ENERGY PREDICTED BY IDOCK:   -6.32 KCAL/MOL
REMARK 923 INTER-LIGAND FREE ENERGY PREDICTED BY IDOCK:   -5.47 KCAL/MOL
REMARK 924 INTRA-LIGAND FREE ENERGY PREDICTED BY IDOCK:   -0.84 KCAL/MOL
REMARK 927      BINDING AFFINITY PREDICTED BY RF-SCORE:    0.00 PKD
ROOT
HETATM    1  C   UNL     1     -10.651  11.848  65.316  1.00  0.00    -0.320 C  
HETATM    2  C   UNL     1     -10.500  12.173  66.796  1.00  0.00    -0.245 C  
ENDROOT
BRANCH   2   3
HETATM    3  C   UNL     1     -11.847  12.163  67.516  1.00  0.00    -0.307 C  
BRANCH   3   4
HETATM    4  C   UNL     1     -11.955  11.032  68.554  1.00  0.00    -0.135 C  
BRANCH   4   5
HETATM    5  N   UNL     1     -11.239  11.295  69.825  1.00  0.00    -0.247 NA 
HETATM    6  C   UNL     1     -11.828  12.422  70.574  1.00  0.00    -0.062 C  
HETATM    7  C   UNL     1     -13.238  12.140  71.100  1.00  0.00     0.049 C  
HETATM    8  C   UNL     1     -13.280  10.863  71.937  1.00  0.00    -0.508 C  
HETATM    9  C   UNL     1     -12.588   9.691  71.241  1.00  0.00    -0.443 C  
HETATM   10  C   UNL     1     -11.198  10.103  70.734  1.00  0.00    -0.336 C  
BRANCH  10  11
HETATM   11  C   UNL     1     -10.397   8.929  70.120  1.00  0.00    -0.206 C  
HETATM   12  N   UNL     1     -11.165   7.781  69.981  1.00  0.00    -0.428 N  
HETATM   13  O   UNL     1      -9.242   9.064  69.721  1.00  0.00    -0.154 OA 
HETATM   14  H   UNL     1     -12.153   7.864  70.225  1.00  0.00     0.000 HD 
BRANCH  12  15
HETATM   15  C   UNL     1     -10.733   6.509  69.541  1.00  0.00    -0.270 A  
HETATM   16  C   UNL     1     -10.488   6.214  68.181  1.00  0.00    -0.284 A  
HETATM   17  C   UNL     1     -10.659   7.175  67.038  1.00  0.00    -0.413 C  
HETATM   18  C   UNL     1      -9.996   4.940  67.830  1.00  0.00    -0.181 A  
HETATM   19  C   UNL     1      -9.710   3.983  68.800  1.00  0.00    -0.143 A  
HETATM   20  C   UNL     1      -9.940   4.275  70.137  1.00  0.00    -0.206 A  
HETATM   21  C   UNL     1     -10.447   5.527  70.523  1.00  0.00    -0.347 A  
HETATM   22  C   UNL     1     -10.742   5.738  71.989  1.00  0.00    -0.285 C  
ENDBRANCH  12  15
ENDBRANCH  10  11
ENDBRANCH   4   5
ENDBRANCH   3   4
ENDBRANCH   2   3
TORSDOF 5
ENDMDL
MODEL      124
REMARK 921   NORMALIZED FREE ENERGY PREDICTED BY IDOCK:   -4.12 KCAL/MOL
REMARK 922        TOTAL FREE ENERGY PREDICTED BY IDOCK:   -6.27 KCAL/MOL
REMARK 923 INTER-LIGAND FREE ENERGY PREDICTED BY IDOCK:   -5.51 KCAL/MOL
REMARK 924 INTRA-LIGAND FREE ENERGY PREDICTED BY IDOCK:   -0.76 KCAL/MOL
REMARK 927      BINDING AFFINITY PREDICTED BY RF-SCORE:    0.00 PKD
ROOT
HETATM    1  C   UNL     1     -12.410  12.798  63.118  1.00  0.00    -0.278 C  
HETATM    2  C   UNL     1     -11.544  11.896  63.986  1.00  0.00    -0.476 C  
ENDROOT
BRANCH   2   3
HETATM    3  C   UNL     1     -11.784  12.147  65.474  1.00  0.00    -0.384 C  
BRANCH   3   4
HETATM    4  C   UNL     1     -10.789  11.390  66.370  1.00  0.00    -0.271 C  
BRANCH   4   5
HETATM    5  N   UNL     1     -10.998  11.587  67.824  1.00  0.00    -0.220 NA 
HETATM    6  C   UNL     1     -11.438  10.349  68.497  1.00  0.00    -0.162 C  
HETATM    7  C   UNL     1     -10.375   9.247  68.514  1.00  0.00    -0.237 C  
HETATM    8  C   UNL     1      -9.062   9.744  69.116  1.00  0.00    -0.166 C  
HETATM    9  C   UNL     1      -8.620  11.080  68.519  1.00  0.00    -0.158 C  
HETATM   10  C   UNL     1      -9.776  12.091  68.531  1.00  0.00    -0.161 C  
BRANCH  10  11
HETATM   11  C   UNL     1      -9.361  13.502  68.045  1.00  0.00    -0.213 C  
HETATM   12  N   UNL     1     -10.418  14.401  68.070  1.00  0.00    -0.235 N  
HETATM   13  O   UNL     1      -8.196  13.782  67.772  1.00  0.00    -0.146 OA 
HETATM   14  H   UNL     1     -11.297  14.057  68.459  1.00  0.00     0.000 HD 
BRANCH  12  15
HETATM   15  C   UNL     1     -10.416  15.739  67.615  1.00  0.00    -0.282 A  
HETATM   16  C   UNL     1     -10.293  16.082  66.250  1.00  0.00    -0.330 A  
HETATM   17  C   UNL     1     -10.136  15.105  65.118  1.00  0.00    -0.331 C  
HETATM   18  C   UNL     1     -10.364  17.438  65.871  1.00  0.00    -0.276 A  
HETATM   19  C   UNL     1     -10.594  18.440  66.810  1.00  0.00    -0.367 A  
HETATM   20  C   UNL     1     -10.726  18.103  68.150  1.00  0.00    -0.242 A  
HETATM   21  C   UNL     1     -10.642  16.765  68.567  1.00  0.00    -0.354 A  
HETATM   22  C   UNL     1     -10.719  16.490  70.050  1.00  0.00    -0.222 C  
ENDBRANCH  12  15
ENDBRANCH  10  11
ENDBRANCH   4   5
ENDBRANCH   3   4
ENDBRANCH   2   3
TORSDOF 5
ENDMDL
MODEL      125
REMARK 921   NORMALIZED FREE ENERGY PREDICTED BY IDOCK:   -4.12 KCAL/MOL
REMARK 922        TOTAL FREE ENERGY PREDICTED BY IDOCK:   -6.27 KCAL/MOL
REMARK 923 INTER-LIGAND FREE ENERGY PREDICTED BY IDOCK:   -5.44 KCAL/MOL
REMARK 924 INTRA-LIGAND FREE ENERGY PREDICTED BY IDOCK:   -0.83 KCAL/MOL
REMARK 927      BINDING AFFINITY PREDICTED BY RF-SCORE:    0.00 PKD
ROOT
HETATM    1  C   UNL     1     -11.667  15.607  64.116  1.00  0.00    -0.081 C  
HETATM    2  C   UNL     1     -12.162  14.233  64.550  1.00  0.00    -0.476 C  
ENDROOT
BRANCH   2   3
HETATM    3  C   UNL     1     -11.995  14.024  66.053  1.00  0.00    -0.434 C  
BRANCH   3   4
HETATM    4  C   UNL     1     -10.520  13.880  66.470  1.00  0.00    -0.282 C  
BRANCH   4   5
HETATM    5  N   UNL     1     -10.285  13.956  67.932  1.00  0.00    -0.237 NA 
HETATM    6  C   UNL     1     -10.902  12.828  68.655  1.00  0.00    -0.253 C  
HETATM    7  C   UNL     1     -10.265  11.472  68.339  1.00  0.00    -0.211 C  
HETATM    8  C   UNL     1      -8.755  11.494  68.572  1.00  0.00    -0.138 C  
HETATM    9  C   UNL     1      -8.086  12.706  67.925  1.00  0.00    -0.165 C  
HETATM   10  C   UNL     1      -8.830  13.999  68.291  1.00  0.00    -0.184 C  
BRANCH  10  11
HETATM   11  C   UNL     1      -8.135  15.277  67.760  1.00  0.00    -0.146 C  
HETATM   12  N   UNL     1      -8.533  16.417  68.445  1.00  0.00    -0.195 N  
HETATM   13  O   UNL     1      -7.262  15.234  66.896  1.00  0.00    -0.161 OA 
HETATM   14  H   UNL     1      -9.160  16.274  69.237  1.00  0.00     0.000 HD 
BRANCH  12  15
HETATM   15  C   UNL     1      -8.167  17.754  68.168  1.00  0.00    -0.260 A  
HETATM   16  C   UNL     1      -8.933  18.599  67.334  1.00  0.00    -0.284 A  
HETATM   17  C   UNL     1     -10.202  18.207  66.629  1.00  0.00    -0.388 C  
HETATM   18  C   UNL     1      -8.535  19.940  67.159  1.00  0.00    -0.376 A  
HETATM   19  C   UNL     1      -7.427  20.457  67.824  1.00  0.00    -0.303 A  
HETATM   20  C   UNL     1      -6.679  19.632  68.652  1.00  0.00    -0.332 A  
HETATM   21  C   UNL     1      -7.035  18.285  68.836  1.00  0.00    -0.289 A  
HETATM   22  C   UNL     1      -6.126  17.435  69.691  1.00  0.00    -0.249 C  
ENDBRANCH  12  15
ENDBRANCH  10  11
ENDBRANCH   4   5
ENDBRANCH   3   4
ENDBRANCH   2   3
TORSDOF 5
ENDMDL
MODEL      126
REMARK 921   NORMALIZED FREE ENERGY PREDICTED BY IDOCK:   -4.12 KCAL/MOL
REMARK 922        TOTAL FREE ENERGY PREDICTED BY IDOCK:   -6.27 KCAL/MOL
REMARK 923 INTER-LIGAND FREE ENERGY PREDICTED BY IDOCK:   -5.35 KCAL/MOL
REMARK 924 INTRA-LIGAND FREE ENERGY PREDICTED BY IDOCK:   -0.92 KCAL/MOL
REMARK 927      BINDING AFFINITY PREDICTED BY RF-SCORE:    0.00 PKD
ROOT
HETATM    1  C   UNL     1      -7.328   8.267  69.703  1.00  0.00    -0.073 C  
HETATM    2  C   UNL     1      -6.102   8.387  68.809  1.00  0.00    -0.044 C  
ENDROOT
BRANCH   2   3
HETATM    3  C   UNL     1      -6.435   9.071  67.485  1.00  0.00    -0.064 C  
BRANCH   3   4
HETATM    4  C   UNL     1      -7.913   9.488  67.389  1.00  0.00    -0.106 C  
BRANCH   4   5
HETATM    5  N   UNL     1      -8.579   9.106  66.121  1.00  0.00    -0.131 NA 
HETATM    6  C   UNL     1      -8.176   7.762  65.663  1.00  0.00    -0.135 C  
HETATM    7  C   UNL     1      -8.650   6.632  66.581  1.00  0.00    -0.123 C  
HETATM    8  C   UNL     1     -10.160   6.688  66.805  1.00  0.00    -0.240 C  
HETATM    9  C   UNL     1     -10.637   8.091  67.183  1.00  0.00    -0.367 C  
HETATM   10  C   UNL     1     -10.075   9.137  66.211  1.00  0.00    -0.249 C  
BRANCH  10  11
HETATM   11  C   UNL     1     -10.614  10.566  66.469  1.00  0.00    -0.174 C  
HETATM   12  N   UNL     1     -10.340  11.432  65.420  1.00  0.00    -0.268 N  
HETATM   13  O   UNL     1     -11.291  10.839  67.459  1.00  0.00    -0.408 OA 
HETATM   14  H   UNL     1      -9.894  11.021  64.599  1.00  0.00     0.000 HD 
BRANCH  12  15
HETATM   15  C   UNL     1     -10.609  12.818  65.360  1.00  0.00    -0.287 A  
HETATM   16  C   UNL     1      -9.885  13.770  66.114  1.00  0.00    -0.310 A  
HETATM   17  C   UNL     1      -8.769  13.455  67.070  1.00  0.00    -0.195 C  
HETATM   18  C   UNL     1     -10.171  15.140  65.950  1.00  0.00    -0.345 A  
HETATM   19  C   UNL     1     -11.122  15.575  65.031  1.00  0.00    -0.411 A  
HETATM   20  C   UNL     1     -11.826  14.643  64.282  1.00  0.00    -0.355 A  
HETATM   21  C   UNL     1     -11.581  13.268  64.432  1.00  0.00    -0.423 A  
HETATM   22  C   UNL     1     -12.443  12.315  63.638  1.00  0.00    -0.647 C  
ENDBRANCH  12  15
ENDBRANCH  10  11
ENDBRANCH   4   5
ENDBRANCH   3   4
ENDBRANCH   2   3
TORSDOF 5
ENDMDL
MODEL      127
REMARK 921   NORMALIZED FREE ENERGY PREDICTED BY IDOCK:   -4.10 KCAL/MOL
REMARK 922        TOTAL FREE ENERGY PREDICTED BY IDOCK:   -6.25 KCAL/MOL
REMARK 923 INTER-LIGAND FREE ENERGY PREDICTED BY IDOCK:   -5.97 KCAL/MOL
REMARK 924 INTRA-LIGAND FREE ENERGY PREDICTED BY IDOCK:   -0.29 KCAL/MOL
REMARK 927      BINDING AFFINITY PREDICTED BY RF-SCORE:    0.00 PKD
ROOT
HETATM    1  C   UNL     1      -6.204  10.136  70.508  1.00  0.00    -0.115 C  
HETATM    2  C   UNL     1      -7.031   8.858  70.461  1.00  0.00    -0.057 C  
ENDROOT
BRANCH   2   3
HETATM    3  C   UNL     1      -8.142   8.945  69.417  1.00  0.00    -0.105 C  
BRANCH   3   4
HETATM    4  C   UNL     1      -9.272   9.904  69.832  1.00  0.00    -0.212 C  
BRANCH   4   5
HETATM    5  N   UNL     1     -10.583   9.619  69.202  1.00  0.00    -0.215 NA 
HETATM    6  C   UNL     1     -11.363   8.626  69.966  1.00  0.00    -0.017 C  
HETATM    7  C   UNL     1     -11.815   9.124  71.341  1.00  0.00    -0.415 C  
HETATM    8  C   UNL     1     -12.584  10.440  71.236  1.00  0.00    -0.525 C  
HETATM    9  C   UNL     1     -11.858  11.467  70.367  1.00  0.00    -0.428 C  
HETATM   10  C   UNL     1     -11.430  10.843  69.030  1.00  0.00    -0.302 C  
BRANCH  10  11
HETATM   11  C   UNL     1     -10.791  11.862  68.055  1.00  0.00    -0.216 C  
HETATM   12  N   UNL     1     -11.582  12.989  67.876  1.00  0.00    -0.320 N  
HETATM   13  O   UNL     1      -9.665  11.703  67.589  1.00  0.00    -0.175 OA 
HETATM   14  H   UNL     1     -12.428  13.044  68.444  1.00  0.00     0.000 HD 
BRANCH  12  15
HETATM   15  C   UNL     1     -11.347  14.070  66.996  1.00  0.00    -0.330 A  
HETATM   16  C   UNL     1     -10.678  15.249  67.394  1.00  0.00    -0.293 A  
HETATM   17  C   UNL     1     -10.149  15.525  68.774  1.00  0.00    -0.211 C  
HETATM   18  C   UNL     1     -10.425  16.254  66.439  1.00  0.00    -0.297 A  
HETATM   19  C   UNL     1     -10.784  16.090  65.104  1.00  0.00    -0.429 A  
HETATM   20  C   UNL     1     -11.431  14.927  64.708  1.00  0.00    -0.410 A  
HETATM   21  C   UNL     1     -11.716  13.912  65.636  1.00  0.00    -0.362 A  
HETATM   22  C   UNL     1     -12.491  12.713  65.142  1.00  0.00    -0.531 C  
ENDBRANCH  12  15
ENDBRANCH  10  11
ENDBRANCH   4   5
ENDBRANCH   3   4
ENDBRANCH   2   3
TORSDOF 5
ENDMDL
MODEL      128
REMARK 921   NORMALIZED FREE ENERGY PREDICTED BY IDOCK:   -4.10 KCAL/MOL
REMARK 922        TOTAL FREE ENERGY PREDICTED BY IDOCK:   -6.25 KCAL/MOL
REMARK 923 INTER-LIGAND FREE ENERGY PREDICTED BY IDOCK:   -5.63 KCAL/MOL
REMARK 924 INTRA-LIGAND FREE ENERGY PREDICTED BY IDOCK:   -0.62 KCAL/MOL
REMARK 927      BINDING AFFINITY PREDICTED BY RF-SCORE:    0.00 PKD
ROOT
HETATM    1  C   UNL     1      -9.454   9.825  66.409  1.00  0.00    -0.237 C  
HETATM    2  C   UNL     1      -8.406  10.210  67.444  1.00  0.00    -0.118 C  
ENDROOT
BRANCH   2   3
HETATM    3  C   UNL     1      -8.699   9.579  68.804  1.00  0.00    -0.128 C  
BRANCH   3   4
HETATM    4  C   UNL     1      -9.709  10.396  69.630  1.00  0.00    -0.124 C  
BRANCH   4   5
HETATM    5  N   UNL     1     -11.130  10.102  69.328  1.00  0.00    -0.231 NA 
HETATM    6  C   UNL     1     -11.645   8.968  70.121  1.00  0.00     0.011 C  
HETATM    7  C   UNL     1     -11.731   9.256  71.622  1.00  0.00    -0.462 C  
HETATM    8  C   UNL     1     -12.544  10.519  71.905  1.00  0.00    -0.349 C  
HETATM    9  C   UNL     1     -12.111  11.695  71.030  1.00  0.00    -0.212 C  
HETATM   10  C   UNL     1     -12.034  11.276  69.554  1.00  0.00    -0.351 C  
BRANCH  10  11
HETATM   11  C   UNL     1     -11.712  12.452  68.600  1.00  0.00    -0.326 C  
HETATM   12  N   UNL     1     -10.908  13.413  69.197  1.00  0.00    -0.413 N  
HETATM   13  O   UNL     1     -12.064  12.452  67.422  1.00  0.00    -0.505 OA 
HETATM   14  H   UNL     1     -10.575  13.203  70.139  1.00  0.00     0.000 HD 
BRANCH  12  15
HETATM   15  C   UNL     1     -10.498  14.649  68.648  1.00  0.00    -0.244 A  
HETATM   16  C   UNL     1      -9.592  14.742  67.567  1.00  0.00    -0.208 A  
HETATM   17  C   UNL     1      -8.942  13.577  66.875  1.00  0.00    -0.219 C  
HETATM   18  C   UNL     1      -9.283  16.010  67.034  1.00  0.00    -0.229 A  
HETATM   19  C   UNL     1      -9.884  17.166  67.525  1.00  0.00    -0.266 A  
HETATM   20  C   UNL     1     -10.782  17.076  68.579  1.00  0.00    -0.352 A  
HETATM   21  C   UNL     1     -11.100  15.831  69.148  1.00  0.00    -0.283 A  
HETATM   22  C   UNL     1     -12.025  15.826  70.341  1.00  0.00    -0.385 C  
ENDBRANCH  12  15
ENDBRANCH  10  11
ENDBRANCH   4   5
ENDBRANCH   3   4
ENDBRANCH   2   3
TORSDOF 5
ENDMDL
MODEL      129
REMARK 921   NORMALIZED FREE ENERGY PREDICTED BY IDOCK:   -4.09 KCAL/MOL
REMARK 922        TOTAL FREE ENERGY PREDICTED BY IDOCK:   -6.24 KCAL/MOL
REMARK 923 INTER-LIGAND FREE ENERGY PREDICTED BY IDOCK:   -5.38 KCAL/MOL
REMARK 924 INTRA-LIGAND FREE ENERGY PREDICTED BY IDOCK:   -0.85 KCAL/MOL
REMARK 927      BINDING AFFINITY PREDICTED BY RF-SCORE:    0.00 PKD
ROOT
HETATM    1  C   UNL     1     -12.441  11.980  63.456  1.00  0.00    -0.654 C  
HETATM    2  C   UNL     1     -10.919  11.961  63.484  1.00  0.00    -0.505 C  
ENDROOT
BRANCH   2   3
HETATM    3  C   UNL     1     -10.387  11.072  64.607  1.00  0.00    -0.410 C  
BRANCH   3   4
HETATM    4  C   UNL     1     -11.001  11.417  65.976  1.00  0.00    -0.226 C  
BRANCH   4   5
HETATM    5  N   UNL     1     -10.092  12.149  66.889  1.00  0.00    -0.205 NA 
HETATM    6  C   UNL     1      -9.971  13.575  66.529  1.00  0.00    -0.287 C  
HETATM    7  C   UNL     1     -11.265  14.371  66.724  1.00  0.00    -0.340 C  
HETATM    8  C   UNL     1     -11.806  14.223  68.145  1.00  0.00    -0.374 C  
HETATM    9  C   UNL     1     -11.852  12.764  68.598  1.00  0.00    -0.341 C  
HETATM   10  C   UNL     1     -10.512  12.066  68.326  1.00  0.00    -0.204 C  
BRANCH  10  11
HETATM   11  C   UNL     1     -10.454  10.617  68.868  1.00  0.00    -0.210 C  
HETATM   12  N   UNL     1      -9.258   9.984  68.557  1.00  0.00    -0.137 N  
HETATM   13  O   UNL     1     -11.344  10.148  69.574  1.00  0.00    -0.237 OA 
HETATM   14  H   UNL     1      -8.553  10.553  68.087  1.00  0.00     0.000 HD 
BRANCH  12  15
HETATM   15  C   UNL     1      -8.907   8.640  68.819  1.00  0.00    -0.139 A  
HETATM   16  C   UNL     1      -9.435   7.555  68.084  1.00  0.00    -0.147 A  
HETATM   17  C   UNL     1     -10.428   7.667  66.961  1.00  0.00    -0.419 C  
HETATM   18  C   UNL     1      -8.985   6.249  68.363  1.00  0.00    -0.116 A  
HETATM   19  C   UNL     1      -8.001   6.013  69.320  1.00  0.00    -0.103 A  
HETATM   20  C   UNL     1      -7.474   7.078  70.035  1.00  0.00    -0.090 A  
HETATM   21  C   UNL     1      -7.911   8.391  69.797  1.00  0.00    -0.104 A  
HETATM   22  C   UNL     1      -7.344   9.485  70.671  1.00  0.00    -0.133 C  
ENDBRANCH  12  15
ENDBRANCH  10  11
ENDBRANCH   4   5
ENDBRANCH   3   4
ENDBRANCH   2   3
TORSDOF 5
ENDMDL
MODEL      130
REMARK 921   NORMALIZED FREE ENERGY PREDICTED BY IDOCK:   -4.09 KCAL/MOL
REMARK 922        TOTAL FREE ENERGY PREDICTED BY IDOCK:   -6.23 KCAL/MOL
REMARK 923 INTER-LIGAND FREE ENERGY PREDICTED BY IDOCK:   -5.76 KCAL/MOL
REMARK 924 INTRA-LIGAND FREE ENERGY PREDICTED BY IDOCK:   -0.47 KCAL/MOL
REMARK 927      BINDING AFFINITY PREDICTED BY RF-SCORE:    0.00 PKD
ROOT
HETATM    1  C   UNL     1     -11.669  13.266  64.679  1.00  0.00    -0.403 C  
HETATM    2  C   UNL     1     -11.805  12.474  63.386  1.00  0.00    -0.587 C  
ENDROOT
BRANCH   2   3
HETATM    3  C   UNL     1     -10.696  11.433  63.244  1.00  0.00    -0.332 C  
BRANCH   3   4
HETATM    4  C   UNL     1      -9.601  11.585  64.316  1.00  0.00    -0.152 C  
BRANCH   4   5
HETATM    5  N   UNL     1      -9.433  10.403  65.194  1.00  0.00    -0.225 NA 
HETATM    6  C   UNL     1      -8.319   9.539  64.758  1.00  0.00    -0.150 C  
HETATM    7  C   UNL     1      -6.941  10.193  64.900  1.00  0.00    -0.131 C  
HETATM    8  C   UNL     1      -6.703  10.694  66.323  1.00  0.00    -0.129 C  
HETATM    9  C   UNL     1      -7.880  11.511  66.855  1.00  0.00    -0.163 C  
HETATM   10  C   UNL     1      -9.204  10.767  66.630  1.00  0.00    -0.166 C  
BRANCH  10  11
HETATM   11  C   UNL     1     -10.426  11.489  67.250  1.00  0.00    -0.212 C  
HETATM   12  N   UNL     1     -10.076  12.679  67.873  1.00  0.00    -0.216 N  
HETATM   13  O   UNL     1     -11.574  11.075  67.102  1.00  0.00    -0.469 OA 
HETATM   14  H   UNL     1      -9.099  12.964  67.789  1.00  0.00     0.000 HD 
BRANCH  12  15
HETATM   15  C   UNL     1     -10.919  13.541  68.610  1.00  0.00    -0.263 A  
HETATM   16  C   UNL     1     -11.604  13.128  69.776  1.00  0.00    -0.291 A  
HETATM   17  C   UNL     1     -11.548  11.750  70.374  1.00  0.00    -0.109 C  
HETATM   18  C   UNL     1     -12.375  14.066  70.491  1.00  0.00    -0.437 A  
HETATM   19  C   UNL     1     -12.442  15.399  70.095  1.00  0.00    -0.370 A  
HETATM   20  C   UNL     1     -11.762  15.809  68.957  1.00  0.00    -0.405 A  
HETATM   21  C   UNL     1     -10.998  14.898  68.208  1.00  0.00    -0.268 A  
HETATM   22  C   UNL     1     -10.353  15.405  66.941  1.00  0.00    -0.277 C  
ENDBRANCH  12  15
ENDBRANCH  10  11
ENDBRANCH   4   5
ENDBRANCH   3   4
ENDBRANCH   2   3
TORSDOF 5
ENDMDL
MODEL      131
REMARK 921   NORMALIZED FREE ENERGY PREDICTED BY IDOCK:   -4.06 KCAL/MOL
REMARK 922        TOTAL FREE ENERGY PREDICTED BY IDOCK:   -6.19 KCAL/MOL
REMARK 923 INTER-LIGAND FREE ENERGY PREDICTED BY IDOCK:   -5.20 KCAL/MOL
REMARK 924 INTRA-LIGAND FREE ENERGY PREDICTED BY IDOCK:   -0.99 KCAL/MOL
REMARK 927      BINDING AFFINITY PREDICTED BY RF-SCORE:    0.00 PKD
ROOT
HETATM    1  C   UNL     1      -7.780   8.559  72.523  1.00  0.00    -0.088 C  
HETATM    2  C   UNL     1      -7.847   7.161  71.924  1.00  0.00    -0.092 C  
ENDROOT
BRANCH   2   3
HETATM    3  C   UNL     1      -9.277   6.626  71.902  1.00  0.00    -0.147 C  
BRANCH   3   4
HETATM    4  C   UNL     1      -9.948   6.784  70.526  1.00  0.00    -0.183 C  
BRANCH   4   5
HETATM    5  N   UNL     1      -9.005   7.024  69.407  1.00  0.00    -0.139 NA 
HETATM    6  C   UNL     1      -8.687   5.786  68.671  1.00  0.00    -0.108 C  
HETATM    7  C   UNL     1      -9.879   5.198  67.911  1.00  0.00    -0.199 C  
HETATM    8  C   UNL     1     -10.511   6.227  66.976  1.00  0.00    -0.341 C  
HETATM    9  C   UNL     1     -10.765   7.564  67.673  1.00  0.00    -0.266 C  
HETATM   10  C   UNL     1      -9.510   8.035  68.421  1.00  0.00    -0.145 C  
BRANCH  10  11
HETATM   11  C   UNL     1      -9.664   9.440  69.054  1.00  0.00    -0.166 C  
HETATM   12  N   UNL     1     -10.983   9.873  69.063  1.00  0.00    -0.321 N  
HETATM   13  O   UNL     1      -8.717  10.032  69.568  1.00  0.00    -0.170 OA 
HETATM   14  H   UNL     1     -11.680   9.207  68.729  1.00  0.00     0.000 HD 
BRANCH  12  15
HETATM   15  C   UNL     1     -11.468  11.132  69.482  1.00  0.00    -0.303 A  
HETATM   16  C   UNL     1     -11.295  12.310  68.721  1.00  0.00    -0.337 A  
HETATM   17  C   UNL     1     -10.578  12.396  67.402  1.00  0.00    -0.237 C  
HETATM   18  C   UNL     1     -11.865  13.516  69.177  1.00  0.00    -0.386 A  
HETATM   19  C   UNL     1     -12.629  13.559  70.340  1.00  0.00    -0.267 A  
HETATM   20  C   UNL     1     -12.809  12.401  71.084  1.00  0.00    -0.299 A  
HETATM   21  C   UNL     1     -12.240  11.185  70.670  1.00  0.00    -0.492 A  
HETATM   22  C   UNL     1     -12.418   9.989  71.573  1.00  0.00    -0.516 C  
ENDBRANCH  12  15
ENDBRANCH  10  11
ENDBRANCH   4   5
ENDBRANCH   3   4
ENDBRANCH   2   3
TORSDOF 5
ENDMDL
MODEL      132
REMARK 921   NORMALIZED FREE ENERGY PREDICTED BY IDOCK:   -4.04 KCAL/MOL
REMARK 922        TOTAL FREE ENERGY PREDICTED BY IDOCK:   -6.17 KCAL/MOL
REMARK 923 INTER-LIGAND FREE ENERGY PREDICTED BY IDOCK:   -5.24 KCAL/MOL
REMARK 924 INTRA-LIGAND FREE ENERGY PREDICTED BY IDOCK:   -0.93 KCAL/MOL
REMARK 927      BINDING AFFINITY PREDICTED BY RF-SCORE:    0.00 PKD
ROOT
HETATM    1  C   UNL     1     -11.138  14.856  65.115  1.00  0.00    -0.399 C  
HETATM    2  C   UNL     1     -11.959  14.476  66.339  1.00  0.00    -0.350 C  
ENDROOT
BRANCH   2   3
HETATM    3  C   UNL     1     -11.280  14.919  67.633  1.00  0.00    -0.330 C  
BRANCH   3   4
HETATM    4  C   UNL     1     -12.178  14.730  68.869  1.00  0.00    -0.121 C  
BRANCH   4   5
HETATM    5  N   UNL     1     -11.448  14.385  70.112  1.00  0.00    -0.249 NA 
HETATM    6  C   UNL     1     -11.455  15.493  71.087  1.00  0.00    -0.390 C  
HETATM    7  C   UNL     1     -12.843  15.805  71.654  1.00  0.00    -0.514 C  
HETATM    8  C   UNL     1     -13.496  14.561  72.254  1.00  0.00    -0.518 C  
HETATM    9  C   UNL     1     -13.421  13.357  71.315  1.00  0.00    -0.096 C  
HETATM   10  C   UNL     1     -11.990  13.164  70.791  1.00  0.00    -0.069 C  
BRANCH  10  11
HETATM   11  C   UNL     1     -11.822  11.891  69.925  1.00  0.00    -0.343 C  
HETATM   12  N   UNL     1     -10.541  11.362  70.007  1.00  0.00    -0.193 N  
HETATM   13  O   UNL     1     -12.765  11.380  69.325  1.00  0.00    -0.133 OA 
HETATM   14  H   UNL     1      -9.904  11.818  70.662  1.00  0.00     0.000 HD 
BRANCH  12  15
HETATM   15  C   UNL     1     -10.019  10.265  69.286  1.00  0.00    -0.227 A  
HETATM   16  C   UNL     1      -9.553  10.376  67.956  1.00  0.00    -0.156 A  
HETATM   17  C   UNL     1      -9.557  11.636  67.136  1.00  0.00    -0.185 C  
HETATM   18  C   UNL     1      -8.987   9.248  67.328  1.00  0.00    -0.136 A  
HETATM   19  C   UNL     1      -8.841   8.041  68.005  1.00  0.00    -0.128 A  
HETATM   20  C   UNL     1      -9.289   7.932  69.314  1.00  0.00    -0.148 A  
HETATM   21  C   UNL     1      -9.875   9.030  69.966  1.00  0.00    -0.203 A  
HETATM   22  C   UNL     1     -10.406   8.808  71.363  1.00  0.00    -0.348 C  
ENDBRANCH  12  15
ENDBRANCH  10  11
ENDBRANCH   4   5
ENDBRANCH   3   4
ENDBRANCH   2   3
TORSDOF 5
ENDMDL
MODEL      133
REMARK 921   NORMALIZED FREE ENERGY PREDICTED BY IDOCK:   -4.03 KCAL/MOL
REMARK 922        TOTAL FREE ENERGY PREDICTED BY IDOCK:   -6.15 KCAL/MOL
REMARK 923 INTER-LIGAND FREE ENERGY PREDICTED BY IDOCK:   -5.34 KCAL/MOL
REMARK 924 INTRA-LIGAND FREE ENERGY PREDICTED BY IDOCK:   -0.81 KCAL/MOL
REMARK 927      BINDING AFFINITY PREDICTED BY RF-SCORE:    0.00 PKD
ROOT
HETATM    1  C   UNL     1     -12.918   9.651  71.927  1.00  0.00    -0.527 C  
HETATM    2  C   UNL     1     -12.903  10.881  71.029  1.00  0.00    -0.472 C  
ENDROOT
BRANCH   2   3
HETATM    3  C   UNL     1     -11.488  11.224  70.567  1.00  0.00    -0.082 C  
BRANCH   3   4
HETATM    4  C   UNL     1     -11.358  11.261  69.034  1.00  0.00    -0.278 C  
BRANCH   4   5
HETATM    5  N   UNL     1      -9.965  11.194  68.534  1.00  0.00    -0.193 NA 
HETATM    6  C   UNL     1      -9.445   9.813  68.516  1.00  0.00    -0.145 C  
HETATM    7  C   UNL     1     -10.150   8.904  67.505  1.00  0.00    -0.285 C  
HETATM    8  C   UNL     1     -10.125   9.502  66.100  1.00  0.00    -0.326 C  
HETATM    9  C   UNL     1     -10.559  10.968  66.086  1.00  0.00    -0.288 C  
HETATM   10  C   UNL     1      -9.807  11.769  67.158  1.00  0.00    -0.193 C  
BRANCH  10  11
HETATM   11  C   UNL     1     -10.117  13.285  67.120  1.00  0.00    -0.239 C  
HETATM   12  N   UNL     1      -9.345  14.005  68.022  1.00  0.00    -0.198 N  
HETATM   13  O   UNL     1     -10.893  13.773  66.301  1.00  0.00    -0.282 OA 
HETATM   14  H   UNL     1      -8.637  13.478  68.534  1.00  0.00     0.000 HD 
BRANCH  12  15
HETATM   15  C   UNL     1      -9.428  15.386  68.310  1.00  0.00    -0.200 A  
HETATM   16  C   UNL     1      -8.595  16.347  67.694  1.00  0.00    -0.181 A  
HETATM   17  C   UNL     1      -7.520  16.048  66.686  1.00  0.00    -0.158 C  
HETATM   18  C   UNL     1      -8.784  17.713  67.987  1.00  0.00    -0.253 A  
HETATM   19  C   UNL     1      -9.802  18.135  68.837  1.00  0.00    -0.322 A  
HETATM   20  C   UNL     1     -10.629  17.194  69.434  1.00  0.00    -0.161 A  
HETATM   21  C   UNL     1     -10.458  15.823  69.181  1.00  0.00    -0.240 A  
HETATM   22  C   UNL     1     -11.348  14.859  69.929  1.00  0.00    -0.311 C  
ENDBRANCH  12  15
ENDBRANCH  10  11
ENDBRANCH   4   5
ENDBRANCH   3   4
ENDBRANCH   2   3
TORSDOF 5
ENDMDL
MODEL      134
REMARK 921   NORMALIZED FREE ENERGY PREDICTED BY IDOCK:   -4.01 KCAL/MOL
REMARK 922        TOTAL FREE ENERGY PREDICTED BY IDOCK:   -6.14 KCAL/MOL
REMARK 923 INTER-LIGAND FREE ENERGY PREDICTED BY IDOCK:   -5.36 KCAL/MOL
REMARK 924 INTRA-LIGAND FREE ENERGY PREDICTED BY IDOCK:   -0.78 KCAL/MOL
REMARK 927      BINDING AFFINITY PREDICTED BY RF-SCORE:    0.00 PKD
ROOT
HETATM    1  C   UNL     1      -8.665   9.731  66.144  1.00  0.00    -0.150 C  
HETATM    2  C   UNL     1      -9.903  10.101  65.339  1.00  0.00    -0.375 C  
ENDROOT
BRANCH   2   3
HETATM    3  C   UNL     1     -10.639  11.290  65.953  1.00  0.00    -0.309 C  
BRANCH   3   4
HETATM    4  C   UNL     1     -11.199  10.981  67.353  1.00  0.00    -0.285 C  
BRANCH   4   5
HETATM    5  N   UNL     1     -10.365  11.479  68.472  1.00  0.00    -0.205 NA 
HETATM    6  C   UNL     1      -9.921  12.870  68.260  1.00  0.00    -0.234 C  
HETATM    7  C   UNL     1     -11.062  13.891  68.286  1.00  0.00    -0.280 C  
HETATM    8  C   UNL     1     -11.883  13.782  69.569  1.00  0.00    -0.394 C  
HETATM    9  C   UNL     1     -12.279  12.339  69.884  1.00  0.00    -0.234 C  
HETATM   10  C   UNL     1     -11.060  11.409  69.799  1.00  0.00    -0.126 C  
BRANCH  10  11
HETATM   11  C   UNL     1     -11.371   9.952  70.219  1.00  0.00    -0.291 C  
HETATM   12  N   UNL     1     -10.266   9.120  70.099  1.00  0.00    -0.193 N  
HETATM   13  O   UNL     1     -12.458   9.627  70.695  1.00  0.00    -0.212 OA 
HETATM   14  H   UNL     1      -9.391   9.567  69.826  1.00  0.00     0.000 HD 
BRANCH  12  15
HETATM   15  C   UNL     1     -10.218   7.724  70.312  1.00  0.00    -0.199 A  
HETATM   16  C   UNL     1     -10.017   7.152  71.589  1.00  0.00    -0.186 A  
HETATM   17  C   UNL     1      -9.816   7.922  72.864  1.00  0.00    -0.348 C  
HETATM   18  C   UNL     1     -10.046   5.750  71.728  1.00  0.00    -0.233 A  
HETATM   19  C   UNL     1     -10.310   4.921  70.642  1.00  0.00    -0.233 A  
HETATM   20  C   UNL     1     -10.519   5.481  69.389  1.00  0.00    -0.360 A  
HETATM   21  C   UNL     1     -10.479   6.873  69.208  1.00  0.00    -0.233 A  
HETATM   22  C   UNL     1     -10.639   7.399  67.802  1.00  0.00    -0.278 C  
ENDBRANCH  12  15
ENDBRANCH  10  11
ENDBRANCH   4   5
ENDBRANCH   3   4
ENDBRANCH   2   3
TORSDOF 5
ENDMDL
MODEL      135
REMARK 921   NORMALIZED FREE ENERGY PREDICTED BY IDOCK:   -4.00 KCAL/MOL
REMARK 922        TOTAL FREE ENERGY PREDICTED BY IDOCK:   -6.12 KCAL/MOL
REMARK 923 INTER-LIGAND FREE ENERGY PREDICTED BY IDOCK:   -5.44 KCAL/MOL
REMARK 924 INTRA-LIGAND FREE ENERGY PREDICTED BY IDOCK:   -0.68 KCAL/MOL
REMARK 927      BINDING AFFINITY PREDICTED BY RF-SCORE:    0.00 PKD
ROOT
HETATM    1  C   UNL     1     -12.118  13.250  63.860  1.00  0.00    -0.531 C  
HETATM    2  C   UNL     1     -10.766  12.563  63.726  1.00  0.00    -0.483 C  
ENDROOT
BRANCH   2   3
HETATM    3  C   UNL     1     -10.715  11.260  64.522  1.00  0.00    -0.390 C  
BRANCH   3   4
HETATM    4  C   UNL     1      -9.442  11.140  65.379  1.00  0.00    -0.222 C  
BRANCH   4   5
HETATM    5  N   UNL     1      -9.228   9.800  65.975  1.00  0.00    -0.167 NA 
HETATM    6  C   UNL     1      -8.688   8.835  64.998  1.00  0.00    -0.148 C  
HETATM    7  C   UNL     1      -7.268   9.163  64.529  1.00  0.00    -0.098 C  
HETATM    8  C   UNL     1      -6.310   9.321  65.708  1.00  0.00    -0.067 C  
HETATM    9  C   UNL     1      -6.875  10.234  66.796  1.00  0.00    -0.088 C  
HETATM   10  C   UNL     1      -8.309   9.824  67.160  1.00  0.00    -0.121 C  
BRANCH  10  11
HETATM   11  C   UNL     1      -8.899  10.639  68.338  1.00  0.00    -0.145 C  
HETATM   12  N   UNL     1     -10.287  10.616  68.354  1.00  0.00    -0.167 N  
HETATM   13  O   UNL     1      -8.186  11.151  69.199  1.00  0.00    -0.109 OA 
HETATM   14  H   UNL     1     -10.738  10.026  67.653  1.00  0.00     0.000 HD 
BRANCH  12  15
HETATM   15  C   UNL     1     -11.145  11.317  69.230  1.00  0.00    -0.255 A  
HETATM   16  C   UNL     1     -11.599  10.774  70.453  1.00  0.00    -0.431 A  
HETATM   17  C   UNL     1     -11.257   9.407  70.977  1.00  0.00    -0.412 C  
HETATM   18  C   UNL     1     -12.401  11.563  71.302  1.00  0.00    -0.314 A  
HETATM   19  C   UNL     1     -12.720  12.879  70.979  1.00  0.00    -0.338 A  
HETATM   20  C   UNL     1     -12.266  13.418  69.783  1.00  0.00    -0.307 A  
HETATM   21  C   UNL     1     -11.480  12.656  68.903  1.00  0.00    -0.354 A  
HETATM   22  C   UNL     1     -11.092  13.289  67.588  1.00  0.00    -0.292 C  
ENDBRANCH  12  15
ENDBRANCH  10  11
ENDBRANCH   4   5
ENDBRANCH   3   4
ENDBRANCH   2   3
TORSDOF 5
ENDMDL
MODEL      136
REMARK 921   NORMALIZED FREE ENERGY PREDICTED BY IDOCK:   -3.99 KCAL/MOL
REMARK 922        TOTAL FREE ENERGY PREDICTED BY IDOCK:   -6.11 KCAL/MOL
REMARK 923 INTER-LIGAND FREE ENERGY PREDICTED BY IDOCK:   -5.43 KCAL/MOL
REMARK 924 INTRA-LIGAND FREE ENERGY PREDICTED BY IDOCK:   -0.68 KCAL/MOL
REMARK 927      BINDING AFFINITY PREDICTED BY RF-SCORE:    0.00 PKD
ROOT
HETATM    1  C   UNL     1     -12.531  11.998  63.569  1.00  0.00    -0.654 C  
HETATM    2  C   UNL     1     -11.013  11.897  63.638  1.00  0.00    -0.511 C  
ENDROOT
BRANCH   2   3
HETATM    3  C   UNL     1     -10.559  11.032  64.812  1.00  0.00    -0.350 C  
BRANCH   3   4
HETATM    4  C   UNL     1     -11.145  11.503  66.155  1.00  0.00    -0.244 C  
BRANCH   4   5
HETATM    5  N   UNL     1     -10.226  12.335  66.968  1.00  0.00    -0.215 NA 
HETATM    6  C   UNL     1     -10.242  13.751  66.551  1.00  0.00    -0.284 C  
HETATM    7  C   UNL     1     -11.573  14.457  66.820  1.00  0.00    -0.399 C  
HETATM    8  C   UNL     1     -11.991  14.328  68.284  1.00  0.00    -0.346 C  
HETATM    9  C   UNL     1     -11.892  12.888  68.789  1.00  0.00    -0.353 C  
HETATM   10  C   UNL     1     -10.527  12.280  68.436  1.00  0.00    -0.233 C  
BRANCH  10  11
HETATM   11  C   UNL     1     -10.319  10.861  69.021  1.00  0.00    -0.211 C  
HETATM   12  N   UNL     1      -9.201  10.231  68.491  1.00  0.00    -0.139 N  
HETATM   13  O   UNL     1     -11.026  10.416  69.923  1.00  0.00    -0.266 OA 
HETATM   14  H   UNL     1      -8.628  10.785  67.855  1.00  0.00     0.000 HD 
BRANCH  12  15
HETATM   15  C   UNL     1      -8.769   8.907  68.735  1.00  0.00    -0.137 A  
HETATM   16  C   UNL     1      -7.739   8.596  69.651  1.00  0.00    -0.089 A  
HETATM   17  C   UNL     1      -6.967   9.597  70.465  1.00  0.00    -0.133 C  
HETATM   18  C   UNL     1      -7.410   7.246  69.886  1.00  0.00    -0.084 A  
HETATM   19  C   UNL     1      -8.106   6.213  69.264  1.00  0.00    -0.109 A  
HETATM   20  C   UNL     1      -9.125   6.517  68.371  1.00  0.00    -0.123 A  
HETATM   21  C   UNL     1      -9.469   7.851  68.099  1.00  0.00    -0.154 A  
HETATM   22  C   UNL     1     -10.535   8.098  67.059  1.00  0.00    -0.396 C  
ENDBRANCH  12  15
ENDBRANCH  10  11
ENDBRANCH   4   5
ENDBRANCH   3   4
ENDBRANCH   2   3
TORSDOF 5
ENDMDL
MODEL      137
REMARK 921   NORMALIZED FREE ENERGY PREDICTED BY IDOCK:   -3.99 KCAL/MOL
REMARK 922        TOTAL FREE ENERGY PREDICTED BY IDOCK:   -6.11 KCAL/MOL
REMARK 923 INTER-LIGAND FREE ENERGY PREDICTED BY IDOCK:   -5.92 KCAL/MOL
REMARK 924 INTRA-LIGAND FREE ENERGY PREDICTED BY IDOCK:   -0.19 KCAL/MOL
REMARK 927      BINDING AFFINITY PREDICTED BY RF-SCORE:    0.00 PKD
ROOT
HETATM    1  C   UNL     1     -12.447  12.295  63.578  1.00  0.00    -0.642 C  
HETATM    2  C   UNL     1     -11.488  12.980  64.542  1.00  0.00    -0.389 C  
ENDROOT
BRANCH   2   3
HETATM    3  C   UNL     1     -10.540  11.978  65.200  1.00  0.00    -0.330 C  
BRANCH   3   4
HETATM    4  C   UNL     1     -11.046  11.498  66.572  1.00  0.00    -0.282 C  
BRANCH   4   5
HETATM    5  N   UNL     1     -10.171  11.866  67.711  1.00  0.00    -0.196 NA 
HETATM    6  C   UNL     1      -9.990  13.326  67.826  1.00  0.00    -0.223 C  
HETATM    7  C   UNL     1     -11.270  14.077  68.202  1.00  0.00    -0.299 C  
HETATM    8  C   UNL     1     -11.897  13.514  69.477  1.00  0.00    -0.392 C  
HETATM    9  C   UNL     1     -12.010  11.990  69.443  1.00  0.00    -0.334 C  
HETATM   10  C   UNL     1     -10.676  11.354  69.027  1.00  0.00    -0.205 C  
BRANCH  10  11
HETATM   11  C   UNL     1     -10.690   9.807  69.085  1.00  0.00    -0.221 C  
HETATM   12  N   UNL     1     -10.737   9.328  70.387  1.00  0.00    -0.233 N  
HETATM   13  O   UNL     1     -10.753   9.116  68.070  1.00  0.00    -0.218 OA 
HETATM   14  H   UNL     1     -10.826  10.027  71.124  1.00  0.00     0.000 HD 
BRANCH  12  15
HETATM   15  C   UNL     1     -10.675   7.979  70.806  1.00  0.00    -0.223 A  
HETATM   16  C   UNL     1      -9.496   7.205  70.719  1.00  0.00    -0.164 A  
HETATM   17  C   UNL     1      -8.180   7.684  70.172  1.00  0.00    -0.124 C  
HETATM   18  C   UNL     1      -9.498   5.887  71.219  1.00  0.00    -0.181 A  
HETATM   19  C   UNL     1     -10.626   5.349  71.832  1.00  0.00    -0.288 A  
HETATM   20  C   UNL     1     -11.782   6.111  71.928  1.00  0.00    -0.337 A  
HETATM   21  C   UNL     1     -11.822   7.422  71.425  1.00  0.00    -0.329 A  
HETATM   22  C   UNL     1     -13.139   8.156  71.498  1.00  0.00    -0.309 C  
ENDBRANCH  12  15
ENDBRANCH  10  11
ENDBRANCH   4   5
ENDBRANCH   3   4
ENDBRANCH   2   3
TORSDOF 5
ENDMDL
MODEL      138
REMARK 921   NORMALIZED FREE ENERGY PREDICTED BY IDOCK:   -3.99 KCAL/MOL
REMARK 922        TOTAL FREE ENERGY PREDICTED BY IDOCK:   -6.10 KCAL/MOL
REMARK 923 INTER-LIGAND FREE ENERGY PREDICTED BY IDOCK:   -5.45 KCAL/MOL
REMARK 924 INTRA-LIGAND FREE ENERGY PREDICTED BY IDOCK:   -0.65 KCAL/MOL
REMARK 927      BINDING AFFINITY PREDICTED BY RF-SCORE:    0.00 PKD
ROOT
HETATM    1  C   UNL     1      -6.336   8.760  65.831  1.00  0.00    -0.056 C  
HETATM    2  C   UNL     1      -6.846   7.554  65.052  1.00  0.00    -0.047 C  
ENDROOT
BRANCH   2   3
HETATM    3  C   UNL     1      -8.211   7.093  65.558  1.00  0.00    -0.139 C  
BRANCH   3   4
HETATM    4  C   UNL     1      -8.778   8.013  66.654  1.00  0.00    -0.140 C  
BRANCH   4   5
HETATM    5  N   UNL     1     -10.257   8.026  66.741  1.00  0.00    -0.300 NA 
HETATM    6  C   UNL     1     -10.818   6.671  66.903  1.00  0.00    -0.345 C  
HETATM    7  C   UNL     1     -10.464   6.015  68.241  1.00  0.00    -0.289 C  
HETATM    8  C   UNL     1     -10.859   6.901  69.421  1.00  0.00    -0.283 C  
HETATM    9  C   UNL     1     -10.386   8.344  69.246  1.00  0.00    -0.220 C  
HETATM   10  C   UNL     1     -10.773   8.880  67.860  1.00  0.00    -0.121 C  
BRANCH  10  11
HETATM   11  C   UNL     1     -10.424  10.375  67.662  1.00  0.00    -0.233 C  
HETATM   12  N   UNL     1     -11.328  11.023  66.831  1.00  0.00    -0.147 N  
HETATM   13  O   UNL     1      -9.500  10.916  68.266  1.00  0.00    -0.156 OA 
HETATM   14  H   UNL     1     -12.129  10.474  66.518  1.00  0.00     0.000 HD 
BRANCH  12  15
HETATM   15  C   UNL     1     -11.264  12.357  66.371  1.00  0.00    -0.319 A  
HETATM   16  C   UNL     1     -11.563  13.466  67.195  1.00  0.00    -0.399 A  
HETATM   17  C   UNL     1     -11.994  13.389  68.633  1.00  0.00    -0.362 C  
HETATM   18  C   UNL     1     -11.412  14.769  66.679  1.00  0.00    -0.339 A  
HETATM   19  C   UNL     1     -10.936  14.985  65.389  1.00  0.00    -0.380 A  
HETATM   20  C   UNL     1     -10.631  13.898  64.581  1.00  0.00    -0.432 A  
HETATM   21  C   UNL     1     -10.787  12.585  65.055  1.00  0.00    -0.324 A  
HETATM   22  C   UNL     1     -10.508  11.457  64.090  1.00  0.00    -0.421 C  
ENDBRANCH  12  15
ENDBRANCH  10  11
ENDBRANCH   4   5
ENDBRANCH   3   4
ENDBRANCH   2   3
TORSDOF 5
ENDMDL
MODEL      139
REMARK 921   NORMALIZED FREE ENERGY PREDICTED BY IDOCK:   -3.98 KCAL/MOL
REMARK 922        TOTAL FREE ENERGY PREDICTED BY IDOCK:   -6.10 KCAL/MOL
REMARK 923 INTER-LIGAND FREE ENERGY PREDICTED BY IDOCK:   -5.88 KCAL/MOL
REMARK 924 INTRA-LIGAND FREE ENERGY PREDICTED BY IDOCK:   -0.22 KCAL/MOL
REMARK 927      BINDING AFFINITY PREDICTED BY RF-SCORE:    0.00 PKD
ROOT
HETATM    1  C   UNL     1      -9.603   4.059  69.034  1.00  0.00    -0.223 C  
HETATM    2  C   UNL     1      -9.964   4.899  70.252  1.00  0.00    -0.321 C  
ENDROOT
BRANCH   2   3
HETATM    3  C   UNL     1     -10.887   6.058  69.882  1.00  0.00    -0.434 C  
BRANCH   3   4
HETATM    4  C   UNL     1     -10.128   7.244  69.260  1.00  0.00    -0.183 C  
BRANCH   4   5
HETATM    5  N   UNL     1     -10.337   8.538  69.952  1.00  0.00    -0.205 NA 
HETATM    6  C   UNL     1      -9.748   8.548  71.305  1.00  0.00    -0.208 C  
HETATM    7  C   UNL     1      -8.219   8.471  71.311  1.00  0.00    -0.176 C  
HETATM    8  C   UNL     1      -7.599   9.570  70.451  1.00  0.00    -0.169 C  
HETATM    9  C   UNL     1      -8.251   9.664  69.071  1.00  0.00    -0.113 C  
HETATM   10  C   UNL     1      -9.781   9.706  69.194  1.00  0.00    -0.178 C  
BRANCH  10  11
HETATM   11  C   UNL     1     -10.499   9.917  67.839  1.00  0.00    -0.236 C  
HETATM   12  N   UNL     1     -10.138  11.111  67.230  1.00  0.00    -0.184 N  
HETATM   13  O   UNL     1     -11.224   9.057  67.343  1.00  0.00     0.142 OA 
HETATM   14  H   UNL     1      -9.412  11.656  67.697  1.00  0.00     0.000 HD 
BRANCH  12  15
HETATM   15  C   UNL     1     -10.662  11.657  66.036  1.00  0.00    -0.280 A  
HETATM   16  C   UNL     1     -10.373  11.123  64.760  1.00  0.00    -0.387 A  
HETATM   17  C   UNL     1      -9.481   9.943  64.493  1.00  0.00    -0.328 C  
HETATM   18  C   UNL     1     -10.987  11.685  63.623  1.00  0.00    -0.507 A  
HETATM   19  C   UNL     1     -11.903  12.727  63.736  1.00  0.00    -0.572 A  
HETATM   20  C   UNL     1     -12.197  13.245  64.990  1.00  0.00    -0.477 A  
HETATM   21  C   UNL     1     -11.590  12.723  66.144  1.00  0.00    -0.431 A  
HETATM   22  C   UNL     1     -11.903  13.393  67.461  1.00  0.00    -0.408 C  
ENDBRANCH  12  15
ENDBRANCH  10  11
ENDBRANCH   4   5
ENDBRANCH   3   4
ENDBRANCH   2   3
TORSDOF 5
ENDMDL
MODEL      140
REMARK 921   NORMALIZED FREE ENERGY PREDICTED BY IDOCK:   -3.98 KCAL/MOL
REMARK 922        TOTAL FREE ENERGY PREDICTED BY IDOCK:   -6.09 KCAL/MOL
REMARK 923 INTER-LIGAND FREE ENERGY PREDICTED BY IDOCK:   -5.44 KCAL/MOL
REMARK 924 INTRA-LIGAND FREE ENERGY PREDICTED BY IDOCK:   -0.65 KCAL/MOL
REMARK 927      BINDING AFFINITY PREDICTED BY RF-SCORE:    0.00 PKD
ROOT
HETATM    1  C   UNL     1      -7.891  13.644  68.150  1.00  0.00    -0.143 C  
HETATM    2  C   UNL     1      -8.483  14.405  66.972  1.00  0.00    -0.206 C  
ENDROOT
BRANCH   2   3
HETATM    3  C   UNL     1      -9.566  13.594  66.264  1.00  0.00    -0.254 C  
BRANCH   3   4
HETATM    4  C   UNL     1      -9.090  12.183  65.876  1.00  0.00     0.002 C  
BRANCH   4   5
HETATM    5  N   UNL     1     -10.176  11.181  65.751  1.00  0.00    -0.249 NA 
HETATM    6  C   UNL     1     -10.248  10.604  64.395  1.00  0.00    -0.330 C  
HETATM    7  C   UNL     1      -9.033   9.749  64.024  1.00  0.00    -0.275 C  
HETATM    8  C   UNL     1      -8.783   8.652  65.058  1.00  0.00    -0.154 C  
HETATM    9  C   UNL     1      -8.801   9.190  66.489  1.00  0.00    -0.156 C  
HETATM   10  C   UNL     1     -10.049  10.053  66.730  1.00  0.00    -0.226 C  
BRANCH  10  11
HETATM   11  C   UNL     1     -10.187  10.534  68.196  1.00  0.00    -0.162 C  
HETATM   12  N   UNL     1     -11.436  11.080  68.457  1.00  0.00    -0.287 N  
HETATM   13  O   UNL     1      -9.304  10.346  69.030  1.00  0.00    -0.175 OA 
HETATM   14  H   UNL     1     -12.117  11.036  67.698  1.00  0.00     0.000 HD 
BRANCH  12  15
HETATM   15  C   UNL     1     -11.870  11.690  69.655  1.00  0.00    -0.352 A  
HETATM   16  C   UNL     1     -12.088  13.082  69.769  1.00  0.00    -0.325 A  
HETATM   17  C   UNL     1     -11.881  14.087  68.670  1.00  0.00    -0.396 C  
HETATM   18  C   UNL     1     -12.584  13.605  70.980  1.00  0.00    -0.441 A  
HETATM   19  C   UNL     1     -12.902  12.774  72.050  1.00  0.00    -0.269 A  
HETATM   20  C   UNL     1     -12.699  11.405  71.937  1.00  0.00    -0.266 A  
HETATM   21  C   UNL     1     -12.189  10.850  70.752  1.00  0.00    -0.483 A  
HETATM   22  C   UNL     1     -11.925   9.363  70.736  1.00  0.00    -0.298 C  
ENDBRANCH  12  15
ENDBRANCH  10  11
ENDBRANCH   4   5
ENDBRANCH   3   4
ENDBRANCH   2   3
TORSDOF 5
ENDMDL
MODEL      141
REMARK 921   NORMALIZED FREE ENERGY PREDICTED BY IDOCK:   -3.95 KCAL/MOL
REMARK 922        TOTAL FREE ENERGY PREDICTED BY IDOCK:   -6.05 KCAL/MOL
REMARK 923 INTER-LIGAND FREE ENERGY PREDICTED BY IDOCK:   -5.31 KCAL/MOL
REMARK 924 INTRA-LIGAND FREE ENERGY PREDICTED BY IDOCK:   -0.74 KCAL/MOL
REMARK 927      BINDING AFFINITY PREDICTED BY RF-SCORE:    0.00 PKD
ROOT
HETATM    1  C   UNL     1      -8.125   6.973  66.201  1.00  0.00    -0.119 C  
HETATM    2  C   UNL     1      -8.286   7.610  67.575  1.00  0.00    -0.121 C  
ENDROOT
BRANCH   2   3
HETATM    3  C   UNL     1      -7.520   6.836  68.646  1.00  0.00    -0.099 C  
BRANCH   3   4
HETATM    4  C   UNL     1      -8.327   6.671  69.947  1.00  0.00    -0.132 C  
BRANCH   4   5
HETATM    5  N   UNL     1      -9.785   6.498  69.747  1.00  0.00    -0.158 NA 
HETATM    6  C   UNL     1     -10.166   5.078  69.621  1.00  0.00    -0.236 C  
HETATM    7  C   UNL     1      -9.961   4.269  70.905  1.00  0.00    -0.225 C  
HETATM    8  C   UNL     1     -10.678   4.911  72.091  1.00  0.00    -0.193 C  
HETATM    9  C   UNL     1     -10.392   6.409  72.200  1.00  0.00    -0.213 C  
HETATM   10  C   UNL     1     -10.604   7.103  70.847  1.00  0.00    -0.220 C  
BRANCH  10  11
HETATM   11  C   UNL     1     -10.443   8.642  70.916  1.00  0.00    -0.214 C  
HETATM   12  N   UNL     1     -11.303   9.302  70.050  1.00  0.00    -0.407 N  
HETATM   13  O   UNL     1      -9.698   9.184  71.729  1.00  0.00    -0.283 OA 
HETATM   14  H   UNL     1     -11.968   8.719  69.540  1.00  0.00     0.000 HD 
BRANCH  12  15
HETATM   15  C   UNL     1     -11.362  10.691  69.795  1.00  0.00    -0.301 A  
HETATM   16  C   UNL     1     -10.643  11.306  68.745  1.00  0.00    -0.234 A  
HETATM   17  C   UNL     1      -9.728  10.598  67.786  1.00  0.00    -0.179 C  
HETATM   18  C   UNL     1     -10.806  12.688  68.515  1.00  0.00    -0.279 A  
HETATM   19  C   UNL     1     -11.692  13.447  69.275  1.00  0.00    -0.383 A  
HETATM   20  C   UNL     1     -12.407  12.842  70.299  1.00  0.00    -0.294 A  
HETATM   21  C   UNL     1     -12.256  11.472  70.569  1.00  0.00    -0.469 A  
HETATM   22  C   UNL     1     -13.011  10.907  71.749  1.00  0.00    -0.557 C  
ENDBRANCH  12  15
ENDBRANCH  10  11
ENDBRANCH   4   5
ENDBRANCH   3   4
ENDBRANCH   2   3
TORSDOF 5
ENDMDL
MODEL      142
REMARK 921   NORMALIZED FREE ENERGY PREDICTED BY IDOCK:   -3.92 KCAL/MOL
REMARK 922        TOTAL FREE ENERGY PREDICTED BY IDOCK:   -6.01 KCAL/MOL
REMARK 923 INTER-LIGAND FREE ENERGY PREDICTED BY IDOCK:   -5.25 KCAL/MOL
REMARK 924 INTRA-LIGAND FREE ENERGY PREDICTED BY IDOCK:   -0.76 KCAL/MOL
REMARK 927      BINDING AFFINITY PREDICTED BY RF-SCORE:    0.00 PKD
ROOT
HETATM    1  C   UNL     1      -5.866  10.278  70.775  1.00  0.00    -0.094 C  
HETATM    2  C   UNL     1      -5.975  10.436  69.264  1.00  0.00    -0.037 C  
ENDROOT
BRANCH   2   3
HETATM    3  C   UNL     1      -7.172  11.301  68.874  1.00  0.00    -0.112 C  
BRANCH   3   4
HETATM    4  C   UNL     1      -8.482  10.497  68.797  1.00  0.00    -0.141 C  
BRANCH   4   5
HETATM    5  N   UNL     1      -8.687   9.776  67.518  1.00  0.00    -0.125 NA 
HETATM    6  C   UNL     1      -8.070   8.435  67.530  1.00  0.00    -0.110 C  
HETATM    7  C   UNL     1      -8.733   7.462  68.510  1.00  0.00    -0.127 C  
HETATM    8  C   UNL     1     -10.237   7.356  68.264  1.00  0.00    -0.213 C  
HETATM    9  C   UNL     1     -10.902   8.727  68.142  1.00  0.00    -0.038 C  
HETATM   10  C   UNL     1     -10.133   9.619  67.157  1.00  0.00    -0.218 C  
BRANCH  10  11
HETATM   11  C   UNL     1     -10.821  10.983  66.900  1.00  0.00    -0.269 C  
HETATM   12  N   UNL     1     -10.279  11.651  65.811  1.00  0.00    -0.231 N  
HETATM   13  O   UNL     1     -11.799  11.353  67.547  1.00  0.00    -0.614 OA 
HETATM   14  H   UNL     1      -9.565  11.150  65.282  1.00  0.00     0.000 HD 
BRANCH  12  15
HETATM   15  C   UNL     1     -10.606  12.947  65.352  1.00  0.00    -0.289 A  
HETATM   16  C   UNL     1     -11.602  13.185  64.379  1.00  0.00    -0.422 A  
HETATM   17  C   UNL     1     -12.424  12.125  63.699  1.00  0.00    -0.658 C  
HETATM   18  C   UNL     1     -11.914  14.512  64.021  1.00  0.00    -0.238 A  
HETATM   19  C   UNL     1     -11.289  15.593  64.638  1.00  0.00    -0.355 A  
HETATM   20  C   UNL     1     -10.318  15.361  65.602  1.00  0.00    -0.395 A  
HETATM   21  C   UNL     1      -9.968  14.052  65.971  1.00  0.00    -0.331 A  
HETATM   22  C   UNL     1      -8.849  13.884  66.970  1.00  0.00    -0.231 C  
ENDBRANCH  12  15
ENDBRANCH  10  11
ENDBRANCH   4   5
ENDBRANCH   3   4
ENDBRANCH   2   3
TORSDOF 5
ENDMDL
MODEL      143
REMARK 921   NORMALIZED FREE ENERGY PREDICTED BY IDOCK:   -3.91 KCAL/MOL
REMARK 922        TOTAL FREE ENERGY PREDICTED BY IDOCK:   -6.00 KCAL/MOL
REMARK 923 INTER-LIGAND FREE ENERGY PREDICTED BY IDOCK:   -5.40 KCAL/MOL
REMARK 924 INTRA-LIGAND FREE ENERGY PREDICTED BY IDOCK:   -0.60 KCAL/MOL
REMARK 927      BINDING AFFINITY PREDICTED BY RF-SCORE:    0.00 PKD
ROOT
HETATM    1  C   UNL     1      -5.366  12.383  69.416  1.00  0.00    -0.072 C  
HETATM    2  C   UNL     1      -6.450  11.422  69.885  1.00  0.00    -0.118 C  
ENDROOT
BRANCH   2   3
HETATM    3  C   UNL     1      -6.641  10.266  68.905  1.00  0.00    -0.052 C  
BRANCH   3   4
HETATM    4  C   UNL     1      -7.959  10.369  68.117  1.00  0.00    -0.110 C  
BRANCH   4   5
HETATM    5  N   UNL     1      -7.922  11.317  66.979  1.00  0.00    -0.143 NA 
HETATM    6  C   UNL     1      -7.544  10.657  65.715  1.00  0.00    -0.120 C  
HETATM    7  C   UNL     1      -8.584   9.653  65.210  1.00  0.00    -0.169 C  
HETATM    8  C   UNL     1      -9.965  10.292  65.085  1.00  0.00    -0.395 C  
HETATM    9  C   UNL     1     -10.357  11.076  66.338  1.00  0.00    -0.302 C  
HETATM   10  C   UNL     1      -9.226  12.025  66.762  1.00  0.00    -0.201 C  
BRANCH  10  11
HETATM   11  C   UNL     1      -9.604  12.932  67.958  1.00  0.00    -0.221 C  
HETATM   12  N   UNL     1     -10.923  12.760  68.356  1.00  0.00    -0.242 N  
HETATM   13  O   UNL     1      -8.776  13.639  68.528  1.00  0.00    -0.168 OA 
HETATM   14  H   UNL     1     -11.449  12.029  67.876  1.00  0.00     0.000 HD 
BRANCH  12  15
HETATM   15  C   UNL     1     -11.619  13.483  69.350  1.00  0.00    -0.312 A  
HETATM   16  C   UNL     1     -11.795  14.884  69.295  1.00  0.00    -0.350 A  
HETATM   17  C   UNL     1     -11.269  15.784  68.211  1.00  0.00    -0.356 C  
HETATM   18  C   UNL     1     -12.558  15.524  70.293  1.00  0.00    -0.362 A  
HETATM   19  C   UNL     1     -13.175  14.797  71.307  1.00  0.00    -0.447 A  
HETATM   20  C   UNL     1     -13.013  13.420  71.357  1.00  0.00    -0.412 A  
HETATM   21  C   UNL     1     -12.244  12.751  70.391  1.00  0.00    -0.371 A  
HETATM   22  C   UNL     1     -12.053  11.262  70.560  1.00  0.00    -0.481 C  
ENDBRANCH  12  15
ENDBRANCH  10  11
ENDBRANCH   4   5
ENDBRANCH   3   4
ENDBRANCH   2   3
TORSDOF 5
ENDMDL
MODEL      144
REMARK 921   NORMALIZED FREE ENERGY PREDICTED BY IDOCK:   -3.91 KCAL/MOL
REMARK 922        TOTAL FREE ENERGY PREDICTED BY IDOCK:   -6.00 KCAL/MOL
REMARK 923 INTER-LIGAND FREE ENERGY PREDICTED BY IDOCK:   -5.74 KCAL/MOL
REMARK 924 INTRA-LIGAND FREE ENERGY PREDICTED BY IDOCK:   -0.25 KCAL/MOL
REMARK 927      BINDING AFFINITY PREDICTED BY RF-SCORE:    0.00 PKD
ROOT
HETATM    1  C   UNL     1      -5.269  14.428  69.427  1.00  0.00    -0.089 C  
HETATM    2  C   UNL     1      -6.229  15.581  69.166  1.00  0.00    -0.116 C  
ENDROOT
BRANCH   2   3
HETATM    3  C   UNL     1      -5.778  16.431  67.980  1.00  0.00    -0.121 C  
BRANCH   3   4
HETATM    4  C   UNL     1      -6.888  17.365  67.466  1.00  0.00    -0.155 C  
BRANCH   4   5
HETATM    5  N   UNL     1      -7.455  18.270  68.494  1.00  0.00    -0.280 NA 
HETATM    6  C   UNL     1      -6.464  19.248  68.983  1.00  0.00    -0.289 C  
HETATM    7  C   UNL     1      -6.028  20.264  67.925  1.00  0.00    -0.261 C  
HETATM    8  C   UNL     1      -7.228  20.983  67.310  1.00  0.00    -0.363 C  
HETATM    9  C   UNL     1      -8.328  20.011  66.881  1.00  0.00    -0.376 C  
HETATM   10  C   UNL     1      -8.656  19.027  68.012  1.00  0.00    -0.302 C  
BRANCH  10  11
HETATM   11  C   UNL     1      -9.843  18.089  67.683  1.00  0.00    -0.305 C  
HETATM   12  N   UNL     1      -9.628  16.790  68.122  1.00  0.00    -0.236 N  
HETATM   13  O   UNL     1     -10.884  18.505  67.177  1.00  0.00    -0.391 OA 
HETATM   14  H   UNL     1      -8.773  16.628  68.656  1.00  0.00     0.000 HD 
BRANCH  12  15
HETATM   15  C   UNL     1     -10.459  15.666  67.914  1.00  0.00    -0.267 A  
HETATM   16  C   UNL     1     -11.308  15.146  68.916  1.00  0.00    -0.314 A  
HETATM   17  C   UNL     1     -11.437  15.687  70.313  1.00  0.00    -0.361 C  
HETATM   18  C   UNL     1     -12.155  14.062  68.609  1.00  0.00    -0.332 A  
HETATM   19  C   UNL     1     -12.200  13.521  67.327  1.00  0.00    -0.305 A  
HETATM   20  C   UNL     1     -11.374  14.037  66.338  1.00  0.00    -0.338 A  
HETATM   21  C   UNL     1     -10.504  15.105  66.612  1.00  0.00    -0.287 A  
HETATM   22  C   UNL     1      -9.584  15.557  65.504  1.00  0.00    -0.257 C  
ENDBRANCH  12  15
ENDBRANCH  10  11
ENDBRANCH   4   5
ENDBRANCH   3   4
ENDBRANCH   2   3
TORSDOF 5
ENDMDL
MODEL      145
REMARK 921   NORMALIZED FREE ENERGY PREDICTED BY IDOCK:   -3.91 KCAL/MOL
REMARK 922        TOTAL FREE ENERGY PREDICTED BY IDOCK:   -6.00 KCAL/MOL
REMARK 923 INTER-LIGAND FREE ENERGY PREDICTED BY IDOCK:   -5.54 KCAL/MOL
REMARK 924 INTRA-LIGAND FREE ENERGY PREDICTED BY IDOCK:   -0.46 KCAL/MOL
REMARK 927      BINDING AFFINITY PREDICTED BY RF-SCORE:    0.00 PKD
ROOT
HETATM    1  C   UNL     1     -10.610   7.534  71.065  1.00  0.00    -0.230 C  
HETATM    2  C   UNL     1     -10.288   8.963  71.481  1.00  0.00    -0.394 C  
ENDROOT
BRANCH   2   3
HETATM    3  C   UNL     1      -9.199   9.573  70.601  1.00  0.00    -0.243 C  
BRANCH   3   4
HETATM    4  C   UNL     1      -9.758  10.184  69.303  1.00  0.00    -0.224 C  
BRANCH   4   5
HETATM    5  N   UNL     1      -8.765  10.322  68.212  1.00  0.00    -0.123 NA 
HETATM    6  C   UNL     1      -7.881   9.145  68.110  1.00  0.00    -0.099 C  
HETATM    7  C   UNL     1      -8.604   7.868  67.672  1.00  0.00    -0.127 C  
HETATM    8  C   UNL     1      -9.366   8.078  66.365  1.00  0.00    -0.259 C  
HETATM    9  C   UNL     1     -10.219   9.346  66.388  1.00  0.00    -0.300 C  
HETATM   10  C   UNL     1      -9.394  10.548  66.870  1.00  0.00    -0.159 C  
BRANCH  10  11
HETATM   11  C   UNL     1     -10.169  11.887  66.807  1.00  0.00    -0.206 C  
HETATM   12  N   UNL     1      -9.500  12.850  66.064  1.00  0.00    -0.438 N  
HETATM   13  O   UNL     1     -11.292  12.015  67.290  1.00  0.00    -0.289 OA 
HETATM   14  H   UNL     1      -8.641  12.549  65.602  1.00  0.00     0.000 HD 
BRANCH  12  15
HETATM   15  C   UNL     1      -9.874  14.199  65.874  1.00  0.00    -0.289 A  
HETATM   16  C   UNL     1     -10.941  14.585  65.031  1.00  0.00    -0.408 A  
HETATM   17  C   UNL     1     -11.796  13.647  64.226  1.00  0.00    -0.464 C  
HETATM   18  C   UNL     1     -11.294  15.947  64.946  1.00  0.00    -0.259 A  
HETATM   19  C   UNL     1     -10.640  16.912  65.707  1.00  0.00    -0.238 A  
HETATM   20  C   UNL     1      -9.599  16.534  66.543  1.00  0.00    -0.292 A  
HETATM   21  C   UNL     1      -9.207  15.188  66.640  1.00  0.00    -0.298 A  
HETATM   22  C   UNL     1      -8.017  14.869  67.513  1.00  0.00    -0.198 C  
ENDBRANCH  12  15
ENDBRANCH  10  11
ENDBRANCH   4   5
ENDBRANCH   3   4
ENDBRANCH   2   3
TORSDOF 5
ENDMDL
MODEL      146
REMARK 921   NORMALIZED FREE ENERGY PREDICTED BY IDOCK:   -3.90 KCAL/MOL
REMARK 922        TOTAL FREE ENERGY PREDICTED BY IDOCK:   -5.98 KCAL/MOL
REMARK 923 INTER-LIGAND FREE ENERGY PREDICTED BY IDOCK:   -5.06 KCAL/MOL
REMARK 924 INTRA-LIGAND FREE ENERGY PREDICTED BY IDOCK:   -0.92 KCAL/MOL
REMARK 927      BINDING AFFINITY PREDICTED BY RF-SCORE:    0.00 PKD
ROOT
HETATM    1  C   UNL     1     -11.607   6.874  70.562  1.00  0.00    -0.396 C  
HETATM    2  C   UNL     1     -10.280   7.142  71.259  1.00  0.00    -0.199 C  
ENDROOT
BRANCH   2   3
HETATM    3  C   UNL     1      -9.252   7.742  70.301  1.00  0.00    -0.156 C  
BRANCH   3   4
HETATM    4  C   UNL     1      -9.480   7.309  68.842  1.00  0.00    -0.143 C  
BRANCH   4   5
HETATM    5  N   UNL     1      -8.255   6.867  68.134  1.00  0.00    -0.118 NA 
HETATM    6  C   UNL     1      -7.965   5.439  68.363  1.00  0.00    -0.088 C  
HETATM    7  C   UNL     1      -9.001   4.493  67.748  1.00  0.00    -0.131 C  
HETATM    8  C   UNL     1      -9.194   4.767  66.258  1.00  0.00    -0.141 C  
HETATM    9  C   UNL     1      -9.397   6.253  65.962  1.00  0.00    -0.068 C  
HETATM   10  C   UNL     1      -8.317   7.097  66.654  1.00  0.00    -0.114 C  
BRANCH  10  11
HETATM   11  C   UNL     1      -8.398   8.603  66.301  1.00  0.00    -0.122 C  
HETATM   12  N   UNL     1      -9.594   8.937  65.682  1.00  0.00    -0.453 N  
HETATM   13  O   UNL     1      -7.524   9.400  66.635  1.00  0.00    -0.092 OA 
HETATM   14  H   UNL     1     -10.286   8.191  65.600  1.00  0.00     0.000 HD 
BRANCH  12  15
HETATM   15  C   UNL     1      -9.963  10.194  65.152  1.00  0.00    -0.309 A  
HETATM   16  C   UNL     1      -9.703  10.566  63.813  1.00  0.00    -0.385 A  
HETATM   17  C   UNL     1      -9.004   9.710  62.794  1.00  0.00    -0.264 C  
HETATM   18  C   UNL     1     -10.160  11.813  63.343  1.00  0.00    -0.470 A  
HETATM   19  C   UNL     1     -10.898  12.667  64.158  1.00  0.00    -0.431 A  
HETATM   20  C   UNL     1     -11.164  12.299  65.469  1.00  0.00    -0.376 A  
HETATM   21  C   UNL     1     -10.709  11.072  65.979  1.00  0.00    -0.242 A  
HETATM   22  C   UNL     1     -10.973  10.781  67.437  1.00  0.00    -0.361 C  
ENDBRANCH  12  15
ENDBRANCH  10  11
ENDBRANCH   4   5
ENDBRANCH   3   4
ENDBRANCH   2   3
TORSDOF 5
ENDMDL
MODEL      147
REMARK 921   NORMALIZED FREE ENERGY PREDICTED BY IDOCK:   -3.87 KCAL/MOL
REMARK 922        TOTAL FREE ENERGY PREDICTED BY IDOCK:   -5.95 KCAL/MOL
REMARK 923 INTER-LIGAND FREE ENERGY PREDICTED BY IDOCK:   -5.11 KCAL/MOL
REMARK 924 INTRA-LIGAND FREE ENERGY PREDICTED BY IDOCK:   -0.84 KCAL/MOL
REMARK 927      BINDING AFFINITY PREDICTED BY RF-SCORE:    0.00 PKD
ROOT
HETATM    1  C   UNL     1     -10.501  11.875  66.260  1.00  0.00    -0.274 C  
HETATM    2  C   UNL     1     -10.721  11.252  64.888  1.00  0.00    -0.337 C  
ENDROOT
BRANCH   2   3
HETATM    3  C   UNL     1      -9.606  10.271  64.531  1.00  0.00    -0.378 C  
BRANCH   3   4
HETATM    4  C   UNL     1      -9.023   9.561  65.766  1.00  0.00    -0.179 C  
BRANCH   4   5
HETATM    5  N   UNL     1      -8.831   8.101  65.601  1.00  0.00    -0.153 NA 
HETATM    6  C   UNL     1      -7.620   7.782  64.821  1.00  0.00    -0.108 C  
HETATM    7  C   UNL     1      -6.315   8.159  65.529  1.00  0.00    -0.048 C  
HETATM    8  C   UNL     1      -6.233   7.536  66.921  1.00  0.00    -0.048 C  
HETATM    9  C   UNL     1      -7.511   7.754  67.731  1.00  0.00    -0.104 C  
HETATM   10  C   UNL     1      -8.749   7.369  66.907  1.00  0.00    -0.126 C  
BRANCH  10  11
HETATM   11  C   UNL     1     -10.070   7.457  67.710  1.00  0.00    -0.184 C  
HETATM   12  N   UNL     1      -9.878   7.960  68.989  1.00  0.00    -0.167 N  
HETATM   13  O   UNL     1     -11.160   7.196  67.204  1.00  0.00    -0.326 OA 
HETATM   14  H   UNL     1      -8.933   8.270  69.217  1.00  0.00     0.000 HD 
BRANCH  12  15
HETATM   15  C   UNL     1     -10.845   8.093  70.012  1.00  0.00    -0.233 A  
HETATM   16  C   UNL     1     -11.302   6.997  70.778  1.00  0.00    -0.339 A  
HETATM   17  C   UNL     1     -10.852   5.572  70.612  1.00  0.00    -0.257 C  
HETATM   18  C   UNL     1     -12.221   7.222  71.823  1.00  0.00    -0.368 A  
HETATM   19  C   UNL     1     -12.653   8.506  72.141  1.00  0.00    -0.431 A  
HETATM   20  C   UNL     1     -12.197   9.585  71.397  1.00  0.00    -0.455 A  
HETATM   21  C   UNL     1     -11.296   9.397  70.336  1.00  0.00    -0.295 A  
HETATM   22  C   UNL     1     -10.908  10.612  69.527  1.00  0.00    -0.303 C  
ENDBRANCH  12  15
ENDBRANCH  10  11
ENDBRANCH   4   5
ENDBRANCH   3   4
ENDBRANCH   2   3
TORSDOF 5
ENDMDL
MODEL      148
REMARK 921   NORMALIZED FREE ENERGY PREDICTED BY IDOCK:   -3.87 KCAL/MOL
REMARK 922        TOTAL FREE ENERGY PREDICTED BY IDOCK:   -5.95 KCAL/MOL
REMARK 923 INTER-LIGAND FREE ENERGY PREDICTED BY IDOCK:   -6.19 KCAL/MOL
REMARK 924 INTRA-LIGAND FREE ENERGY PREDICTED BY IDOCK:    0.24 KCAL/MOL
REMARK 927      BINDING AFFINITY PREDICTED BY RF-SCORE:    0.00 PKD
ROOT
HETATM    1  C   UNL     1     -12.216  15.568  72.062  1.00  0.00    -0.484 C  
HETATM    2  C   UNL     1     -11.170  15.330  70.981  1.00  0.00    -0.378 C  
ENDROOT
BRANCH   2   3
HETATM    3  C   UNL     1     -11.722  15.630  69.589  1.00  0.00    -0.373 C  
BRANCH   3   4
HETATM    4  C   UNL     1     -10.623  16.038  68.592  1.00  0.00    -0.266 C  
BRANCH   4   5
HETATM    5  N   UNL     1     -10.012  14.906  67.855  1.00  0.00    -0.218 NA 
HETATM    6  C   UNL     1     -11.025  13.972  67.329  1.00  0.00    -0.295 C  
HETATM    7  C   UNL     1     -11.909  14.575  66.233  1.00  0.00    -0.354 C  
HETATM    8  C   UNL     1     -11.072  15.153  65.093  1.00  0.00    -0.410 C  
HETATM    9  C   UNL     1      -9.942  16.049  65.600  1.00  0.00    -0.346 C  
HETATM   10  C   UNL     1      -9.148  15.348  66.712  1.00  0.00    -0.259 C  
BRANCH  10  11
HETATM   11  C   UNL     1      -7.917  16.157  67.189  1.00  0.00    -0.199 C  
HETATM   12  N   UNL     1      -8.197  16.936  68.303  1.00  0.00    -0.214 N  
HETATM   13  O   UNL     1      -6.808  16.023  66.675  1.00  0.00    -0.224 OA 
HETATM   14  H   UNL     1      -9.129  16.833  68.706  1.00  0.00     0.000 HD 
BRANCH  12  15
HETATM   15  C   UNL     1      -7.336  17.857  68.942  1.00  0.00    -0.248 A  
HETATM   16  C   UNL     1      -6.273  17.454  69.782  1.00  0.00    -0.195 A  
HETATM   17  C   UNL     1      -5.924  16.031  70.120  1.00  0.00    -0.135 C  
HETATM   18  C   UNL     1      -5.419  18.432  70.331  1.00  0.00    -0.242 A  
HETATM   19  C   UNL     1      -5.577  19.781  70.028  1.00  0.00    -0.286 A  
HETATM   20  C   UNL     1      -6.614  20.178  69.195  1.00  0.00    -0.311 A  
HETATM   21  C   UNL     1      -7.496  19.234  68.645  1.00  0.00    -0.380 A  
HETATM   22  C   UNL     1      -8.643  19.754  67.811  1.00  0.00    -0.373 C  
ENDBRANCH  12  15
ENDBRANCH  10  11
ENDBRANCH   4   5
ENDBRANCH   3   4
ENDBRANCH   2   3
TORSDOF 5
ENDMDL
MODEL      149
REMARK 921   NORMALIZED FREE ENERGY PREDICTED BY IDOCK:   -3.83 KCAL/MOL
REMARK 922        TOTAL FREE ENERGY PREDICTED BY IDOCK:   -5.89 KCAL/MOL
REMARK 923 INTER-LIGAND FREE ENERGY PREDICTED BY IDOCK:   -5.03 KCAL/MOL
REMARK 924 INTRA-LIGAND FREE ENERGY PREDICTED BY IDOCK:   -0.86 KCAL/MOL
REMARK 927      BINDING AFFINITY PREDICTED BY RF-SCORE:    0.00 PKD
ROOT
HETATM    1  C   UNL     1      -9.440  11.941  67.998  1.00  0.00    -0.197 C  
HETATM    2  C   UNL     1     -10.546  12.495  68.886  1.00  0.00    -0.152 C  
ENDROOT
BRANCH   2   3
HETATM    3  C   UNL     1     -11.896  11.856  68.569  1.00  0.00    -0.357 C  
BRANCH   3   4
HETATM    4  C   UNL     1     -12.121  10.538  69.331  1.00  0.00    -0.104 C  
BRANCH   4   5
HETATM    5  N   UNL     1     -11.559  10.519  70.703  1.00  0.00    -0.339 NA 
HETATM    6  C   UNL     1     -12.348  11.342  71.640  1.00  0.00    -0.002 C  
HETATM    7  C   UNL     1     -13.753  10.796  71.905  1.00  0.00    -0.004 C  
HETATM    8  C   UNL     1     -13.711   9.343  72.376  1.00  0.00    -0.469 C  
HETATM    9  C   UNL     1     -12.820   8.473  71.490  1.00  0.00    -0.335 C  
HETATM   10  C   UNL     1     -11.453   9.136  71.274  1.00  0.00    -0.335 C  
BRANCH  10  11
HETATM   11  C   UNL     1     -10.461   8.252  70.479  1.00  0.00    -0.210 C  
HETATM   12  N   UNL     1     -11.087   7.172  69.871  1.00  0.00    -0.345 N  
HETATM   13  O   UNL     1      -9.278   8.557  70.343  1.00  0.00    -0.151 OA 
HETATM   14  H   UNL     1     -12.103   7.130  69.957  1.00  0.00     0.000 HD 
BRANCH  12  15
HETATM   15  C   UNL     1     -10.475   6.124  69.147  1.00  0.00    -0.251 A  
HETATM   16  C   UNL     1     -10.011   4.939  69.761  1.00  0.00    -0.314 A  
HETATM   17  C   UNL     1     -10.086   4.636  71.232  1.00  0.00    -0.245 C  
HETATM   18  C   UNL     1      -9.471   3.913  68.960  1.00  0.00    -0.240 A  
HETATM   19  C   UNL     1      -9.424   4.027  67.574  1.00  0.00    -0.231 A  
HETATM   20  C   UNL     1      -9.888   5.186  66.967  1.00  0.00    -0.197 A  
HETATM   21  C   UNL     1     -10.416   6.237  67.735  1.00  0.00    -0.289 A  
HETATM   22  C   UNL     1     -10.828   7.494  67.006  1.00  0.00    -0.264 C  
ENDBRANCH  12  15
ENDBRANCH  10  11
ENDBRANCH   4   5
ENDBRANCH   3   4
ENDBRANCH   2   3
TORSDOF 5
ENDMDL
MODEL      150
REMARK 921   NORMALIZED FREE ENERGY PREDICTED BY IDOCK:   -3.82 KCAL/MOL
REMARK 922        TOTAL FREE ENERGY PREDICTED BY IDOCK:   -5.89 KCAL/MOL
REMARK 923 INTER-LIGAND FREE ENERGY PREDICTED BY IDOCK:   -4.94 KCAL/MOL
REMARK 924 INTRA-LIGAND FREE ENERGY PREDICTED BY IDOCK:   -0.95 KCAL/MOL
REMARK 927      BINDING AFFINITY PREDICTED BY RF-SCORE:    0.00 PKD
ROOT
HETATM    1  C   UNL     1      -8.667   9.551  69.572  1.00  0.00    -0.178 C  
HETATM    2  C   UNL     1      -7.516   9.813  68.610  1.00  0.00    -0.075 C  
ENDROOT
BRANCH   2   3
HETATM    3  C   UNL     1      -6.501  10.791  69.200  1.00  0.00    -0.059 C  
BRANCH   3   4
HETATM    4  C   UNL     1      -6.524  12.161  68.498  1.00  0.00    -0.059 C  
BRANCH   4   5
HETATM    5  N   UNL     1      -7.213  13.230  69.259  1.00  0.00     0.058 NA 
HETATM    6  C   UNL     1      -6.270  14.059  70.034  1.00  0.00    -0.142 C  
HETATM    7  C   UNL     1      -5.329  14.897  69.163  1.00  0.00    -0.093 C  
HETATM    8  C   UNL     1      -6.105  15.758  68.168  1.00  0.00    -0.133 C  
HETATM    9  C   UNL     1      -7.166  14.958  67.414  1.00  0.00    -0.213 C  
HETATM   10  C   UNL     1      -8.026  14.140  68.388  1.00  0.00    -0.142 C  
BRANCH  10  11
HETATM   11  C   UNL     1      -9.195  13.396  67.697  1.00  0.00    -0.212 C  
HETATM   12  N   UNL     1      -9.151  13.511  66.315  1.00  0.00    -0.476 N  
HETATM   13  O   UNL     1      -9.996  12.709  68.329  1.00  0.00    -0.223 OA 
HETATM   14  H   UNL     1      -8.341  13.995  65.926  1.00  0.00     0.000 HD 
BRANCH  12  15
HETATM   15  C   UNL     1     -10.102  13.034  65.385  1.00  0.00    -0.252 A  
HETATM   16  C   UNL     1     -11.079  13.867  64.793  1.00  0.00    -0.386 A  
HETATM   17  C   UNL     1     -11.253  15.334  65.070  1.00  0.00    -0.409 C  
HETATM   18  C   UNL     1     -11.950  13.328  63.825  1.00  0.00    -0.551 A  
HETATM   19  C   UNL     1     -11.840  12.003  63.411  1.00  0.00    -0.542 A  
HETATM   20  C   UNL     1     -10.875  11.186  63.983  1.00  0.00    -0.351 A  
HETATM   21  C   UNL     1     -10.001  11.683  64.964  1.00  0.00    -0.297 A  
HETATM   22  C   UNL     1      -9.031  10.711  65.591  1.00  0.00    -0.203 C  
ENDBRANCH  12  15
ENDBRANCH  10  11
ENDBRANCH   4   5
ENDBRANCH   3   4
ENDBRANCH   2   3
TORSDOF 5
ENDMDL
MODEL      151
REMARK 921   NORMALIZED FREE ENERGY PREDICTED BY IDOCK:   -3.81 KCAL/MOL
REMARK 922        TOTAL FREE ENERGY PREDICTED BY IDOCK:   -5.87 KCAL/MOL
REMARK 923 INTER-LIGAND FREE ENERGY PREDICTED BY IDOCK:   -4.84 KCAL/MOL
REMARK 924 INTRA-LIGAND FREE ENERGY PREDICTED BY IDOCK:   -1.03 KCAL/MOL
REMARK 927      BINDING AFFINITY PREDICTED BY RF-SCORE:    0.00 PKD
ROOT
HETATM    1  C   UNL     1     -11.766   6.878  70.787  1.00  0.00    -0.417 C  
HETATM    2  C   UNL     1     -10.795   7.411  71.832  1.00  0.00    -0.262 C  
ENDROOT
BRANCH   2   3
HETATM    3  C   UNL     1      -9.874   8.481  71.249  1.00  0.00    -0.279 C  
BRANCH   3   4
HETATM    4  C   UNL     1      -9.624   8.291  69.742  1.00  0.00    -0.171 C  
BRANCH   4   5
HETATM    5  N   UNL     1      -8.215   8.004  69.385  1.00  0.00    -0.121 NA 
HETATM    6  C   UNL     1      -7.718   6.769  70.022  1.00  0.00    -0.102 C  
HETATM    7  C   UNL     1      -8.402   5.496  69.513  1.00  0.00    -0.102 C  
HETATM    8  C   UNL     1      -8.315   5.384  67.993  1.00  0.00    -0.098 C  
HETATM    9  C   UNL     1      -8.724   6.679  67.291  1.00  0.00    -0.118 C  
HETATM   10  C   UNL     1      -7.997   7.884  67.906  1.00  0.00    -0.128 C  
BRANCH  10  11
HETATM   11  C   UNL     1      -8.279   9.214  67.165  1.00  0.00    -0.113 C  
HETATM   12  N   UNL     1      -9.277   9.084  66.209  1.00  0.00    -0.189 N  
HETATM   13  O   UNL     1      -7.732  10.268  67.483  1.00  0.00    -0.094 OA 
HETATM   14  H   UNL     1      -9.741   8.176  66.158  1.00  0.00     0.000 HD 
BRANCH  12  15
HETATM   15  C   UNL     1      -9.723  10.067  65.297  1.00  0.00    -0.306 A  
HETATM   16  C   UNL     1     -10.587  11.121  65.671  1.00  0.00    -0.286 A  
HETATM   17  C   UNL     1     -11.153  11.334  67.047  1.00  0.00    -0.356 C  
HETATM   18  C   UNL     1     -10.934  12.099  64.717  1.00  0.00    -0.356 A  
HETATM   19  C   UNL     1     -10.409  12.070  63.428  1.00  0.00    -0.468 A  
HETATM   20  C   UNL     1      -9.551  11.042  63.062  1.00  0.00    -0.386 A  
HETATM   21  C   UNL     1      -9.198  10.040  63.980  1.00  0.00    -0.318 A  
HETATM   22  C   UNL     1      -8.322   8.915  63.481  1.00  0.00    -0.168 C  
ENDBRANCH  12  15
ENDBRANCH  10  11
ENDBRANCH   4   5
ENDBRANCH   3   4
ENDBRANCH   2   3
TORSDOF 5
ENDMDL
MODEL      152
REMARK 921   NORMALIZED FREE ENERGY PREDICTED BY IDOCK:   -3.79 KCAL/MOL
REMARK 922        TOTAL FREE ENERGY PREDICTED BY IDOCK:   -5.84 KCAL/MOL
REMARK 923 INTER-LIGAND FREE ENERGY PREDICTED BY IDOCK:   -5.62 KCAL/MOL
REMARK 924 INTRA-LIGAND FREE ENERGY PREDICTED BY IDOCK:   -0.23 KCAL/MOL
REMARK 927      BINDING AFFINITY PREDICTED BY RF-SCORE:    0.00 PKD
ROOT
HETATM    1  C   UNL     1      -6.937  15.124  69.433  1.00  0.00    -0.178 C  
HETATM    2  C   UNL     1      -6.878  13.668  68.992  1.00  0.00    -0.110 C  
ENDROOT
BRANCH   2   3
HETATM    3  C   UNL     1      -7.333  13.499  67.544  1.00  0.00    -0.174 C  
BRANCH   3   4
HETATM    4  C   UNL     1      -8.406  12.408  67.384  1.00  0.00    -0.180 C  
BRANCH   4   5
HETATM    5  N   UNL     1      -9.582  12.568  68.271  1.00  0.00    -0.217 NA 
HETATM    6  C   UNL     1     -10.261  13.862  68.068  1.00  0.00    -0.246 C  
HETATM    7  C   UNL     1     -10.925  14.000  66.695  1.00  0.00    -0.300 C  
HETATM    8  C   UNL     1     -11.885  12.845  66.418  1.00  0.00    -0.478 C  
HETATM    9  C   UNL     1     -11.254  11.484  66.714  1.00  0.00    -0.350 C  
HETATM   10  C   UNL     1     -10.598  11.478  68.102  1.00  0.00    -0.196 C  
BRANCH  10  11
HETATM   11  C   UNL     1     -10.041  10.093  68.510  1.00  0.00    -0.169 C  
HETATM   12  N   UNL     1     -11.039   9.228  68.939  1.00  0.00    -0.447 N  
HETATM   13  O   UNL     1      -8.857   9.796  68.364  1.00  0.00    -0.119 OA 
HETATM   14  H   UNL     1     -11.997   9.571  68.868  1.00  0.00     0.000 HD 
BRANCH  12  15
HETATM   15  C   UNL     1     -10.876   7.925  69.462  1.00  0.00    -0.136 A  
HETATM   16  C   UNL     1     -10.752   6.781  68.641  1.00  0.00    -0.279 A  
HETATM   17  C   UNL     1     -10.787   6.782  67.138  1.00  0.00    -0.462 C  
HETATM   18  C   UNL     1     -10.527   5.524  69.238  1.00  0.00    -0.336 A  
HETATM   19  C   UNL     1     -10.385   5.395  70.617  1.00  0.00    -0.333 A  
HETATM   20  C   UNL     1     -10.497   6.518  71.424  1.00  0.00    -0.246 A  
HETATM   21  C   UNL     1     -10.739   7.784  70.866  1.00  0.00    -0.229 A  
HETATM   22  C   UNL     1     -10.924   8.942  71.817  1.00  0.00    -0.431 C  
ENDBRANCH  12  15
ENDBRANCH  10  11
ENDBRANCH   4   5
ENDBRANCH   3   4
ENDBRANCH   2   3
TORSDOF 5
ENDMDL
MODEL      153
REMARK 921   NORMALIZED FREE ENERGY PREDICTED BY IDOCK:   -3.77 KCAL/MOL
REMARK 922        TOTAL FREE ENERGY PREDICTED BY IDOCK:   -5.82 KCAL/MOL
REMARK 923 INTER-LIGAND FREE ENERGY PREDICTED BY IDOCK:   -5.37 KCAL/MOL
REMARK 924 INTRA-LIGAND FREE ENERGY PREDICTED BY IDOCK:   -0.46 KCAL/MOL
REMARK 927      BINDING AFFINITY PREDICTED BY RF-SCORE:    0.00 PKD
ROOT
HETATM    1  C   UNL     1      -9.536  19.101  66.945  1.00  0.00    -0.379 C  
HETATM    2  C   UNL     1     -10.382  18.288  67.916  1.00  0.00    -0.417 C  
ENDROOT
BRANCH   2   3
HETATM    3  C   UNL     1     -10.594  16.860  67.418  1.00  0.00    -0.294 C  
BRANCH   3   4
HETATM    4  C   UNL     1     -11.509  16.040  68.344  1.00  0.00    -0.331 C  
BRANCH   4   5
HETATM    5  N   UNL     1     -10.813  15.405  69.489  1.00  0.00    -0.248 NA 
HETATM    6  C   UNL     1     -11.188  16.019  70.778  1.00  0.00    -0.352 C  
HETATM    7  C   UNL     1     -12.649  15.782  71.171  1.00  0.00    -0.487 C  
HETATM    8  C   UNL     1     -12.996  14.295  71.167  1.00  0.00    -0.423 C  
HETATM    9  C   UNL     1     -12.533  13.595  69.890  1.00  0.00    -0.226 C  
HETATM   10  C   UNL     1     -11.066  13.930  69.586  1.00  0.00    -0.072 C  
BRANCH  10  11
HETATM   11  C   UNL     1     -10.501  13.161  68.367  1.00  0.00    -0.253 C  
HETATM   12  N   UNL     1      -9.443  12.331  68.711  1.00  0.00    -0.403 N  
HETATM   13  O   UNL     1     -11.020  13.228  67.254  1.00  0.00    -0.261 OA 
HETATM   14  H   UNL     1      -9.217  12.273  69.704  1.00  0.00     0.000 HD 
BRANCH  12  15
HETATM   15  C   UNL     1      -8.644  11.556  67.839  1.00  0.00    -0.143 A  
HETATM   16  C   UNL     1      -7.411  12.015  67.322  1.00  0.00    -0.158 A  
HETATM   17  C   UNL     1      -6.796  13.358  67.603  1.00  0.00    -0.172 C  
HETATM   18  C   UNL     1      -6.641  11.157  66.511  1.00  0.00    -0.124 A  
HETATM   19  C   UNL     1      -7.053   9.854  66.244  1.00  0.00    -0.101 A  
HETATM   20  C   UNL     1      -8.258   9.398  66.759  1.00  0.00    -0.112 A  
HETATM   21  C   UNL     1      -9.060  10.231  67.556  1.00  0.00    -0.146 A  
HETATM   22  C   UNL     1     -10.392   9.686  68.014  1.00  0.00    -0.262 C  
ENDBRANCH  12  15
ENDBRANCH  10  11
ENDBRANCH   4   5
ENDBRANCH   3   4
ENDBRANCH   2   3
TORSDOF 5
ENDMDL
MODEL      154
REMARK 921   NORMALIZED FREE ENERGY PREDICTED BY IDOCK:   -3.77 KCAL/MOL
REMARK 922        TOTAL FREE ENERGY PREDICTED BY IDOCK:   -5.82 KCAL/MOL
REMARK 923 INTER-LIGAND FREE ENERGY PREDICTED BY IDOCK:   -4.93 KCAL/MOL
REMARK 924 INTRA-LIGAND FREE ENERGY PREDICTED BY IDOCK:   -0.89 KCAL/MOL
REMARK 927      BINDING AFFINITY PREDICTED BY RF-SCORE:    0.00 PKD
ROOT
HETATM    1  C   UNL     1      -5.759   8.474  71.087  1.00  0.00    -0.035 C  
HETATM    2  C   UNL     1      -7.117   8.379  71.768  1.00  0.00    -0.098 C  
ENDROOT
BRANCH   2   3
HETATM    3  C   UNL     1      -8.235   8.117  70.760  1.00  0.00    -0.111 C  
BRANCH   3   4
HETATM    4  C   UNL     1      -9.420   9.085  70.927  1.00  0.00    -0.267 C  
BRANCH   4   5
HETATM    5  N   UNL     1     -10.695   8.599  70.348  1.00  0.00    -0.220 NA 
HETATM    6  C   UNL     1     -11.480   7.807  71.315  1.00  0.00    -0.269 C  
HETATM    7  C   UNL     1     -12.002   8.624  72.500  1.00  0.00    -0.358 C  
HETATM    8  C   UNL     1     -12.801   9.839  72.034  1.00  0.00    -0.491 C  
HETATM    9  C   UNL     1     -12.068  10.635  70.954  1.00  0.00    -0.489 C  
HETATM   10  C   UNL     1     -11.568   9.706  69.838  1.00  0.00    -0.030 C  
BRANCH  10  11
HETATM   11  C   UNL     1     -10.917  10.465  68.656  1.00  0.00    -0.243 C  
HETATM   12  N   UNL     1     -10.521  11.748  69.005  1.00  0.00    -0.380 N  
HETATM   13  O   UNL     1     -10.702   9.924  67.572  1.00  0.00    -0.258 OA 
HETATM   14  H   UNL     1     -10.636  12.007  69.985  1.00  0.00     0.000 HD 
BRANCH  12  15
HETATM   15  C   UNL     1      -9.976  12.738  68.156  1.00  0.00    -0.229 A  
HETATM   16  C   UNL     1     -10.778  13.619  67.395  1.00  0.00    -0.272 A  
HETATM   17  C   UNL     1     -12.281  13.621  67.368  1.00  0.00    -0.283 C  
HETATM   18  C   UNL     1     -10.159  14.621  66.622  1.00  0.00    -0.277 A  
HETATM   19  C   UNL     1      -8.777  14.786  66.625  1.00  0.00    -0.229 A  
HETATM   20  C   UNL     1      -7.988  13.929  67.380  1.00  0.00    -0.184 A  
HETATM   21  C   UNL     1      -8.569  12.907  68.148  1.00  0.00    -0.188 A  
HETATM   22  C   UNL     1      -7.638  11.969  68.879  1.00  0.00    -0.016 C  
ENDBRANCH  12  15
ENDBRANCH  10  11
ENDBRANCH   4   5
ENDBRANCH   3   4
ENDBRANCH   2   3
TORSDOF 5
ENDMDL
MODEL      155
REMARK 921   NORMALIZED FREE ENERGY PREDICTED BY IDOCK:   -3.77 KCAL/MOL
REMARK 922        TOTAL FREE ENERGY PREDICTED BY IDOCK:   -5.81 KCAL/MOL
REMARK 923 INTER-LIGAND FREE ENERGY PREDICTED BY IDOCK:   -4.93 KCAL/MOL
REMARK 924 INTRA-LIGAND FREE ENERGY PREDICTED BY IDOCK:   -0.88 KCAL/MOL
REMARK 927      BINDING AFFINITY PREDICTED BY RF-SCORE:    0.00 PKD
ROOT
HETATM    1  C   UNL     1      -6.077  12.343  68.779  1.00  0.00    -0.069 C  
HETATM    2  C   UNL     1      -6.806  13.369  67.923  1.00  0.00    -0.144 C  
ENDROOT
BRANCH   2   3
HETATM    3  C   UNL     1      -8.305  13.083  67.856  1.00  0.00    -0.170 C  
BRANCH   3   4
HETATM    4  C   UNL     1      -8.675  12.134  66.702  1.00  0.00    -0.153 C  
BRANCH   4   5
HETATM    5  N   UNL     1     -10.120  11.819  66.606  1.00  0.00    -0.201 NA 
HETATM    6  C   UNL     1     -10.891  12.922  66.000  1.00  0.00    -0.279 C  
HETATM    7  C   UNL     1     -10.559  13.168  64.525  1.00  0.00    -0.425 C  
HETATM    8  C   UNL     1     -10.709  11.893  63.697  1.00  0.00    -0.502 C  
HETATM    9  C   UNL     1     -10.009  10.697  64.342  1.00  0.00    -0.415 C  
HETATM   10  C   UNL     1     -10.399  10.572  65.822  1.00  0.00    -0.200 C  
BRANCH  10  11
HETATM   11  C   UNL     1      -9.814   9.311  66.505  1.00  0.00    -0.263 C  
HETATM   12  N   UNL     1     -10.408   9.052  67.732  1.00  0.00    -0.233 N  
HETATM   13  O   UNL     1      -8.988   8.591  65.949  1.00  0.00    -0.173 OA 
HETATM   14  H   UNL     1     -11.184   9.660  67.998  1.00  0.00     0.000 HD 
BRANCH  12  15
HETATM   15  C   UNL     1     -10.060   8.040  68.656  1.00  0.00    -0.199 A  
HETATM   16  C   UNL     1     -10.388   6.680  68.459  1.00  0.00    -0.216 A  
HETATM   17  C   UNL     1     -11.143   6.129  67.282  1.00  0.00    -0.334 C  
HETATM   18  C   UNL     1      -9.948   5.722  69.395  1.00  0.00    -0.244 A  
HETATM   19  C   UNL     1      -9.163   6.085  70.486  1.00  0.00    -0.168 A  
HETATM   20  C   UNL     1      -8.832   7.420  70.676  1.00  0.00    -0.150 A  
HETATM   21  C   UNL     1      -9.268   8.404  69.774  1.00  0.00    -0.157 A  
HETATM   22  C   UNL     1      -8.930   9.841  70.092  1.00  0.00    -0.235 C  
ENDBRANCH  12  15
ENDBRANCH  10  11
ENDBRANCH   4   5
ENDBRANCH   3   4
ENDBRANCH   2   3
TORSDOF 5
ENDMDL
MODEL      156
REMARK 921   NORMALIZED FREE ENERGY PREDICTED BY IDOCK:   -3.76 KCAL/MOL
REMARK 922        TOTAL FREE ENERGY PREDICTED BY IDOCK:   -5.80 KCAL/MOL
REMARK 923 INTER-LIGAND FREE ENERGY PREDICTED BY IDOCK:   -4.91 KCAL/MOL
REMARK 924 INTRA-LIGAND FREE ENERGY PREDICTED BY IDOCK:   -0.89 KCAL/MOL
REMARK 927      BINDING AFFINITY PREDICTED BY RF-SCORE:    0.00 PKD
ROOT
HETATM    1  C   UNL     1      -8.508  11.324  68.658  1.00  0.00    -0.143 C  
HETATM    2  C   UNL     1      -8.677   9.820  68.828  1.00  0.00    -0.128 C  
ENDROOT
BRANCH   2   3
HETATM    3  C   UNL     1      -9.990   9.330  68.221  1.00  0.00    -0.196 C  
BRANCH   3   4
HETATM    4  C   UNL     1     -11.014   8.904  69.289  1.00  0.00    -0.006 C  
BRANCH   4   5
HETATM    5  N   UNL     1     -10.764   9.466  70.637  1.00  0.00    -0.264 NA 
HETATM    6  C   UNL     1     -11.538  10.698  70.880  1.00  0.00    -0.217 C  
HETATM    7  C   UNL     1     -13.051  10.471  70.947  1.00  0.00    -0.390 C  
HETATM    8  C   UNL     1     -13.412   9.402  71.977  1.00  0.00    -0.522 C  
HETATM    9  C   UNL     1     -12.561   8.142  71.827  1.00  0.00    -0.360 C  
HETATM   10  C   UNL     1     -11.070   8.499  71.742  1.00  0.00    -0.307 C  
BRANCH  10  11
HETATM   11  C   UNL     1     -10.143   7.259  71.705  1.00  0.00    -0.184 C  
HETATM   12  N   UNL     1     -10.763   6.154  71.138  1.00  0.00    -0.246 N  
HETATM   13  O   UNL     1      -8.966   7.313  72.056  1.00  0.00    -0.129 OA 
HETATM   14  H   UNL     1     -11.699   6.303  70.760  1.00  0.00     0.000 HD 
BRANCH  12  15
HETATM   15  C   UNL     1     -10.243   4.844  71.026  1.00  0.00    -0.192 A  
HETATM   16  C   UNL     1     -10.207   3.940  72.112  1.00  0.00    -0.196 A  
HETATM   17  C   UNL     1     -10.688   4.236  73.505  1.00  0.00    -0.321 C  
HETATM   18  C   UNL     1      -9.733   2.630  71.902  1.00  0.00    -0.221 A  
HETATM   19  C   UNL     1      -9.338   2.197  70.639  1.00  0.00    -0.199 A  
HETATM   20  C   UNL     1      -9.383   3.080  69.569  1.00  0.00    -0.213 A  
HETATM   21  C   UNL     1      -9.833   4.399  69.744  1.00  0.00    -0.284 A  
HETATM   22  C   UNL     1      -9.778   5.319  68.547  1.00  0.00    -0.194 C  
ENDBRANCH  12  15
ENDBRANCH  10  11
ENDBRANCH   4   5
ENDBRANCH   3   4
ENDBRANCH   2   3
TORSDOF 5
ENDMDL
MODEL      157
REMARK 921   NORMALIZED FREE ENERGY PREDICTED BY IDOCK:   -3.73 KCAL/MOL
REMARK 922        TOTAL FREE ENERGY PREDICTED BY IDOCK:   -5.77 KCAL/MOL
REMARK 923 INTER-LIGAND FREE ENERGY PREDICTED BY IDOCK:   -4.81 KCAL/MOL
REMARK 924 INTRA-LIGAND FREE ENERGY PREDICTED BY IDOCK:   -0.96 KCAL/MOL
REMARK 927      BINDING AFFINITY PREDICTED BY RF-SCORE:    0.00 PKD
ROOT
HETATM    1  C   UNL     1      -6.876   6.439  67.558  1.00  0.00    -0.076 C  
HETATM    2  C   UNL     1      -7.985   5.952  66.635  1.00  0.00    -0.102 C  
ENDROOT
BRANCH   2   3
HETATM    3  C   UNL     1      -8.910   4.963  67.341  1.00  0.00    -0.103 C  
BRANCH   3   4
HETATM    4  C   UNL     1      -8.712   4.953  68.867  1.00  0.00    -0.089 C  
BRANCH   4   5
HETATM    5  N   UNL     1      -9.822   4.329  69.626  1.00  0.00    -0.212 NA 
HETATM    6  C   UNL     1      -9.416   3.064  70.269  1.00  0.00    -0.140 C  
HETATM    7  C   UNL     1      -8.380   3.244  71.382  1.00  0.00    -0.082 C  
HETATM    8  C   UNL     1      -8.855   4.246  72.432  1.00  0.00    -0.121 C  
HETATM    9  C   UNL     1      -9.382   5.537  71.804  1.00  0.00    -0.162 C  
HETATM   10  C   UNL     1     -10.387   5.227  70.685  1.00  0.00    -0.254 C  
BRANCH  10  11
HETATM   11  C   UNL     1     -11.046   6.493  70.085  1.00  0.00    -0.351 C  
HETATM   12  N   UNL     1     -10.635   7.655  70.724  1.00  0.00    -0.218 N  
HETATM   13  O   UNL     1     -11.769   6.445  69.092  1.00  0.00    -0.217 OA 
HETATM   14  H   UNL     1      -9.917   7.549  71.441  1.00  0.00     0.000 HD 
BRANCH  12  15
HETATM   15  C   UNL     1     -11.099   8.970  70.492  1.00  0.00    -0.254 A  
HETATM   16  C   UNL     1     -10.575   9.798  69.474  1.00  0.00    -0.253 A  
HETATM   17  C   UNL     1      -9.470   9.418  68.527  1.00  0.00    -0.150 C  
HETATM   18  C   UNL     1     -11.137  11.073  69.265  1.00  0.00    -0.312 A  
HETATM   19  C   UNL     1     -12.223  11.516  70.014  1.00  0.00    -0.354 A  
HETATM   20  C   UNL     1     -12.747  10.700  71.007  1.00  0.00    -0.512 A  
HETATM   21  C   UNL     1     -12.201   9.430  71.256  1.00  0.00    -0.425 A  
HETATM   22  C   UNL     1     -12.778   8.637  72.405  1.00  0.00    -0.423 C  
ENDBRANCH  12  15
ENDBRANCH  10  11
ENDBRANCH   4   5
ENDBRANCH   3   4
ENDBRANCH   2   3
TORSDOF 5
ENDMDL
MODEL      158
REMARK 921   NORMALIZED FREE ENERGY PREDICTED BY IDOCK:   -3.73 KCAL/MOL
REMARK 922        TOTAL FREE ENERGY PREDICTED BY IDOCK:   -5.77 KCAL/MOL
REMARK 923 INTER-LIGAND FREE ENERGY PREDICTED BY IDOCK:   -5.28 KCAL/MOL
REMARK 924 INTRA-LIGAND FREE ENERGY PREDICTED BY IDOCK:   -0.49 KCAL/MOL
REMARK 927      BINDING AFFINITY PREDICTED BY RF-SCORE:    0.00 PKD
ROOT
HETATM    1  C   UNL     1      -6.064  10.413  69.271  1.00  0.00    -0.038 C  
HETATM    2  C   UNL     1      -6.986   9.349  68.691  1.00  0.00    -0.065 C  
ENDROOT
BRANCH   2   3
HETATM    3  C   UNL     1      -8.131   9.971  67.894  1.00  0.00    -0.109 C  
BRANCH   3   4
HETATM    4  C   UNL     1      -9.233  10.552  68.798  1.00  0.00    -0.177 C  
BRANCH   4   5
HETATM    5  N   UNL     1     -10.593  10.029  68.522  1.00  0.00    -0.205 NA 
HETATM    6  C   UNL     1     -10.772   8.653  69.024  1.00  0.00    -0.101 C  
HETATM    7  C   UNL     1     -10.734   8.545  70.551  1.00  0.00    -0.246 C  
HETATM    8  C   UNL     1     -11.743   9.487  71.205  1.00  0.00    -0.438 C  
HETATM    9  C   UNL     1     -11.661  10.905  70.640  1.00  0.00    -0.418 C  
HETATM   10  C   UNL     1     -11.679  10.882  69.105  1.00  0.00    -0.326 C  
BRANCH  10  11
HETATM   11  C   UNL     1     -11.716  12.294  68.471  1.00  0.00    -0.331 C  
HETATM   12  N   UNL     1     -11.094  12.333  67.231  1.00  0.00    -0.259 N  
HETATM   13  O   UNL     1     -12.322  13.228  68.992  1.00  0.00    -0.184 OA 
HETATM   14  H   UNL     1     -10.761  11.441  66.863  1.00  0.00     0.000 HD 
BRANCH  12  15
HETATM   15  C   UNL     1     -10.870  13.468  66.420  1.00  0.00    -0.290 A  
HETATM   16  C   UNL     1     -11.735  13.836  65.364  1.00  0.00    -0.346 A  
HETATM   17  C   UNL     1     -12.973  13.089  64.954  1.00  0.00    -0.218 C  
HETATM   18  C   UNL     1     -11.477  15.020  64.643  1.00  0.00    -0.382 A  
HETATM   19  C   UNL     1     -10.413  15.853  64.977  1.00  0.00    -0.295 A  
HETATM   20  C   UNL     1      -9.568  15.498  66.020  1.00  0.00    -0.380 A  
HETATM   21  C   UNL     1      -9.783  14.317  66.749  1.00  0.00    -0.282 A  
HETATM   22  C   UNL     1      -8.775  13.964  67.817  1.00  0.00    -0.187 C  
ENDBRANCH  12  15
ENDBRANCH  10  11
ENDBRANCH   4   5
ENDBRANCH   3   4
ENDBRANCH   2   3
TORSDOF 5
ENDMDL
MODEL      159
REMARK 921   NORMALIZED FREE ENERGY PREDICTED BY IDOCK:   -3.72 KCAL/MOL
REMARK 922        TOTAL FREE ENERGY PREDICTED BY IDOCK:   -5.76 KCAL/MOL
REMARK 923 INTER-LIGAND FREE ENERGY PREDICTED BY IDOCK:   -5.02 KCAL/MOL
REMARK 924 INTRA-LIGAND FREE ENERGY PREDICTED BY IDOCK:   -0.74 KCAL/MOL
REMARK 927      BINDING AFFINITY PREDICTED BY RF-SCORE:    0.00 PKD
ROOT
HETATM    1  C   UNL     1      -8.263   5.428  64.806  1.00  0.00    -0.132 C  
HETATM    2  C   UNL     1      -9.363   4.382  64.684  1.00  0.00    -0.150 C  
ENDROOT
BRANCH   2   3
HETATM    3  C   UNL     1      -9.907   3.975  66.052  1.00  0.00    -0.177 C  
BRANCH   3   4
HETATM    4  C   UNL     1      -9.862   5.125  67.073  1.00  0.00    -0.177 C  
BRANCH   4   5
HETATM    5  N   UNL     1      -9.503   4.711  68.450  1.00  0.00    -0.137 NA 
HETATM    6  C   UNL     1      -8.324   3.824  68.476  1.00  0.00    -0.078 C  
HETATM    7  C   UNL     1      -7.027   4.514  68.044  1.00  0.00    -0.056 C  
HETATM    8  C   UNL     1      -6.764   5.776  68.862  1.00  0.00    -0.060 C  
HETATM    9  C   UNL     1      -7.995   6.678  68.948  1.00  0.00    -0.112 C  
HETATM   10  C   UNL     1      -9.234   5.871  69.361  1.00  0.00    -0.130 C  
BRANCH  10  11
HETATM   11  C   UNL     1     -10.492   6.746  69.579  1.00  0.00    -0.220 C  
HETATM   12  N   UNL     1     -10.173   8.065  69.873  1.00  0.00    -0.199 N  
HETATM   13  O   UNL     1     -11.628   6.311  69.404  1.00  0.00    -0.403 OA 
HETATM   14  H   UNL     1      -9.183   8.309  69.842  1.00  0.00     0.000 HD 
BRANCH  12  15
HETATM   15  C   UNL     1     -11.066   9.107  70.212  1.00  0.00    -0.239 A  
HETATM   16  C   UNL     1     -11.737   9.165  71.454  1.00  0.00    -0.413 A  
HETATM   17  C   UNL     1     -11.614   8.150  72.557  1.00  0.00    -0.468 C  
HETATM   18  C   UNL     1     -12.561  10.272  71.742  1.00  0.00    -0.488 A  
HETATM   19  C   UNL     1     -12.694  11.326  70.843  1.00  0.00    -0.412 A  
HETATM   20  C   UNL     1     -12.027  11.276  69.627  1.00  0.00    -0.423 A  
HETATM   21  C   UNL     1     -11.212  10.181  69.298  1.00  0.00    -0.247 A  
HETATM   22  C   UNL     1     -10.583  10.166  67.925  1.00  0.00    -0.294 C  
ENDBRANCH  12  15
ENDBRANCH  10  11
ENDBRANCH   4   5
ENDBRANCH   3   4
ENDBRANCH   2   3
TORSDOF 5
ENDMDL
MODEL      160
REMARK 921   NORMALIZED FREE ENERGY PREDICTED BY IDOCK:   -3.72 KCAL/MOL
REMARK 922        TOTAL FREE ENERGY PREDICTED BY IDOCK:   -5.76 KCAL/MOL
REMARK 923 INTER-LIGAND FREE ENERGY PREDICTED BY IDOCK:   -5.12 KCAL/MOL
REMARK 924 INTRA-LIGAND FREE ENERGY PREDICTED BY IDOCK:   -0.64 KCAL/MOL
REMARK 927      BINDING AFFINITY PREDICTED BY RF-SCORE:    0.00 PKD
ROOT
HETATM    1  C   UNL     1      -6.880  10.158  69.955  1.00  0.00    -0.137 C  
HETATM    2  C   UNL     1      -7.674  10.612  68.738  1.00  0.00    -0.117 C  
ENDROOT
BRANCH   2   3
HETATM    3  C   UNL     1      -7.231  11.994  68.261  1.00  0.00    -0.090 C  
BRANCH   3   4
HETATM    4  C   UNL     1      -8.297  13.076  68.509  1.00  0.00    -0.057 C  
BRANCH   4   5
HETATM    5  N   UNL     1      -8.998  13.539  67.288  1.00  0.00    -0.212 NA 
HETATM    6  C   UNL     1      -9.653  12.430  66.567  1.00  0.00    -0.240 C  
HETATM    7  C   UNL     1     -10.816  11.798  67.336  1.00  0.00    -0.299 C  
HETATM    8  C   UNL     1     -11.847  12.845  67.753  1.00  0.00    -0.391 C  
HETATM    9  C   UNL     1     -11.201  14.062  68.415  1.00  0.00    -0.292 C  
HETATM   10  C   UNL     1     -10.033  14.587  67.567  1.00  0.00    -0.224 C  
BRANCH  10  11
HETATM   11  C   UNL     1      -9.408  15.890  68.124  1.00  0.00    -0.198 C  
HETATM   12  N   UNL     1      -8.927  16.716  67.118  1.00  0.00    -0.205 N  
HETATM   13  O   UNL     1      -9.443  16.171  69.320  1.00  0.00    -0.238 OA 
HETATM   14  H   UNL     1      -9.099  16.412  66.160  1.00  0.00     0.000 HD 
BRANCH  12  15
HETATM   15  C   UNL     1      -8.223  17.932  67.272  1.00  0.00    -0.217 A  
HETATM   16  C   UNL     1      -6.815  17.994  67.369  1.00  0.00    -0.202 A  
HETATM   17  C   UNL     1      -5.888  16.810  67.337  1.00  0.00    -0.190 C  
HETATM   18  C   UNL     1      -6.184  19.252  67.456  1.00  0.00    -0.205 A  
HETATM   19  C   UNL     1      -6.918  20.433  67.407  1.00  0.00    -0.336 A  
HETATM   20  C   UNL     1      -8.301  20.375  67.302  1.00  0.00    -0.398 A  
HETATM   21  C   UNL     1      -8.965  19.140  67.231  1.00  0.00    -0.329 A  
HETATM   22  C   UNL     1     -10.475  19.161  67.196  1.00  0.00    -0.539 C  
ENDBRANCH  12  15
ENDBRANCH  10  11
ENDBRANCH   4   5
ENDBRANCH   3   4
ENDBRANCH   2   3
TORSDOF 5
ENDMDL
MODEL      161
REMARK 921   NORMALIZED FREE ENERGY PREDICTED BY IDOCK:   -3.71 KCAL/MOL
REMARK 922        TOTAL FREE ENERGY PREDICTED BY IDOCK:   -5.74 KCAL/MOL
REMARK 923 INTER-LIGAND FREE ENERGY PREDICTED BY IDOCK:   -5.00 KCAL/MOL
REMARK 924 INTRA-LIGAND FREE ENERGY PREDICTED BY IDOCK:   -0.75 KCAL/MOL
REMARK 927      BINDING AFFINITY PREDICTED BY RF-SCORE:    0.00 PKD
ROOT
HETATM    1  C   UNL     1     -12.733  12.248  64.332  1.00  0.00    -0.384 C  
HETATM    2  C   UNL     1     -11.918  13.315  63.615  1.00  0.00    -0.547 C  
ENDROOT
BRANCH   2   3
HETATM    3  C   UNL     1     -10.916  13.984  64.554  1.00  0.00    -0.361 C  
BRANCH   3   4
HETATM    4  C   UNL     1     -11.208  13.691  66.036  1.00  0.00    -0.296 C  
BRANCH   4   5
HETATM    5  N   UNL     1     -10.162  14.164  66.974  1.00  0.00    -0.258 NA 
HETATM    6  C   UNL     1     -10.428  15.531  67.461  1.00  0.00    -0.282 C  
HETATM    7  C   UNL     1     -11.670  15.636  68.351  1.00  0.00    -0.301 C  
HETATM    8  C   UNL     1     -11.606  14.655  69.520  1.00  0.00    -0.350 C  
HETATM    9  C   UNL     1     -11.231  13.243  69.072  1.00  0.00    -0.320 C  
HETATM   10  C   UNL     1      -9.992  13.270  68.165  1.00  0.00    -0.234 C  
BRANCH  10  11
HETATM   11  C   UNL     1      -9.491  11.860  67.770  1.00  0.00    -0.184 C  
HETATM   12  N   UNL     1      -8.495  11.905  66.804  1.00  0.00    -0.211 N  
HETATM   13  O   UNL     1      -9.884  10.844  68.339  1.00  0.00    -0.164 OA 
HETATM   14  H   UNL     1      -8.171  12.833  66.530  1.00  0.00     0.000 HD 
BRANCH  12  15
HETATM   15  C   UNL     1      -7.879  10.810  66.157  1.00  0.00    -0.155 A  
HETATM   16  C   UNL     1      -8.568   9.968  65.255  1.00  0.00    -0.166 A  
HETATM   17  C   UNL     1     -10.017  10.102  64.876  1.00  0.00    -0.358 C  
HETATM   18  C   UNL     1      -7.866   8.936  64.601  1.00  0.00    -0.124 A  
HETATM   19  C   UNL     1      -6.499   8.757  64.795  1.00  0.00    -0.066 A  
HETATM   20  C   UNL     1      -5.818   9.589  65.672  1.00  0.00    -0.058 A  
HETATM   21  C   UNL     1      -6.488  10.616  66.355  1.00  0.00    -0.117 A  
HETATM   22  C   UNL     1      -5.692  11.428  67.350  1.00  0.00    -0.064 C  
ENDBRANCH  12  15
ENDBRANCH  10  11
ENDBRANCH   4   5
ENDBRANCH   3   4
ENDBRANCH   2   3
TORSDOF 5
ENDMDL
MODEL      162
REMARK 921   NORMALIZED FREE ENERGY PREDICTED BY IDOCK:   -3.71 KCAL/MOL
REMARK 922        TOTAL FREE ENERGY PREDICTED BY IDOCK:   -5.74 KCAL/MOL
REMARK 923 INTER-LIGAND FREE ENERGY PREDICTED BY IDOCK:   -5.15 KCAL/MOL
REMARK 924 INTRA-LIGAND FREE ENERGY PREDICTED BY IDOCK:   -0.60 KCAL/MOL
REMARK 927      BINDING AFFINITY PREDICTED BY RF-SCORE:    0.00 PKD
ROOT
HETATM    1  C   UNL     1      -7.701   8.692  67.070  1.00  0.00    -0.095 C  
HETATM    2  C   UNL     1      -8.839   8.538  66.071  1.00  0.00    -0.208 C  
ENDROOT
BRANCH   2   3
HETATM    3  C   UNL     1     -10.008   7.755  66.666  1.00  0.00    -0.299 C  
BRANCH   3   4
HETATM    4  C   UNL     1      -9.654   7.093  68.010  1.00  0.00    -0.134 C  
BRANCH   4   5
HETATM    5  N   UNL     1     -10.425   5.863  68.311  1.00  0.00    -0.215 NA 
HETATM    6  C   UNL     1     -10.076   4.751  67.405  1.00  0.00    -0.126 C  
HETATM    7  C   UNL     1      -8.645   4.237  67.586  1.00  0.00    -0.110 C  
HETATM    8  C   UNL     1      -8.368   3.851  69.038  1.00  0.00    -0.088 C  
HETATM    9  C   UNL     1      -8.810   4.935  70.021  1.00  0.00    -0.126 C  
HETATM   10  C   UNL     1     -10.246   5.388  69.721  1.00  0.00    -0.278 C  
BRANCH  10  11
HETATM   11  C   UNL     1     -10.796   6.404  70.753  1.00  0.00    -0.267 C  
HETATM   12  N   UNL     1     -11.754   7.246  70.206  1.00  0.00    -0.516 N  
HETATM   13  O   UNL     1     -10.469   6.373  71.938  1.00  0.00    -0.204 OA 
HETATM   14  H   UNL     1     -12.026   7.056  69.241  1.00  0.00     0.000 HD 
BRANCH  12  15
HETATM   15  C   UNL     1     -12.395   8.337  70.835  1.00  0.00    -0.039 A  
HETATM   16  C   UNL     1     -13.611   8.204  71.544  1.00  0.00    -0.338 A  
HETATM   17  C   UNL     1     -14.383   6.925  71.714  1.00  0.00    -0.385 C  
HETATM   18  C   UNL     1     -14.153   9.328  72.199  1.00  0.00    -0.354 A  
HETATM   19  C   UNL     1     -13.494  10.554  72.196  1.00  0.00    -0.265 A  
HETATM   20  C   UNL     1     -12.295  10.684  71.510  1.00  0.00    -0.414 A  
HETATM   21  C   UNL     1     -11.734   9.591  70.830  1.00  0.00    -0.370 A  
HETATM   22  C   UNL     1     -10.468   9.834  70.044  1.00  0.00    -0.314 C  
ENDBRANCH  12  15
ENDBRANCH  10  11
ENDBRANCH   4   5
ENDBRANCH   3   4
ENDBRANCH   2   3
TORSDOF 5
ENDMDL
MODEL      163
REMARK 921   NORMALIZED FREE ENERGY PREDICTED BY IDOCK:   -3.70 KCAL/MOL
REMARK 922        TOTAL FREE ENERGY PREDICTED BY IDOCK:   -5.73 KCAL/MOL
REMARK 923 INTER-LIGAND FREE ENERGY PREDICTED BY IDOCK:   -6.35 KCAL/MOL
REMARK 924 INTRA-LIGAND FREE ENERGY PREDICTED BY IDOCK:    0.62 KCAL/MOL
REMARK 927      BINDING AFFINITY PREDICTED BY RF-SCORE:    0.00 PKD
ROOT
HETATM    1  C   UNL     1     -10.388   6.277  71.719  1.00  0.00    -0.240 C  
HETATM    2  C   UNL     1     -10.803   7.433  70.819  1.00  0.00    -0.257 C  
ENDROOT
BRANCH   2   3
HETATM    3  C   UNL     1     -10.471   8.784  71.450  1.00  0.00    -0.354 C  
BRANCH   3   4
HETATM    4  C   UNL     1     -10.582   9.948  70.448  1.00  0.00    -0.302 C  
BRANCH   4   5
HETATM    5  N   UNL     1     -11.935  10.137  69.874  1.00  0.00    -0.144 NA 
HETATM    6  C   UNL     1     -12.985   9.520  70.708  1.00  0.00    -0.022 C  
HETATM    7  C   UNL     1     -13.162  10.193  72.072  1.00  0.00    -0.534 C  
HETATM    8  C   UNL     1     -13.408  11.694  71.929  1.00  0.00    -0.403 C  
HETATM    9  C   UNL     1     -12.401  12.359  70.990  1.00  0.00    -0.309 C  
HETATM   10  C   UNL     1     -12.290  11.579  69.671  1.00  0.00    -0.142 C  
BRANCH  10  11
HETATM   11  C   UNL     1     -11.372  12.265  68.630  1.00  0.00    -0.291 C  
HETATM   12  N   UNL     1     -11.980  13.359  68.029  1.00  0.00    -0.347 N  
HETATM   13  O   UNL     1     -10.207  11.913  68.454  1.00  0.00    -0.195 OA 
HETATM   14  H   UNL     1     -12.901  13.617  68.383  1.00  0.00     0.000 HD 
BRANCH  12  15
HETATM   15  C   UNL     1     -11.466  14.155  66.980  1.00  0.00    -0.352 A  
HETATM   16  C   UNL     1     -11.571  13.788  65.620  1.00  0.00    -0.339 A  
HETATM   17  C   UNL     1     -12.210  12.529  65.105  1.00  0.00    -0.509 C  
HETATM   18  C   UNL     1     -11.090  14.669  64.629  1.00  0.00    -0.345 A  
HETATM   19  C   UNL     1     -10.554  15.909  64.963  1.00  0.00    -0.372 A  
HETATM   20  C   UNL     1     -10.460  16.276  66.299  1.00  0.00    -0.314 A  
HETATM   21  C   UNL     1     -10.911  15.417  67.314  1.00  0.00    -0.317 A  
HETATM   22  C   UNL     1     -10.703  15.856  68.744  1.00  0.00    -0.265 C  
ENDBRANCH  12  15
ENDBRANCH  10  11
ENDBRANCH   4   5
ENDBRANCH   3   4
ENDBRANCH   2   3
TORSDOF 5
ENDMDL
MODEL      164
REMARK 921   NORMALIZED FREE ENERGY PREDICTED BY IDOCK:   -3.70 KCAL/MOL
REMARK 922        TOTAL FREE ENERGY PREDICTED BY IDOCK:   -5.72 KCAL/MOL
REMARK 923 INTER-LIGAND FREE ENERGY PREDICTED BY IDOCK:   -4.98 KCAL/MOL
REMARK 924 INTRA-LIGAND FREE ENERGY PREDICTED BY IDOCK:   -0.74 KCAL/MOL
REMARK 927      BINDING AFFINITY PREDICTED BY RF-SCORE:    0.00 PKD
ROOT
HETATM    1  C   UNL     1      -6.963   8.526  65.431  1.00  0.00    -0.078 C  
HETATM    2  C   UNL     1      -8.190   7.757  64.960  1.00  0.00    -0.123 C  
ENDROOT
BRANCH   2   3
HETATM    3  C   UNL     1      -9.220   7.602  66.077  1.00  0.00    -0.118 C  
BRANCH   3   4
HETATM    4  C   UNL     1      -8.896   8.470  67.305  1.00  0.00    -0.130 C  
BRANCH   4   5
HETATM    5  N   UNL     1      -9.914   8.415  68.382  1.00  0.00    -0.181 NA 
HETATM    6  C   UNL     1      -9.578   7.418  69.416  1.00  0.00    -0.155 C  
HETATM    7  C   UNL     1      -8.329   7.770  70.228  1.00  0.00    -0.127 C  
HETATM    8  C   UNL     1      -8.437   9.163  70.846  1.00  0.00    -0.251 C  
HETATM    9  C   UNL     1      -8.883  10.214  69.830  1.00  0.00    -0.152 C  
HETATM   10  C   UNL     1     -10.123   9.736  69.060  1.00  0.00    -0.187 C  
BRANCH  10  11
HETATM   11  C   UNL     1     -10.695  10.803  68.096  1.00  0.00    -0.214 C  
HETATM   12  N   UNL     1      -9.698  11.550  67.483  1.00  0.00    -0.178 N  
HETATM   13  O   UNL     1     -11.897  10.885  67.851  1.00  0.00    -0.590 OA 
HETATM   14  H   UNL     1      -8.737  11.269  67.678  1.00  0.00     0.000 HD 
BRANCH  12  15
HETATM   15  C   UNL     1      -9.865  12.655  66.618  1.00  0.00    -0.244 A  
HETATM   16  C   UNL     1     -10.258  12.517  65.268  1.00  0.00    -0.302 A  
HETATM   17  C   UNL     1     -10.532  11.214  64.571  1.00  0.00    -0.415 C  
HETATM   18  C   UNL     1     -10.465  13.673  64.488  1.00  0.00    -0.411 A  
HETATM   19  C   UNL     1     -10.331  14.947  65.034  1.00  0.00    -0.401 A  
HETATM   20  C   UNL     1      -9.956  15.085  66.363  1.00  0.00    -0.295 A  
HETATM   21  C   UNL     1      -9.722  13.955  67.165  1.00  0.00    -0.244 A  
HETATM   22  C   UNL     1      -9.243  14.190  68.578  1.00  0.00    -0.187 C  
ENDBRANCH  12  15
ENDBRANCH  10  11
ENDBRANCH   4   5
ENDBRANCH   3   4
ENDBRANCH   2   3
TORSDOF 5
ENDMDL
MODEL      165
REMARK 921   NORMALIZED FREE ENERGY PREDICTED BY IDOCK:   -3.69 KCAL/MOL
REMARK 922        TOTAL FREE ENERGY PREDICTED BY IDOCK:   -5.72 KCAL/MOL
REMARK 923 INTER-LIGAND FREE ENERGY PREDICTED BY IDOCK:   -4.76 KCAL/MOL
REMARK 924 INTRA-LIGAND FREE ENERGY PREDICTED BY IDOCK:   -0.96 KCAL/MOL
REMARK 927      BINDING AFFINITY PREDICTED BY RF-SCORE:    0.00 PKD
ROOT
HETATM    1  C   UNL     1      -7.839   5.072  66.706  1.00  0.00    -0.100 C  
HETATM    2  C   UNL     1      -7.652   4.951  68.212  1.00  0.00    -0.078 C  
ENDROOT
BRANCH   2   3
HETATM    3  C   UNL     1      -7.493   6.319  68.872  1.00  0.00    -0.087 C  
BRANCH   3   4
HETATM    4  C   UNL     1      -8.266   7.426  68.132  1.00  0.00    -0.124 C  
BRANCH   4   5
HETATM    5  N   UNL     1      -7.793   8.802  68.419  1.00  0.00    -0.103 NA 
HETATM    6  C   UNL     1      -6.407   9.021  67.962  1.00  0.00    -0.055 C  
HETATM    7  C   UNL     1      -6.247   8.981  66.439  1.00  0.00    -0.064 C  
HETATM    8  C   UNL     1      -7.198   9.959  65.751  1.00  0.00    -0.110 C  
HETATM    9  C   UNL     1      -8.631   9.836  66.269  1.00  0.00    -0.137 C  
HETATM   10  C   UNL     1      -8.659   9.860  67.804  1.00  0.00    -0.121 C  
BRANCH  10  11
HETATM   11  C   UNL     1     -10.091   9.856  68.391  1.00  0.00    -0.167 C  
HETATM   12  N   UNL     1     -10.098  10.022  69.769  1.00  0.00    -0.239 N  
HETATM   13  O   UNL     1     -11.090   9.808  67.675  1.00  0.00    -0.244 OA 
HETATM   14  H   UNL     1      -9.193  10.193  70.209  1.00  0.00     0.000 HD 
BRANCH  12  15
HETATM   15  C   UNL     1     -11.217   9.980  70.631  1.00  0.00    -0.350 A  
HETATM   16  C   UNL     1     -12.077  11.085  70.822  1.00  0.00    -0.467 A  
HETATM   17  C   UNL     1     -11.923  12.429  70.167  1.00  0.00    -0.376 C  
HETATM   18  C   UNL     1     -13.209  10.942  71.649  1.00  0.00    -0.471 A  
HETATM   19  C   UNL     1     -13.518   9.724  72.248  1.00  0.00    -0.443 A  
HETATM   20  C   UNL     1     -12.681   8.635  72.053  1.00  0.00    -0.427 A  
HETATM   21  C   UNL     1     -11.534   8.744  71.250  1.00  0.00    -0.355 A  
HETATM   22  C   UNL     1     -10.634   7.536  71.151  1.00  0.00    -0.234 C  
ENDBRANCH  12  15
ENDBRANCH  10  11
ENDBRANCH   4   5
ENDBRANCH   3   4
ENDBRANCH   2   3
TORSDOF 5
ENDMDL
MODEL      166
REMARK 921   NORMALIZED FREE ENERGY PREDICTED BY IDOCK:   -3.69 KCAL/MOL
REMARK 922        TOTAL FREE ENERGY PREDICTED BY IDOCK:   -5.71 KCAL/MOL
REMARK 923 INTER-LIGAND FREE ENERGY PREDICTED BY IDOCK:   -4.93 KCAL/MOL
REMARK 924 INTRA-LIGAND FREE ENERGY PREDICTED BY IDOCK:   -0.78 KCAL/MOL
REMARK 927      BINDING AFFINITY PREDICTED BY RF-SCORE:    0.00 PKD
ROOT
HETATM    1  C   UNL     1      -6.653   8.882  67.112  1.00  0.00    -0.062 C  
HETATM    2  C   UNL     1      -6.068   9.855  66.097  1.00  0.00    -0.067 C  
ENDROOT
BRANCH   2   3
HETATM    3  C   UNL     1      -5.211  10.924  66.771  1.00  0.00    -0.063 C  
BRANCH   3   4
HETATM    4  C   UNL     1      -6.007  12.199  67.101  1.00  0.00    -0.143 C  
BRANCH   4   5
HETATM    5  N   UNL     1      -7.013  12.034  68.177  1.00  0.00    -0.073 NA 
HETATM    6  C   UNL     1      -6.392  11.717  69.478  1.00  0.00    -0.123 C  
HETATM    7  C   UNL     1      -5.552  12.861  70.053  1.00  0.00    -0.126 C  
HETATM    8  C   UNL     1      -6.357  14.156  70.147  1.00  0.00    -0.125 C  
HETATM    9  C   UNL     1      -7.102  14.470  68.850  1.00  0.00    -0.118 C  
HETATM   10  C   UNL     1      -7.882  13.242  68.359  1.00  0.00    -0.137 C  
BRANCH  10  11
HETATM   11  C   UNL     1      -8.752  13.528  67.110  1.00  0.00    -0.215 C  
HETATM   12  N   UNL     1      -9.683  12.526  66.874  1.00  0.00    -0.226 N  
HETATM   13  O   UNL     1      -8.667  14.581  66.482  1.00  0.00    -0.187 OA 
HETATM   14  H   UNL     1      -9.731  11.780  67.569  1.00  0.00     0.000 HD 
BRANCH  12  15
HETATM   15  C   UNL     1     -10.572  12.422  65.780  1.00  0.00    -0.256 A  
HETATM   16  C   UNL     1     -10.312  11.601  64.660  1.00  0.00    -0.341 A  
HETATM   17  C   UNL     1      -9.084  10.756  64.467  1.00  0.00    -0.220 C  
HETATM   18  C   UNL     1     -11.279  11.502  63.639  1.00  0.00    -0.451 A  
HETATM   19  C   UNL     1     -12.500  12.164  63.733  1.00  0.00    -0.620 A  
HETATM   20  C   UNL     1     -12.761  12.963  64.838  1.00  0.00    -0.474 A  
HETATM   21  C   UNL     1     -11.814  13.100  65.866  1.00  0.00    -0.453 A  
HETATM   22  C   UNL     1     -12.143  14.047  66.995  1.00  0.00    -0.455 C  
ENDBRANCH  12  15
ENDBRANCH  10  11
ENDBRANCH   4   5
ENDBRANCH   3   4
ENDBRANCH   2   3
TORSDOF 5
ENDMDL
MODEL      167
REMARK 921   NORMALIZED FREE ENERGY PREDICTED BY IDOCK:   -3.69 KCAL/MOL
REMARK 922        TOTAL FREE ENERGY PREDICTED BY IDOCK:   -5.71 KCAL/MOL
REMARK 923 INTER-LIGAND FREE ENERGY PREDICTED BY IDOCK:   -4.97 KCAL/MOL
REMARK 924 INTRA-LIGAND FREE ENERGY PREDICTED BY IDOCK:   -0.74 KCAL/MOL
REMARK 927      BINDING AFFINITY PREDICTED BY RF-SCORE:    0.00 PKD
ROOT
HETATM    1  C   UNL     1      -9.554   4.670  66.195  1.00  0.00    -0.187 C  
HETATM    2  C   UNL     1     -10.250   5.652  67.128  1.00  0.00    -0.255 C  
ENDROOT
BRANCH   2   3
HETATM    3  C   UNL     1      -9.678   5.584  68.543  1.00  0.00    -0.175 C  
BRANCH   3   4
HETATM    4  C   UNL     1      -9.744   6.938  69.273  1.00  0.00    -0.156 C  
BRANCH   4   5
HETATM    5  N   UNL     1     -11.102   7.329  69.720  1.00  0.00    -0.221 NA 
HETATM    6  C   UNL     1     -11.594   6.476  70.820  1.00  0.00    -0.377 C  
HETATM    7  C   UNL     1     -10.810   6.642  72.125  1.00  0.00    -0.259 C  
HETATM    8  C   UNL     1     -10.758   8.103  72.565  1.00  0.00    -0.419 C  
HETATM    9  C   UNL     1     -10.350   9.038  71.426  1.00  0.00    -0.396 C  
HETATM   10  C   UNL     1     -11.184   8.757  70.167  1.00  0.00    -0.152 C  
BRANCH  10  11
HETATM   11  C   UNL     1     -10.900   9.748  69.011  1.00  0.00    -0.199 C  
HETATM   12  N   UNL     1     -10.189  10.863  69.434  1.00  0.00    -0.400 N  
HETATM   13  O   UNL     1     -11.199   9.494  67.846  1.00  0.00    -0.097 OA 
HETATM   14  H   UNL     1      -9.885  10.864  70.408  1.00  0.00     0.000 HD 
BRANCH  12  15
HETATM   15  C   UNL     1      -9.839  11.996  68.666  1.00  0.00    -0.117 A  
HETATM   16  C   UNL     1      -8.721  12.019  67.801  1.00  0.00    -0.161 A  
HETATM   17  C   UNL     1      -7.763  10.880  67.589  1.00  0.00    -0.108 C  
HETATM   18  C   UNL     1      -8.477  13.166  67.020  1.00  0.00    -0.139 A  
HETATM   19  C   UNL     1      -9.337  14.260  67.054  1.00  0.00    -0.249 A  
HETATM   20  C   UNL     1     -10.441  14.236  67.895  1.00  0.00    -0.240 A  
HETATM   21  C   UNL     1     -10.706  13.117  68.701  1.00  0.00    -0.274 A  
HETATM   22  C   UNL     1     -11.882  13.201  69.644  1.00  0.00    -0.390 C  
ENDBRANCH  12  15
ENDBRANCH  10  11
ENDBRANCH   4   5
ENDBRANCH   3   4
ENDBRANCH   2   3
TORSDOF 5
ENDMDL
MODEL      168
REMARK 921   NORMALIZED FREE ENERGY PREDICTED BY IDOCK:   -3.66 KCAL/MOL
REMARK 922        TOTAL FREE ENERGY PREDICTED BY IDOCK:   -5.68 KCAL/MOL
REMARK 923 INTER-LIGAND FREE ENERGY PREDICTED BY IDOCK:   -4.86 KCAL/MOL
REMARK 924 INTRA-LIGAND FREE ENERGY PREDICTED BY IDOCK:   -0.83 KCAL/MOL
REMARK 927      BINDING AFFINITY PREDICTED BY RF-SCORE:    0.00 PKD
ROOT
HETATM    1  C   UNL     1      -5.657  13.954  71.651  1.00  0.00    -0.227 C  
HETATM    2  C   UNL     1      -5.984  15.187  70.819  1.00  0.00     0.025 C  
ENDROOT
BRANCH   2   3
HETATM    3  C   UNL     1      -5.222  15.191  69.495  1.00  0.00    -0.089 C  
BRANCH   3   4
HETATM    4  C   UNL     1      -6.012  15.865  68.359  1.00  0.00    -0.106 C  
BRANCH   4   5
HETATM    5  N   UNL     1      -6.943  16.928  68.806  1.00  0.00    -0.192 NA 
HETATM    6  C   UNL     1      -6.265  18.228  68.972  1.00  0.00    -0.234 C  
HETATM    7  C   UNL     1      -5.760  18.831  67.658  1.00  0.00    -0.180 C  
HETATM    8  C   UNL     1      -6.879  18.941  66.625  1.00  0.00    -0.213 C  
HETATM    9  C   UNL     1      -7.676  17.644  66.493  1.00  0.00    -0.305 C  
HETATM   10  C   UNL     1      -8.101  17.124  67.874  1.00  0.00    -0.201 C  
BRANCH  10  11
HETATM   11  C   UNL     1      -9.011  15.873  67.804  1.00  0.00    -0.176 C  
HETATM   12  N   UNL     1      -8.931  15.229  66.577  1.00  0.00    -0.289 N  
HETATM   13  O   UNL     1      -9.644  15.470  68.778  1.00  0.00    -0.190 OA 
HETATM   14  H   UNL     1      -8.251  15.602  65.914  1.00  0.00     0.000 HD 
BRANCH  12  15
HETATM   15  C   UNL     1      -9.685  14.116  66.142  1.00  0.00    -0.290 A  
HETATM   16  C   UNL     1      -9.413  12.796  66.568  1.00  0.00    -0.253 A  
HETATM   17  C   UNL     1      -8.307  12.394  67.503  1.00  0.00    -0.173 C  
HETATM   18  C   UNL     1     -10.253  11.747  66.140  1.00  0.00    -0.255 A  
HETATM   19  C   UNL     1     -11.366  11.993  65.341  1.00  0.00    -0.375 A  
HETATM   20  C   UNL     1     -11.641  13.290  64.931  1.00  0.00    -0.353 A  
HETATM   21  C   UNL     1     -10.816  14.357  65.323  1.00  0.00    -0.370 A  
HETATM   22  C   UNL     1     -11.138  15.726  64.772  1.00  0.00    -0.413 C  
ENDBRANCH  12  15
ENDBRANCH  10  11
ENDBRANCH   4   5
ENDBRANCH   3   4
ENDBRANCH   2   3
TORSDOF 5
ENDMDL
MODEL      169
REMARK 921   NORMALIZED FREE ENERGY PREDICTED BY IDOCK:   -3.65 KCAL/MOL
REMARK 922        TOTAL FREE ENERGY PREDICTED BY IDOCK:   -5.67 KCAL/MOL
REMARK 923 INTER-LIGAND FREE ENERGY PREDICTED BY IDOCK:   -5.29 KCAL/MOL
REMARK 924 INTRA-LIGAND FREE ENERGY PREDICTED BY IDOCK:   -0.38 KCAL/MOL
REMARK 927      BINDING AFFINITY PREDICTED BY RF-SCORE:    0.00 PKD
ROOT
HETATM    1  C   UNL     1      -7.903   7.908  72.466  1.00  0.00    -0.150 C  
HETATM    2  C   UNL     1      -9.302   8.470  72.253  1.00  0.00    -0.363 C  
ENDROOT
BRANCH   2   3
HETATM    3  C   UNL     1     -10.096   7.638  71.248  1.00  0.00    -0.203 C  
BRANCH   3   4
HETATM    4  C   UNL     1     -10.408   8.411  69.954  1.00  0.00    -0.210 C  
BRANCH   4   5
HETATM    5  N   UNL     1      -9.372   8.288  68.901  1.00  0.00    -0.147 NA 
HETATM    6  C   UNL     1      -8.683   6.984  68.946  1.00  0.00    -0.131 C  
HETATM    7  C   UNL     1      -9.585   5.799  68.592  1.00  0.00    -0.154 C  
HETATM    8  C   UNL     1     -10.264   5.997  67.238  1.00  0.00    -0.239 C  
HETATM    9  C   UNL     1     -10.906   7.378  67.108  1.00  0.00    -0.340 C  
HETATM   10  C   UNL     1      -9.916   8.478  67.517  1.00  0.00    -0.200 C  
BRANCH  10  11
HETATM   11  C   UNL     1     -10.466   9.909  67.298  1.00  0.00    -0.258 C  
HETATM   12  N   UNL     1      -9.626  10.683  66.509  1.00  0.00    -0.176 N  
HETATM   13  O   UNL     1     -11.573  10.254  67.709  1.00  0.00    -0.331 OA 
HETATM   14  H   UNL     1      -8.809  10.212  66.120  1.00  0.00     0.000 HD 
BRANCH  12  15
HETATM   15  C   UNL     1      -9.776  12.050  66.184  1.00  0.00    -0.238 A  
HETATM   16  C   UNL     1      -9.293  13.090  67.011  1.00  0.00    -0.236 A  
HETATM   17  C   UNL     1      -8.585  12.899  68.323  1.00  0.00    -0.170 C  
HETATM   18  C   UNL     1      -9.424  14.427  66.584  1.00  0.00    -0.300 A  
HETATM   19  C   UNL     1      -9.981  14.740  65.348  1.00  0.00    -0.369 A  
HETATM   20  C   UNL     1     -10.447  13.720  64.530  1.00  0.00    -0.378 A  
HETATM   21  C   UNL     1     -10.350  12.377  64.930  1.00  0.00    -0.319 A  
HETATM   22  C   UNL     1     -10.949  11.333  64.017  1.00  0.00    -0.377 C  
ENDBRANCH  12  15
ENDBRANCH  10  11
ENDBRANCH   4   5
ENDBRANCH   3   4
ENDBRANCH   2   3
TORSDOF 5
ENDMDL
MODEL      170
REMARK 921   NORMALIZED FREE ENERGY PREDICTED BY IDOCK:   -3.65 KCAL/MOL
REMARK 922        TOTAL FREE ENERGY PREDICTED BY IDOCK:   -5.66 KCAL/MOL
REMARK 923 INTER-LIGAND FREE ENERGY PREDICTED BY IDOCK:   -5.20 KCAL/MOL
REMARK 924 INTRA-LIGAND FREE ENERGY PREDICTED BY IDOCK:   -0.46 KCAL/MOL
REMARK 927      BINDING AFFINITY PREDICTED BY RF-SCORE:    0.00 PKD
ROOT
HETATM    1  C   UNL     1     -12.111  12.846  63.545  1.00  0.00    -0.633 C  
HETATM    2  C   UNL     1     -10.710  12.275  63.369  1.00  0.00    -0.438 C  
ENDROOT
BRANCH   2   3
HETATM    3  C   UNL     1     -10.522  10.988  64.170  1.00  0.00    -0.434 C  
BRANCH   3   4
HETATM    4  C   UNL     1      -9.120  10.879  64.796  1.00  0.00    -0.178 C  
BRANCH   4   5
HETATM    5  N   UNL     1      -8.956   9.750  65.742  1.00  0.00    -0.151 NA 
HETATM    6  C   UNL     1      -8.583   8.498  65.056  1.00  0.00    -0.135 C  
HETATM    7  C   UNL     1      -7.191   8.536  64.419  1.00  0.00    -0.091 C  
HETATM    8  C   UNL     1      -6.121   8.926  65.436  1.00  0.00    -0.055 C  
HETATM    9  C   UNL     1      -6.512  10.163  66.244  1.00  0.00    -0.085 C  
HETATM   10  C   UNL     1      -7.934  10.020  66.805  1.00  0.00    -0.114 C  
BRANCH  10  11
HETATM   11  C   UNL     1      -8.349  11.190  67.730  1.00  0.00    -0.123 C  
HETATM   12  N   UNL     1      -9.676  11.557  67.555  1.00  0.00    -0.178 N  
HETATM   13  O   UNL     1      -7.590  11.651  68.580  1.00  0.00    -0.123 OA 
HETATM   14  H   UNL     1     -10.223  10.984  66.912  1.00  0.00     0.000 HD 
BRANCH  12  15
HETATM   15  C   UNL     1     -10.355  12.634  68.168  1.00  0.00    -0.234 A  
HETATM   16  C   UNL     1     -10.250  13.966  67.707  1.00  0.00    -0.237 A  
HETATM   17  C   UNL     1      -9.414  14.419  66.543  1.00  0.00    -0.309 C  
HETATM   18  C   UNL     1     -11.010  14.974  68.333  1.00  0.00    -0.266 A  
HETATM   19  C   UNL     1     -11.893  14.677  69.367  1.00  0.00    -0.368 A  
HETATM   20  C   UNL     1     -12.006  13.368  69.814  1.00  0.00    -0.396 A  
HETATM   21  C   UNL     1     -11.250  12.339  69.227  1.00  0.00    -0.275 A  
HETATM   22  C   UNL     1     -11.373  10.957  69.822  1.00  0.00    -0.374 C  
ENDBRANCH  12  15
ENDBRANCH  10  11
ENDBRANCH   4   5
ENDBRANCH   3   4
ENDBRANCH   2   3
TORSDOF 5
ENDMDL
MODEL      171
REMARK 921   NORMALIZED FREE ENERGY PREDICTED BY IDOCK:   -3.64 KCAL/MOL
REMARK 922        TOTAL FREE ENERGY PREDICTED BY IDOCK:   -5.66 KCAL/MOL
REMARK 923 INTER-LIGAND FREE ENERGY PREDICTED BY IDOCK:   -4.80 KCAL/MOL
REMARK 924 INTRA-LIGAND FREE ENERGY PREDICTED BY IDOCK:   -0.85 KCAL/MOL
REMARK 927      BINDING AFFINITY PREDICTED BY RF-SCORE:    0.00 PKD
ROOT
HETATM    1  C   UNL     1      -5.585  10.019  71.083  1.00  0.00    -0.076 C  
HETATM    2  C   UNL     1      -5.789  10.280  69.597  1.00  0.00    -0.044 C  
ENDROOT
BRANCH   2   3
HETATM    3  C   UNL     1      -6.874  11.327  69.353  1.00  0.00    -0.121 C  
BRANCH   3   4
HETATM    4  C   UNL     1      -8.206  10.704  68.899  1.00  0.00    -0.145 C  
BRANCH   4   5
HETATM    5  N   UNL     1      -8.352  10.570  67.430  1.00  0.00    -0.121 NA 
HETATM    6  C   UNL     1      -8.079   9.196  66.966  1.00  0.00    -0.109 C  
HETATM    7  C   UNL     1      -9.107   8.168  67.445  1.00  0.00    -0.148 C  
HETATM    8  C   UNL     1     -10.529   8.584  67.073  1.00  0.00    -0.362 C  
HETATM    9  C   UNL     1     -10.825  10.037  67.444  1.00  0.00    -0.313 C  
HETATM   10  C   UNL     1      -9.712  10.965  66.937  1.00  0.00    -0.181 C  
BRANCH  10  11
HETATM   11  C   UNL     1     -10.007  12.466  67.179  1.00  0.00    -0.207 C  
HETATM   12  N   UNL     1      -9.356  13.286  66.268  1.00  0.00    -0.441 N  
HETATM   13  O   UNL     1     -10.810  12.844  68.030  1.00  0.00    -0.227 OA 
HETATM   14  H   UNL     1      -8.835  12.816  65.527  1.00  0.00     0.000 HD 
BRANCH  12  15
HETATM   15  C   UNL     1      -9.333  14.699  66.252  1.00  0.00    -0.262 A  
HETATM   16  C   UNL     1     -10.353  15.473  65.654  1.00  0.00    -0.407 A  
HETATM   17  C   UNL     1     -11.566  14.923  64.957  1.00  0.00    -0.357 C  
HETATM   18  C   UNL     1     -10.290  16.879  65.737  1.00  0.00    -0.298 A  
HETATM   19  C   UNL     1      -9.265  17.517  66.431  1.00  0.00    -0.267 A  
HETATM   20  C   UNL     1      -8.268  16.758  67.028  1.00  0.00    -0.224 A  
HETATM   21  C   UNL     1      -8.289  15.356  66.950  1.00  0.00    -0.290 A  
HETATM   22  C   UNL     1      -7.127  14.607  67.560  1.00  0.00    -0.203 C  
ENDBRANCH  12  15
ENDBRANCH  10  11
ENDBRANCH   4   5
ENDBRANCH   3   4
ENDBRANCH   2   3
TORSDOF 5
ENDMDL
MODEL      172
REMARK 921   NORMALIZED FREE ENERGY PREDICTED BY IDOCK:   -3.64 KCAL/MOL
REMARK 922        TOTAL FREE ENERGY PREDICTED BY IDOCK:   -5.65 KCAL/MOL
REMARK 923 INTER-LIGAND FREE ENERGY PREDICTED BY IDOCK:   -4.69 KCAL/MOL
REMARK 924 INTRA-LIGAND FREE ENERGY PREDICTED BY IDOCK:   -0.96 KCAL/MOL
REMARK 927      BINDING AFFINITY PREDICTED BY RF-SCORE:    0.00 PKD
ROOT
HETATM    1  C   UNL     1      -9.966   5.423  70.351  1.00  0.00    -0.291 C  
HETATM    2  C   UNL     1     -11.235   6.159  69.945  1.00  0.00    -0.484 C  
ENDROOT
BRANCH   2   3
HETATM    3  C   UNL     1     -10.951   7.616  69.585  1.00  0.00    -0.145 C  
BRANCH   3   4
HETATM    4  C   UNL     1      -9.448   7.945  69.595  1.00  0.00    -0.160 C  
BRANCH   4   5
HETATM    5  N   UNL     1      -9.064   9.036  70.523  1.00  0.00    -0.200 NA 
HETATM    6  C   UNL     1      -8.644   8.525  71.842  1.00  0.00    -0.188 C  
HETATM    7  C   UNL     1      -7.343   7.719  71.803  1.00  0.00    -0.068 C  
HETATM    8  C   UNL     1      -6.211   8.514  71.154  1.00  0.00    -0.041 C  
HETATM    9  C   UNL     1      -6.635   9.149  69.829  1.00  0.00    -0.046 C  
HETATM   10  C   UNL     1      -7.964   9.902  69.988  1.00  0.00    -0.180 C  
BRANCH  10  11
HETATM   11  C   UNL     1      -8.391  10.666  68.711  1.00  0.00    -0.144 C  
HETATM   12  N   UNL     1      -9.181  11.771  68.996  1.00  0.00    -0.388 N  
HETATM   13  O   UNL     1      -7.976  10.357  67.595  1.00  0.00    -0.105 OA 
HETATM   14  H   UNL     1      -9.324  11.984  69.983  1.00  0.00     0.000 HD 
BRANCH  12  15
HETATM   15  C   UNL     1      -9.812  12.634  68.071  1.00  0.00    -0.218 A  
HETATM   16  C   UNL     1      -9.141  13.713  67.452  1.00  0.00    -0.222 A  
HETATM   17  C   UNL     1      -7.707  14.097  67.690  1.00  0.00    -0.186 C  
HETATM   18  C   UNL     1      -9.822  14.489  66.492  1.00  0.00    -0.297 A  
HETATM   19  C   UNL     1     -11.127  14.187  66.113  1.00  0.00    -0.312 A  
HETATM   20  C   UNL     1     -11.784  13.121  66.712  1.00  0.00    -0.439 A  
HETATM   21  C   UNL     1     -11.144  12.338  67.686  1.00  0.00    -0.318 A  
HETATM   22  C   UNL     1     -11.953  11.246  68.345  1.00  0.00    -0.255 C  
ENDBRANCH  12  15
ENDBRANCH  10  11
ENDBRANCH   4   5
ENDBRANCH   3   4
ENDBRANCH   2   3
TORSDOF 5
ENDMDL
MODEL      173
REMARK 921   NORMALIZED FREE ENERGY PREDICTED BY IDOCK:   -3.62 KCAL/MOL
REMARK 922        TOTAL FREE ENERGY PREDICTED BY IDOCK:   -5.63 KCAL/MOL
REMARK 923 INTER-LIGAND FREE ENERGY PREDICTED BY IDOCK:   -4.80 KCAL/MOL
REMARK 924 INTRA-LIGAND FREE ENERGY PREDICTED BY IDOCK:   -0.83 KCAL/MOL
REMARK 927      BINDING AFFINITY PREDICTED BY RF-SCORE:    0.00 PKD
ROOT
HETATM    1  C   UNL     1      -9.933  17.547  66.037  1.00  0.00    -0.231 C  
HETATM    2  C   UNL     1     -10.109  17.044  67.464  1.00  0.00    -0.294 C  
ENDROOT
BRANCH   2   3
HETATM    3  C   UNL     1      -9.564  15.627  67.632  1.00  0.00    -0.220 C  
BRANCH   3   4
HETATM    4  C   UNL     1      -9.929  14.709  66.452  1.00  0.00    -0.283 C  
BRANCH   4   5
HETATM    5  N   UNL     1     -10.956  13.687  66.764  1.00  0.00    -0.290 NA 
HETATM    6  C   UNL     1     -12.313  14.130  66.390  1.00  0.00    -0.400 C  
HETATM    7  C   UNL     1     -12.517  14.281  64.880  1.00  0.00    -0.403 C  
HETATM    8  C   UNL     1     -12.149  13.000  64.134  1.00  0.00    -0.497 C  
HETATM    9  C   UNL     1     -10.791  12.447  64.566  1.00  0.00    -0.358 C  
HETATM   10  C   UNL     1     -10.697  12.370  66.097  1.00  0.00    -0.260 C  
BRANCH  10  11
HETATM   11  C   UNL     1      -9.389  11.710  66.598  1.00  0.00    -0.194 C  
HETATM   12  N   UNL     1      -9.227  11.834  67.971  1.00  0.00    -0.174 N  
HETATM   13  O   UNL     1      -8.651  11.072  65.849  1.00  0.00    -0.176 OA 
HETATM   14  H   UNL     1      -9.997  12.268  68.481  1.00  0.00     0.000 HD 
BRANCH  12  15
HETATM   15  C   UNL     1      -8.114  11.428  68.742  1.00  0.00    -0.112 A  
HETATM   16  C   UNL     1      -6.985  12.252  68.950  1.00  0.00    -0.098 A  
HETATM   17  C   UNL     1      -6.802  13.634  68.385  1.00  0.00    -0.102 C  
HETATM   18  C   UNL     1      -5.945  11.799  69.786  1.00  0.00    -0.126 A  
HETATM   19  C   UNL     1      -6.027  10.575  70.443  1.00  0.00    -0.112 A  
HETATM   20  C   UNL     1      -7.140   9.768  70.249  1.00  0.00    -0.145 A  
HETATM   21  C   UNL     1      -8.188  10.179  69.408  1.00  0.00    -0.171 A  
HETATM   22  C   UNL     1      -9.326   9.211  69.190  1.00  0.00    -0.152 C  
ENDBRANCH  12  15
ENDBRANCH  10  11
ENDBRANCH   4   5
ENDBRANCH   3   4
ENDBRANCH   2   3
TORSDOF 5
ENDMDL
MODEL      174
REMARK 921   NORMALIZED FREE ENERGY PREDICTED BY IDOCK:   -3.61 KCAL/MOL
REMARK 922        TOTAL FREE ENERGY PREDICTED BY IDOCK:   -5.62 KCAL/MOL
REMARK 923 INTER-LIGAND FREE ENERGY PREDICTED BY IDOCK:   -4.82 KCAL/MOL
REMARK 924 INTRA-LIGAND FREE ENERGY PREDICTED BY IDOCK:   -0.80 KCAL/MOL
REMARK 927      BINDING AFFINITY PREDICTED BY RF-SCORE:    0.00 PKD
ROOT
HETATM    1  C   UNL     1     -12.986  13.953  65.540  1.00  0.00    -0.375 C  
HETATM    2  C   UNL     1     -11.846  14.492  64.687  1.00  0.00    -0.462 C  
ENDROOT
BRANCH   2   3
HETATM    3  C   UNL     1     -10.504  14.387  65.408  1.00  0.00    -0.391 C  
BRANCH   3   4
HETATM    4  C   UNL     1     -10.202  12.957  65.891  1.00  0.00    -0.290 C  
BRANCH   4   5
HETATM    5  N   UNL     1      -9.603  12.879  67.244  1.00  0.00    -0.214 NA 
HETATM    6  C   UNL     1     -10.348  13.685  68.230  1.00  0.00    -0.251 C  
HETATM    7  C   UNL     1     -11.757  13.159  68.517  1.00  0.00    -0.387 C  
HETATM    8  C   UNL     1     -11.733  11.691  68.937  1.00  0.00    -0.397 C  
HETATM    9  C   UNL     1     -10.886  10.833  67.997  1.00  0.00    -0.302 C  
HETATM   10  C   UNL     1      -9.511  11.476  67.765  1.00  0.00    -0.168 C  
BRANCH  10  11
HETATM   11  C   UNL     1      -8.560  10.599  66.914  1.00  0.00    -0.126 C  
HETATM   12  N   UNL     1      -9.247   9.676  66.137  1.00  0.00    -0.163 N  
HETATM   13  O   UNL     1      -7.346  10.793  66.881  1.00  0.00    -0.106 OA 
HETATM   14  H   UNL     1     -10.265   9.731  66.163  1.00  0.00     0.000 HD 
BRANCH  12  15
HETATM   15  C   UNL     1      -8.694   8.669  65.314  1.00  0.00    -0.165 A  
HETATM   16  C   UNL     1      -8.438   7.359  65.776  1.00  0.00    -0.149 A  
HETATM   17  C   UNL     1      -8.695   6.864  67.172  1.00  0.00    -0.120 C  
HETATM   18  C   UNL     1      -7.946   6.393  64.875  1.00  0.00    -0.124 A  
HETATM   19  C   UNL     1      -7.746   6.695  63.530  1.00  0.00    -0.110 A  
HETATM   20  C   UNL     1      -8.007   7.979  63.072  1.00  0.00    -0.148 A  
HETATM   21  C   UNL     1      -8.481   8.972  63.945  1.00  0.00    -0.171 A  
HETATM   22  C   UNL     1      -8.666  10.362  63.385  1.00  0.00    -0.201 C  
ENDBRANCH  12  15
ENDBRANCH  10  11
ENDBRANCH   4   5
ENDBRANCH   3   4
ENDBRANCH   2   3
TORSDOF 5
ENDMDL
MODEL      175
REMARK 921   NORMALIZED FREE ENERGY PREDICTED BY IDOCK:   -3.61 KCAL/MOL
REMARK 922        TOTAL FREE ENERGY PREDICTED BY IDOCK:   -5.61 KCAL/MOL
REMARK 923 INTER-LIGAND FREE ENERGY PREDICTED BY IDOCK:   -4.90 KCAL/MOL
REMARK 924 INTRA-LIGAND FREE ENERGY PREDICTED BY IDOCK:   -0.71 KCAL/MOL
REMARK 927      BINDING AFFINITY PREDICTED BY RF-SCORE:    0.00 PKD
ROOT
HETATM    1  C   UNL     1      -8.700   5.909  66.166  1.00  0.00    -0.141 C  
HETATM    2  C   UNL     1      -9.165   6.058  67.609  1.00  0.00    -0.107 C  
ENDROOT
BRANCH   2   3
HETATM    3  C   UNL     1      -8.026   5.811  68.595  1.00  0.00    -0.101 C  
BRANCH   3   4
HETATM    4  C   UNL     1      -8.433   6.093  70.052  1.00  0.00    -0.129 C  
BRANCH   4   5
HETATM    5  N   UNL     1      -9.863   5.844  70.350  1.00  0.00    -0.176 NA 
HETATM    6  C   UNL     1     -10.153   4.409  70.532  1.00  0.00    -0.119 C  
HETATM    7  C   UNL     1      -9.498   3.802  71.777  1.00  0.00    -0.214 C  
HETATM    8  C   UNL     1      -9.860   4.584  73.038  1.00  0.00    -0.176 C  
HETATM    9  C   UNL     1      -9.672   6.091  72.859  1.00  0.00    -0.162 C  
HETATM   10  C   UNL     1     -10.346   6.574  71.567  1.00  0.00    -0.211 C  
BRANCH  10  11
HETATM   11  C   UNL     1     -10.291   8.111  71.386  1.00  0.00    -0.208 C  
HETATM   12  N   UNL     1     -11.065   8.544  70.318  1.00  0.00    -0.307 N  
HETATM   13  O   UNL     1      -9.698   8.841  72.177  1.00  0.00    -0.307 OA 
HETATM   14  H   UNL     1     -11.617   7.832  69.840  1.00  0.00     0.000 HD 
BRANCH  12  15
HETATM   15  C   UNL     1     -11.175   9.862  69.819  1.00  0.00    -0.235 A  
HETATM   16  C   UNL     1     -11.987  10.845  70.428  1.00  0.00    -0.453 A  
HETATM   17  C   UNL     1     -12.837  10.636  71.650  1.00  0.00    -0.570 C  
HETATM   18  C   UNL     1     -11.991  12.155  69.907  1.00  0.00    -0.380 A  
HETATM   19  C   UNL     1     -11.182  12.508  68.831  1.00  0.00    -0.330 A  
HETATM   20  C   UNL     1     -10.376  11.546  68.238  1.00  0.00    -0.211 A  
HETATM   21  C   UNL     1     -10.359  10.226  68.718  1.00  0.00    -0.211 A  
HETATM   22  C   UNL     1      -9.514   9.223  67.970  1.00  0.00    -0.152 C  
ENDBRANCH  12  15
ENDBRANCH  10  11
ENDBRANCH   4   5
ENDBRANCH   3   4
ENDBRANCH   2   3
TORSDOF 5
ENDMDL
MODEL      176
REMARK 921   NORMALIZED FREE ENERGY PREDICTED BY IDOCK:   -3.60 KCAL/MOL
REMARK 922        TOTAL FREE ENERGY PREDICTED BY IDOCK:   -5.60 KCAL/MOL
REMARK 923 INTER-LIGAND FREE ENERGY PREDICTED BY IDOCK:   -4.68 KCAL/MOL
REMARK 924 INTRA-LIGAND FREE ENERGY PREDICTED BY IDOCK:   -0.93 KCAL/MOL
REMARK 927      BINDING AFFINITY PREDICTED BY RF-SCORE:    0.00 PKD
ROOT
HETATM    1  C   UNL     1      -9.209   6.220  71.566  1.00  0.00    -0.149 C  
HETATM    2  C   UNL     1     -10.356   6.916  70.845  1.00  0.00    -0.218 C  
ENDROOT
BRANCH   2   3
HETATM    3  C   UNL     1     -10.839   8.145  71.611  1.00  0.00    -0.306 C  
BRANCH   3   4
HETATM    4  C   UNL     1     -10.707   9.442  70.793  1.00  0.00    -0.305 C  
BRANCH   4   5
HETATM    5  N   UNL     1     -11.868   9.738  69.920  1.00  0.00    -0.030 NA 
HETATM    6  C   UNL     1     -13.139   9.749  70.668  1.00  0.00    -0.035 C  
HETATM    7  C   UNL     1     -13.249  10.894  71.679  1.00  0.00    -0.471 C  
HETATM    8  C   UNL     1     -13.008  12.250  71.018  1.00  0.00    -0.152 C  
HETATM    9  C   UNL     1     -11.751  12.254  70.148  1.00  0.00    -0.280 C  
HETATM   10  C   UNL     1     -11.741  11.047  69.199  1.00  0.00    -0.333 C  
BRANCH  10  11
HETATM   11  C   UNL     1     -10.551  11.055  68.209  1.00  0.00    -0.187 C  
HETATM   12  N   UNL     1     -10.640  10.038  67.268  1.00  0.00    -0.258 N  
HETATM   13  O   UNL     1      -9.695  11.938  68.223  1.00  0.00    -0.192 OA 
HETATM   14  H   UNL     1     -11.486   9.469  67.295  1.00  0.00     0.000 HD 
BRANCH  12  15
HETATM   15  C   UNL     1      -9.689   9.702  66.278  1.00  0.00    -0.240 A  
HETATM   16  C   UNL     1      -8.658   8.761  66.496  1.00  0.00    -0.126 A  
HETATM   17  C   UNL     1      -8.420   8.013  67.778  1.00  0.00    -0.128 C  
HETATM   18  C   UNL     1      -7.789   8.432  65.436  1.00  0.00    -0.108 A  
HETATM   19  C   UNL     1      -7.952   8.986  64.169  1.00  0.00    -0.144 A  
HETATM   20  C   UNL     1      -8.970   9.903  63.950  1.00  0.00    -0.280 A  
HETATM   21  C   UNL     1      -9.844  10.268  64.987  1.00  0.00    -0.397 A  
HETATM   22  C   UNL     1     -10.877  11.329  64.688  1.00  0.00    -0.335 C  
ENDBRANCH  12  15
ENDBRANCH  10  11
ENDBRANCH   4   5
ENDBRANCH   3   4
ENDBRANCH   2   3
TORSDOF 5
ENDMDL
MODEL      177
REMARK 921   NORMALIZED FREE ENERGY PREDICTED BY IDOCK:   -3.60 KCAL/MOL
REMARK 922        TOTAL FREE ENERGY PREDICTED BY IDOCK:   -5.60 KCAL/MOL
REMARK 923 INTER-LIGAND FREE ENERGY PREDICTED BY IDOCK:   -4.69 KCAL/MOL
REMARK 924 INTRA-LIGAND FREE ENERGY PREDICTED BY IDOCK:   -0.91 KCAL/MOL
REMARK 927      BINDING AFFINITY PREDICTED BY RF-SCORE:    0.00 PKD
ROOT
HETATM    1  C   UNL     1      -7.057   9.188  64.943  1.00  0.00    -0.096 C  
HETATM    2  C   UNL     1      -8.540   9.381  64.657  1.00  0.00    -0.209 C  
ENDROOT
BRANCH   2   3
HETATM    3  C   UNL     1      -9.409   8.720  65.726  1.00  0.00    -0.259 C  
BRANCH   3   4
HETATM    4  C   UNL     1      -8.596   8.253  66.945  1.00  0.00    -0.119 C  
BRANCH   4   5
HETATM    5  N   UNL     1      -8.786   6.826  67.301  1.00  0.00    -0.117 NA 
HETATM    6  C   UNL     1      -7.619   6.000  66.936  1.00  0.00    -0.096 C  
HETATM    7  C   UNL     1      -6.359   6.324  67.743  1.00  0.00    -0.037 C  
HETATM    8  C   UNL     1      -6.621   6.244  69.246  1.00  0.00    -0.044 C  
HETATM    9  C   UNL     1      -7.883   7.004  69.656  1.00  0.00    -0.119 C  
HETATM   10  C   UNL     1      -9.067   6.617  68.758  1.00  0.00    -0.131 C  
BRANCH  10  11
HETATM   11  C   UNL     1     -10.404   7.265  69.194  1.00  0.00    -0.205 C  
HETATM   12  N   UNL     1     -10.212   8.413  69.951  1.00  0.00    -0.197 N  
HETATM   13  O   UNL     1     -11.492   6.840  68.811  1.00  0.00    -0.090 OA 
HETATM   14  H   UNL     1      -9.247   8.723  70.067  1.00  0.00     0.000 HD 
BRANCH  12  15
HETATM   15  C   UNL     1     -11.204   9.199  70.581  1.00  0.00    -0.270 A  
HETATM   16  C   UNL     1     -11.743  10.365  69.991  1.00  0.00    -0.366 A  
HETATM   17  C   UNL     1     -11.342  10.929  68.656  1.00  0.00    -0.360 C  
HETATM   18  C   UNL     1     -12.776  11.058  70.654  1.00  0.00    -0.375 A  
HETATM   19  C   UNL     1     -13.302  10.594  71.856  1.00  0.00    -0.454 A  
HETATM   20  C   UNL     1     -12.781   9.444  72.432  1.00  0.00    -0.350 A  
HETATM   21  C   UNL     1     -11.739   8.737  71.809  1.00  0.00    -0.416 A  
HETATM   22  C   UNL     1     -11.176   7.539  72.537  1.00  0.00    -0.381 C  
ENDBRANCH  12  15
ENDBRANCH  10  11
ENDBRANCH   4   5
ENDBRANCH   3   4
ENDBRANCH   2   3
TORSDOF 5
ENDMDL
MODEL      178
REMARK 921   NORMALIZED FREE ENERGY PREDICTED BY IDOCK:   -3.58 KCAL/MOL
REMARK 922        TOTAL FREE ENERGY PREDICTED BY IDOCK:   -5.58 KCAL/MOL
REMARK 923 INTER-LIGAND FREE ENERGY PREDICTED BY IDOCK:   -5.27 KCAL/MOL
REMARK 924 INTRA-LIGAND FREE ENERGY PREDICTED BY IDOCK:   -0.30 KCAL/MOL
REMARK 927      BINDING AFFINITY PREDICTED BY RF-SCORE:    0.00 PKD
ROOT
HETATM    1  C   UNL     1     -10.256   9.508  71.048  1.00  0.00    -0.332 C  
HETATM    2  C   UNL     1      -8.883   8.858  71.147  1.00  0.00    -0.297 C  
ENDROOT
BRANCH   2   3
HETATM    3  C   UNL     1      -7.981   9.268  69.984  1.00  0.00    -0.124 C  
BRANCH   3   4
HETATM    4  C   UNL     1      -8.776   9.634  68.719  1.00  0.00    -0.126 C  
BRANCH   4   5
HETATM    5  N   UNL     1      -7.941  10.054  67.569  1.00  0.00    -0.106 NA 
HETATM    6  C   UNL     1      -6.759   9.188  67.393  1.00  0.00    -0.069 C  
HETATM    7  C   UNL     1      -7.101   7.754  66.982  1.00  0.00    -0.085 C  
HETATM    8  C   UNL     1      -7.975   7.724  65.729  1.00  0.00    -0.114 C  
HETATM    9  C   UNL     1      -9.160   8.685  65.826  1.00  0.00    -0.242 C  
HETATM   10  C   UNL     1      -8.695  10.078  66.273  1.00  0.00    -0.136 C  
BRANCH  10  11
HETATM   11  C   UNL     1      -9.832  11.130  66.280  1.00  0.00    -0.214 C  
HETATM   12  N   UNL     1      -9.647  12.114  65.318  1.00  0.00    -0.423 N  
HETATM   13  O   UNL     1     -10.820  11.019  67.003  1.00  0.00    -0.260 OA 
HETATM   14  H   UNL     1      -8.849  11.992  64.693  1.00  0.00     0.000 HD 
BRANCH  12  15
HETATM   15  C   UNL     1     -10.439  13.265  65.106  1.00  0.00    -0.333 A  
HETATM   16  C   UNL     1     -10.155  14.510  65.711  1.00  0.00    -0.365 A  
HETATM   17  C   UNL     1      -9.012  14.780  66.650  1.00  0.00    -0.286 C  
HETATM   18  C   UNL     1     -10.955  15.627  65.398  1.00  0.00    -0.342 A  
HETATM   19  C   UNL     1     -11.994  15.536  64.475  1.00  0.00    -0.172 A  
HETATM   20  C   UNL     1     -12.268  14.317  63.872  1.00  0.00    -0.233 A  
HETATM   21  C   UNL     1     -11.503  13.178  64.173  1.00  0.00    -0.449 A  
HETATM   22  C   UNL     1     -11.914  11.873  63.534  1.00  0.00    -0.567 C  
ENDBRANCH  12  15
ENDBRANCH  10  11
ENDBRANCH   4   5
ENDBRANCH   3   4
ENDBRANCH   2   3
TORSDOF 5
ENDMDL
MODEL      179
REMARK 921   NORMALIZED FREE ENERGY PREDICTED BY IDOCK:   -3.58 KCAL/MOL
REMARK 922        TOTAL FREE ENERGY PREDICTED BY IDOCK:   -5.57 KCAL/MOL
REMARK 923 INTER-LIGAND FREE ENERGY PREDICTED BY IDOCK:   -4.88 KCAL/MOL
REMARK 924 INTRA-LIGAND FREE ENERGY PREDICTED BY IDOCK:   -0.69 KCAL/MOL
REMARK 927      BINDING AFFINITY PREDICTED BY RF-SCORE:    0.00 PKD
ROOT
HETATM    1  C   UNL     1      -9.567   6.095  67.830  1.00  0.00    -0.118 C  
HETATM    2  C   UNL     1     -10.705   6.807  67.111  1.00  0.00    -0.441 C  
ENDROOT
BRANCH   2   3
HETATM    3  C   UNL     1     -10.418   8.298  66.942  1.00  0.00    -0.365 C  
BRANCH   3   4
HETATM    4  C   UNL     1      -9.216   8.768  67.780  1.00  0.00    -0.134 C  
BRANCH   4   5
HETATM    5  N   UNL     1      -9.566   9.663  68.908  1.00  0.00    -0.157 NA 
HETATM    6  C   UNL     1      -9.604   8.946  70.197  1.00  0.00    -0.180 C  
HETATM    7  C   UNL     1      -8.236   8.436  70.658  1.00  0.00    -0.117 C  
HETATM    8  C   UNL     1      -7.204   9.561  70.704  1.00  0.00    -0.130 C  
HETATM    9  C   UNL     1      -7.201  10.397  69.424  1.00  0.00    -0.109 C  
HETATM   10  C   UNL     1      -8.627  10.824  69.049  1.00  0.00    -0.138 C  
BRANCH  10  11
HETATM   11  C   UNL     1      -8.682  11.771  67.825  1.00  0.00    -0.155 C  
HETATM   12  N   UNL     1      -9.762  12.641  67.878  1.00  0.00    -0.210 N  
HETATM   13  O   UNL     1      -7.796  11.788  66.973  1.00  0.00    -0.155 OA 
HETATM   14  H   UNL     1     -10.333  12.604  68.723  1.00  0.00     0.000 HD 
BRANCH  12  15
HETATM   15  C   UNL     1     -10.161  13.572  66.892  1.00  0.00    -0.256 A  
HETATM   16  C   UNL     1     -10.010  14.968  67.053  1.00  0.00    -0.242 A  
HETATM   17  C   UNL     1      -9.434  15.646  68.265  1.00  0.00    -0.200 C  
HETATM   18  C   UNL     1     -10.373  15.827  65.996  1.00  0.00    -0.356 A  
HETATM   19  C   UNL     1     -10.838  15.325  64.784  1.00  0.00    -0.379 A  
HETATM   20  C   UNL     1     -10.977  13.953  64.620  1.00  0.00    -0.406 A  
HETATM   21  C   UNL     1     -10.643  13.068  65.658  1.00  0.00    -0.297 A  
HETATM   22  C   UNL     1     -10.896  11.597  65.428  1.00  0.00    -0.336 C  
ENDBRANCH  12  15
ENDBRANCH  10  11
ENDBRANCH   4   5
ENDBRANCH   3   4
ENDBRANCH   2   3
TORSDOF 5
ENDMDL
MODEL      180
REMARK 921   NORMALIZED FREE ENERGY PREDICTED BY IDOCK:   -3.58 KCAL/MOL
REMARK 922        TOTAL FREE ENERGY PREDICTED BY IDOCK:   -5.57 KCAL/MOL
REMARK 923 INTER-LIGAND FREE ENERGY PREDICTED BY IDOCK:   -4.74 KCAL/MOL
REMARK 924 INTRA-LIGAND FREE ENERGY PREDICTED BY IDOCK:   -0.83 KCAL/MOL
REMARK 927      BINDING AFFINITY PREDICTED BY RF-SCORE:    0.00 PKD
ROOT
HETATM    1  C   UNL     1      -9.588   6.222  69.682  1.00  0.00    -0.163 C  
HETATM    2  C   UNL     1      -8.769   6.769  68.521  1.00  0.00    -0.124 C  
ENDROOT
BRANCH   2   3
HETATM    3  C   UNL     1      -9.307   8.115  68.037  1.00  0.00    -0.144 C  
BRANCH   3   4
HETATM    4  C   UNL     1      -8.236   9.219  68.049  1.00  0.00    -0.115 C  
BRANCH   4   5
HETATM    5  N   UNL     1      -8.394  10.217  69.133  1.00  0.00    -0.143 NA 
HETATM    6  C   UNL     1      -7.272  10.182  70.091  1.00  0.00    -0.154 C  
HETATM    7  C   UNL     1      -5.937  10.629  69.491  1.00  0.00    -0.048 C  
HETATM    8  C   UNL     1      -6.046  12.011  68.848  1.00  0.00    -0.067 C  
HETATM    9  C   UNL     1      -7.258  12.125  67.923  1.00  0.00    -0.102 C  
HETATM   10  C   UNL     1      -8.527  11.621  68.624  1.00  0.00    -0.094 C  
BRANCH  10  11
HETATM   11  C   UNL     1      -9.812  11.817  67.782  1.00  0.00    -0.181 C  
HETATM   12  N   UNL     1      -9.533  12.149  66.463  1.00  0.00    -0.226 N  
HETATM   13  O   UNL     1     -10.932  11.598  68.238  1.00  0.00    -0.199 OA 
HETATM   14  H   UNL     1      -8.548  12.153  66.196  1.00  0.00     0.000 HD 
BRANCH  12  15
HETATM   15  C   UNL     1     -10.460  12.480  65.449  1.00  0.00    -0.282 A  
HETATM   16  C   UNL     1     -11.195  13.687  65.450  1.00  0.00    -0.306 A  
HETATM   17  C   UNL     1     -11.112  14.755  66.506  1.00  0.00    -0.334 C  
HETATM   18  C   UNL     1     -12.052  13.974  64.368  1.00  0.00    -0.486 A  
HETATM   19  C   UNL     1     -12.156  13.111  63.281  1.00  0.00    -0.460 A  
HETATM   20  C   UNL     1     -11.427  11.930  63.273  1.00  0.00    -0.376 A  
HETATM   21  C   UNL     1     -10.577  11.603  64.342  1.00  0.00    -0.377 A  
HETATM   22  C   UNL     1      -9.878  10.265  64.293  1.00  0.00    -0.357 C  
ENDBRANCH  12  15
ENDBRANCH  10  11
ENDBRANCH   4   5
ENDBRANCH   3   4
ENDBRANCH   2   3
TORSDOF 5
ENDMDL
MODEL      181
REMARK 921   NORMALIZED FREE ENERGY PREDICTED BY IDOCK:   -3.58 KCAL/MOL
REMARK 922        TOTAL FREE ENERGY PREDICTED BY IDOCK:   -5.57 KCAL/MOL
REMARK 923 INTER-LIGAND FREE ENERGY PREDICTED BY IDOCK:   -4.52 KCAL/MOL
REMARK 924 INTRA-LIGAND FREE ENERGY PREDICTED BY IDOCK:   -1.05 KCAL/MOL
REMARK 927      BINDING AFFINITY PREDICTED BY RF-SCORE:    0.00 PKD
ROOT
HETATM    1  C   UNL     1     -12.458   9.614  71.598  1.00  0.00    -0.494 C  
HETATM    2  C   UNL     1     -11.428   8.682  70.972  1.00  0.00    -0.324 C  
ENDROOT
BRANCH   2   3
HETATM    3  C   UNL     1     -10.112   9.405  70.692  1.00  0.00    -0.356 C  
BRANCH   3   4
HETATM    4  C   UNL     1      -9.691   9.316  69.215  1.00  0.00    -0.169 C  
BRANCH   4   5
HETATM    5  N   UNL     1     -10.816   9.358  68.252  1.00  0.00    -0.162 NA 
HETATM    6  C   UNL     1     -11.033  10.712  67.707  1.00  0.00    -0.306 C  
HETATM    7  C   UNL     1      -9.887  11.210  66.821  1.00  0.00    -0.230 C  
HETATM    8  C   UNL     1      -9.581  10.224  65.695  1.00  0.00    -0.289 C  
HETATM    9  C   UNL     1      -9.449   8.788  66.202  1.00  0.00    -0.315 C  
HETATM   10  C   UNL     1     -10.639   8.416  67.099  1.00  0.00    -0.256 C  
BRANCH  10  11
HETATM   11  C   UNL     1     -10.625   6.936  67.552  1.00  0.00    -0.281 C  
HETATM   12  N   UNL     1      -9.447   6.288  67.206  1.00  0.00    -0.117 N  
HETATM   13  O   UNL     1     -11.531   6.451  68.227  1.00  0.00    -0.186 OA 
HETATM   14  H   UNL     1      -8.724   6.863  66.773  1.00  0.00     0.000 HD 
BRANCH  12  15
HETATM   15  C   UNL     1      -9.136   4.921  67.387  1.00  0.00    -0.117 A  
HETATM   16  C   UNL     1      -9.426   3.936  66.416  1.00  0.00    -0.204 A  
HETATM   17  C   UNL     1     -10.100   4.189  65.096  1.00  0.00    -0.219 C  
HETATM   18  C   UNL     1      -9.025   2.604  66.644  1.00  0.00    -0.156 A  
HETATM   19  C   UNL     1      -8.314   2.249  67.786  1.00  0.00    -0.081 A  
HETATM   20  C   UNL     1      -8.018   3.217  68.736  1.00  0.00    -0.064 A  
HETATM   21  C   UNL     1      -8.418   4.551  68.552  1.00  0.00    -0.096 A  
HETATM   22  C   UNL     1      -8.126   5.527  69.667  1.00  0.00    -0.101 C  
ENDBRANCH  12  15
ENDBRANCH  10  11
ENDBRANCH   4   5
ENDBRANCH   3   4
ENDBRANCH   2   3
TORSDOF 5
ENDMDL
MODEL      182
REMARK 921   NORMALIZED FREE ENERGY PREDICTED BY IDOCK:   -3.57 KCAL/MOL
REMARK 922        TOTAL FREE ENERGY PREDICTED BY IDOCK:   -5.57 KCAL/MOL
REMARK 923 INTER-LIGAND FREE ENERGY PREDICTED BY IDOCK:   -4.72 KCAL/MOL
REMARK 924 INTRA-LIGAND FREE ENERGY PREDICTED BY IDOCK:   -0.85 KCAL/MOL
REMARK 927      BINDING AFFINITY PREDICTED BY RF-SCORE:    0.00 PKD
ROOT
HETATM    1  C   UNL     1     -10.380  10.396  66.348  1.00  0.00    -0.278 C  
HETATM    2  C   UNL     1      -9.300   9.611  67.081  1.00  0.00    -0.168 C  
ENDROOT
BRANCH   2   3
HETATM    3  C   UNL     1      -9.881   8.400  67.809  1.00  0.00    -0.218 C  
BRANCH   3   4
HETATM    4  C   UNL     1     -11.043   8.773  68.746  1.00  0.00     0.261 C  
BRANCH   4   5
HETATM    5  N   UNL     1     -10.623   9.226  70.094  1.00  0.00    -0.217 NA 
HETATM    6  C   UNL     1     -10.422  10.687  70.154  1.00  0.00     0.090 C  
HETATM    7  C   UNL     1     -11.711  11.493  69.976  1.00  0.00    -0.414 C  
HETATM    8  C   UNL     1     -12.785  11.061  70.973  1.00  0.00    -0.485 C  
HETATM    9  C   UNL     1     -12.956   9.543  71.019  1.00  0.00    -0.277 C  
HETATM   10  C   UNL     1     -11.596   8.846  71.170  1.00  0.00    -0.300 C  
BRANCH  10  11
HETATM   11  C   UNL     1     -11.709   7.311  71.339  1.00  0.00    -0.287 C  
HETATM   12  N   UNL     1     -10.470   6.704  71.489  1.00  0.00    -0.214 N  
HETATM   13  O   UNL     1     -12.795   6.742  71.425  1.00  0.00    -0.335 OA 
HETATM   14  H   UNL     1      -9.663   7.327  71.541  1.00  0.00     0.000 HD 
BRANCH  12  15
HETATM   15  C   UNL     1     -10.200   5.319  71.578  1.00  0.00    -0.212 A  
HETATM   16  C   UNL     1      -9.902   4.524  70.448  1.00  0.00    -0.302 A  
HETATM   17  C   UNL     1      -9.845   5.017  69.029  1.00  0.00    -0.252 C  
HETATM   18  C   UNL     1      -9.580   3.164  70.628  1.00  0.00    -0.212 A  
HETATM   19  C   UNL     1      -9.510   2.600  71.899  1.00  0.00    -0.196 A  
HETATM   20  C   UNL     1      -9.792   3.381  73.010  1.00  0.00    -0.195 A  
HETATM   21  C   UNL     1     -10.135   4.736  72.869  1.00  0.00    -0.212 A  
HETATM   22  C   UNL     1     -10.502   5.497  74.120  1.00  0.00    -0.297 C  
ENDBRANCH  12  15
ENDBRANCH  10  11
ENDBRANCH   4   5
ENDBRANCH   3   4
ENDBRANCH   2   3
TORSDOF 5
ENDMDL
MODEL      183
REMARK 921   NORMALIZED FREE ENERGY PREDICTED BY IDOCK:   -3.56 KCAL/MOL
REMARK 922        TOTAL FREE ENERGY PREDICTED BY IDOCK:   -5.55 KCAL/MOL
REMARK 923 INTER-LIGAND FREE ENERGY PREDICTED BY IDOCK:   -4.68 KCAL/MOL
REMARK 924 INTRA-LIGAND FREE ENERGY PREDICTED BY IDOCK:   -0.86 KCAL/MOL
REMARK 927      BINDING AFFINITY PREDICTED BY RF-SCORE:    0.00 PKD
ROOT
HETATM    1  C   UNL     1      -8.208   6.645  73.917  1.00  0.00    -0.128 C  
HETATM    2  C   UNL     1      -7.843   5.683  72.794  1.00  0.00    -0.102 C  
ENDROOT
BRANCH   2   3
HETATM    3  C   UNL     1      -9.017   4.779  72.424  1.00  0.00    -0.138 C  
BRANCH   3   4
HETATM    4  C   UNL     1      -9.355   4.832  70.923  1.00  0.00    -0.148 C  
BRANCH   4   5
HETATM    5  N   UNL     1      -8.328   5.496  70.085  1.00  0.00    -0.114 NA 
HETATM    6  C   UNL     1      -7.672   4.554  69.158  1.00  0.00    -0.059 C  
HETATM    7  C   UNL     1      -8.605   4.005  68.075  1.00  0.00    -0.110 C  
HETATM    8  C   UNL     1      -9.286   5.131  67.299  1.00  0.00    -0.119 C  
HETATM    9  C   UNL     1      -9.893   6.187  68.223  1.00  0.00    -0.138 C  
HETATM   10  C   UNL     1      -8.873   6.636  69.280  1.00  0.00    -0.133 C  
BRANCH  10  11
HETATM   11  C   UNL     1      -9.388   7.790  70.176  1.00  0.00    -0.153 C  
HETATM   12  N   UNL     1     -10.715   8.106  69.920  1.00  0.00    -0.246 N  
HETATM   13  O   UNL     1      -8.700   8.278  71.071  1.00  0.00    -0.129 OA 
HETATM   14  H   UNL     1     -11.200   7.513  69.246  1.00  0.00     0.000 HD 
BRANCH  12  15
HETATM   15  C   UNL     1     -11.470   9.156  70.489  1.00  0.00    -0.229 A  
HETATM   16  C   UNL     1     -11.294  10.509  70.124  1.00  0.00    -0.400 A  
HETATM   17  C   UNL     1     -10.298  11.016  69.118  1.00  0.00    -0.210 C  
HETATM   18  C   UNL     1     -12.133  11.491  70.690  1.00  0.00    -0.450 A  
HETATM   19  C   UNL     1     -13.156  11.148  71.570  1.00  0.00    -0.489 A  
HETATM   20  C   UNL     1     -13.337   9.818  71.922  1.00  0.00    -0.530 A  
HETATM   21  C   UNL     1     -12.509   8.815  71.392  1.00  0.00    -0.348 A  
HETATM   22  C   UNL     1     -12.722   7.403  71.884  1.00  0.00    -0.310 C  
ENDBRANCH  12  15
ENDBRANCH  10  11
ENDBRANCH   4   5
ENDBRANCH   3   4
ENDBRANCH   2   3
TORSDOF 5
ENDMDL
MODEL      184
REMARK 921   NORMALIZED FREE ENERGY PREDICTED BY IDOCK:   -3.56 KCAL/MOL
REMARK 922        TOTAL FREE ENERGY PREDICTED BY IDOCK:   -5.54 KCAL/MOL
REMARK 923 INTER-LIGAND FREE ENERGY PREDICTED BY IDOCK:   -4.61 KCAL/MOL
REMARK 924 INTRA-LIGAND FREE ENERGY PREDICTED BY IDOCK:   -0.94 KCAL/MOL
REMARK 927      BINDING AFFINITY PREDICTED BY RF-SCORE:    0.00 PKD
ROOT
HETATM    1  C   UNL     1     -11.484  12.165  67.337  1.00  0.00    -0.415 C  
HETATM    2  C   UNL     1     -10.833  13.227  66.460  1.00  0.00    -0.288 C  
ENDROOT
BRANCH   2   3
HETATM    3  C   UNL     1      -9.380  13.476  66.863  1.00  0.00    -0.255 C  
BRANCH   3   4
HETATM    4  C   UNL     1      -8.904  12.528  67.978  1.00  0.00    -0.187 C  
BRANCH   4   5
HETATM    5  N   UNL     1      -7.779  11.644  67.594  1.00  0.00    -0.125 NA 
HETATM    6  C   UNL     1      -6.609  12.407  67.118  1.00  0.00    -0.089 C  
HETATM    7  C   UNL     1      -5.942  13.254  68.205  1.00  0.00    -0.090 C  
HETATM    8  C   UNL     1      -5.569  12.410  69.423  1.00  0.00    -0.079 C  
HETATM    9  C   UNL     1      -6.724  11.524  69.890  1.00  0.00     0.002 C  
HETATM   10  C   UNL     1      -7.328  10.749  68.709  1.00  0.00    -0.104 C  
BRANCH  10  11
HETATM   11  C   UNL     1      -8.428   9.746  69.134  1.00  0.00    -0.143 C  
HETATM   12  N   UNL     1      -8.790   9.891  70.466  1.00  0.00    -0.271 N  
HETATM   13  O   UNL     1      -8.967   8.989  68.329  1.00  0.00    -0.133 OA 
HETATM   14  H   UNL     1      -8.355  10.662  70.972  1.00  0.00     0.000 HD 
BRANCH  12  15
HETATM   15  C   UNL     1      -9.693   9.089  71.200  1.00  0.00    -0.299 A  
HETATM   16  C   UNL     1     -11.077   9.367  71.272  1.00  0.00    -0.446 A  
HETATM   17  C   UNL     1     -11.766  10.528  70.611  1.00  0.00    -0.453 C  
HETATM   18  C   UNL     1     -11.922   8.482  71.972  1.00  0.00    -0.427 A  
HETATM   19  C   UNL     1     -11.427   7.321  72.557  1.00  0.00    -0.322 A  
HETATM   20  C   UNL     1     -10.070   7.041  72.479  1.00  0.00    -0.198 A  
HETATM   21  C   UNL     1      -9.194   7.909  71.805  1.00  0.00    -0.194 A  
HETATM   22  C   UNL     1      -7.722   7.573  71.831  1.00  0.00    -0.088 C  
ENDBRANCH  12  15
ENDBRANCH  10  11
ENDBRANCH   4   5
ENDBRANCH   3   4
ENDBRANCH   2   3
TORSDOF 5
ENDMDL
MODEL      185
REMARK 921   NORMALIZED FREE ENERGY PREDICTED BY IDOCK:   -3.54 KCAL/MOL
REMARK 922        TOTAL FREE ENERGY PREDICTED BY IDOCK:   -5.52 KCAL/MOL
REMARK 923 INTER-LIGAND FREE ENERGY PREDICTED BY IDOCK:   -4.64 KCAL/MOL
REMARK 924 INTRA-LIGAND FREE ENERGY PREDICTED BY IDOCK:   -0.88 KCAL/MOL
REMARK 927      BINDING AFFINITY PREDICTED BY RF-SCORE:    0.00 PKD
ROOT
HETATM    1  C   UNL     1      -6.064  12.344  68.778  1.00  0.00    -0.069 C  
HETATM    2  C   UNL     1      -6.814  13.356  67.923  1.00  0.00    -0.144 C  
ENDROOT
BRANCH   2   3
HETATM    3  C   UNL     1      -8.298  13.011  67.813  1.00  0.00    -0.175 C  
BRANCH   3   4
HETATM    4  C   UNL     1      -8.606  12.093  66.617  1.00  0.00    -0.122 C  
BRANCH   4   5
HETATM    5  N   UNL     1     -10.026  11.683  66.508  1.00  0.00    -0.199 NA 
HETATM    6  C   UNL     1     -10.879  12.765  65.981  1.00  0.00    -0.276 C  
HETATM    7  C   UNL     1     -10.580  13.131  64.524  1.00  0.00    -0.425 C  
HETATM    8  C   UNL     1     -10.647  11.907  63.613  1.00  0.00    -0.500 C  
HETATM    9  C   UNL     1      -9.857  10.724  64.173  1.00  0.00    -0.384 C  
HETATM   10  C   UNL     1     -10.222  10.473  65.644  1.00  0.00    -0.246 C  
BRANCH  10  11
HETATM   11  C   UNL     1      -9.542   9.215  66.238  1.00  0.00    -0.255 C  
HETATM   12  N   UNL     1     -10.109   8.829  67.445  1.00  0.00    -0.207 N  
HETATM   13  O   UNL     1      -8.668   8.598  65.632  1.00  0.00    -0.163 OA 
HETATM   14  H   UNL     1     -10.925   9.358  67.752  1.00  0.00     0.000 HD 
BRANCH  12  15
HETATM   15  C   UNL     1      -9.682   7.785  68.296  1.00  0.00    -0.159 A  
HETATM   16  C   UNL     1      -8.790   7.992  69.372  1.00  0.00    -0.144 A  
HETATM   17  C   UNL     1      -8.173   9.311  69.748  1.00  0.00    -0.131 C  
HETATM   18  C   UNL     1      -8.463   6.911  70.215  1.00  0.00    -0.139 A  
HETATM   19  C   UNL     1      -9.033   5.654  70.033  1.00  0.00    -0.150 A  
HETATM   20  C   UNL     1      -9.918   5.451  68.983  1.00  0.00    -0.260 A  
HETATM   21  C   UNL     1     -10.252   6.500  68.111  1.00  0.00    -0.194 A  
HETATM   22  C   UNL     1     -11.161   6.178  66.948  1.00  0.00    -0.301 C  
ENDBRANCH  12  15
ENDBRANCH  10  11
ENDBRANCH   4   5
ENDBRANCH   3   4
ENDBRANCH   2   3
TORSDOF 5
ENDMDL
MODEL      186
REMARK 921   NORMALIZED FREE ENERGY PREDICTED BY IDOCK:   -3.54 KCAL/MOL
REMARK 922        TOTAL FREE ENERGY PREDICTED BY IDOCK:   -5.52 KCAL/MOL
REMARK 923 INTER-LIGAND FREE ENERGY PREDICTED BY IDOCK:   -5.04 KCAL/MOL
REMARK 924 INTRA-LIGAND FREE ENERGY PREDICTED BY IDOCK:   -0.48 KCAL/MOL
REMARK 927      BINDING AFFINITY PREDICTED BY RF-SCORE:    0.00 PKD
ROOT
HETATM    1  C   UNL     1      -6.462  12.529  68.782  1.00  0.00    -0.084 C  
HETATM    2  C   UNL     1      -6.479  13.159  67.396  1.00  0.00    -0.079 C  
ENDROOT
BRANCH   2   3
HETATM    3  C   UNL     1      -7.383  14.389  67.347  1.00  0.00    -0.167 C  
BRANCH   3   4
HETATM    4  C   UNL     1      -8.875  14.023  67.252  1.00  0.00    -0.218 C  
BRANCH   4   5
HETATM    5  N   UNL     1      -9.588  14.007  68.552  1.00  0.00    -0.216 NA 
HETATM    6  C   UNL     1      -9.495  15.301  69.254  1.00  0.00    -0.242 C  
HETATM    7  C   UNL     1     -10.231  16.441  68.544  1.00  0.00    -0.257 C  
HETATM    8  C   UNL     1     -11.692  16.083  68.276  1.00  0.00    -0.136 C  
HETATM    9  C   UNL     1     -11.842  14.701  67.640  1.00  0.00    -0.366 C  
HETATM   10  C   UNL     1     -11.038  13.651  68.421  1.00  0.00    -0.264 C  
BRANCH  10  11
HETATM   11  C   UNL     1     -11.241  12.209  67.897  1.00  0.00    -0.272 C  
HETATM   12  N   UNL     1     -10.376  11.303  68.495  1.00  0.00    -0.195 N  
HETATM   13  O   UNL     1     -12.142  11.920  67.112  1.00  0.00    -0.590 OA 
HETATM   14  H   UNL     1      -9.778  11.669  69.237  1.00  0.00     0.000 HD 
BRANCH  12  15
HETATM   15  C   UNL     1     -10.229   9.930  68.192  1.00  0.00    -0.179 A  
HETATM   16  C   UNL     1     -10.602   8.905  69.091  1.00  0.00    -0.211 A  
HETATM   17  C   UNL     1     -11.176   9.119  70.464  1.00  0.00    -0.309 C  
HETATM   18  C   UNL     1     -10.485   7.559  68.689  1.00  0.00    -0.207 A  
HETATM   19  C   UNL     1     -10.049   7.223  67.410  1.00  0.00    -0.266 A  
HETATM   20  C   UNL     1      -9.693   8.228  66.522  1.00  0.00    -0.323 A  
HETATM   21  C   UNL     1      -9.779   9.580  66.894  1.00  0.00    -0.237 A  
HETATM   22  C   UNL     1      -9.300  10.609  65.899  1.00  0.00    -0.224 C  
ENDBRANCH  12  15
ENDBRANCH  10  11
ENDBRANCH   4   5
ENDBRANCH   3   4
ENDBRANCH   2   3
TORSDOF 5
ENDMDL
MODEL      187
REMARK 921   NORMALIZED FREE ENERGY PREDICTED BY IDOCK:   -3.53 KCAL/MOL
REMARK 922        TOTAL FREE ENERGY PREDICTED BY IDOCK:   -5.51 KCAL/MOL
REMARK 923 INTER-LIGAND FREE ENERGY PREDICTED BY IDOCK:   -4.92 KCAL/MOL
REMARK 924 INTRA-LIGAND FREE ENERGY PREDICTED BY IDOCK:   -0.59 KCAL/MOL
REMARK 927      BINDING AFFINITY PREDICTED BY RF-SCORE:    0.00 PKD
ROOT
HETATM    1  C   UNL     1      -6.748  12.834  68.992  1.00  0.00    -0.096 C  
HETATM    2  C   UNL     1      -6.260  13.540  67.734  1.00  0.00    -0.159 C  
ENDROOT
BRANCH   2   3
HETATM    3  C   UNL     1      -6.831  14.952  67.624  1.00  0.00    -0.204 C  
BRANCH   3   4
HETATM    4  C   UNL     1      -8.311  14.961  67.201  1.00  0.00    -0.221 C  
BRANCH   4   5
HETATM    5  N   UNL     1      -9.171  15.872  67.993  1.00  0.00    -0.192 NA 
HETATM    6  C   UNL     1      -8.679  17.263  67.971  1.00  0.00    -0.231 C  
HETATM    7  C   UNL     1      -8.766  17.924  66.592  1.00  0.00    -0.280 C  
HETATM    8  C   UNL     1     -10.182  17.849  66.023  1.00  0.00    -0.297 C  
HETATM    9  C   UNL     1     -10.772  16.442  66.120  1.00  0.00    -0.174 C  
HETATM   10  C   UNL     1     -10.599  15.876  67.537  1.00  0.00    -0.315 C  
BRANCH  10  11
HETATM   11  C   UNL     1     -11.278  14.498  67.734  1.00  0.00    -0.298 C  
HETATM   12  N   UNL     1     -10.559  13.671  68.585  1.00  0.00    -0.248 N  
HETATM   13  O   UNL     1     -12.380  14.239  67.253  1.00  0.00    -0.337 OA 
HETATM   14  H   UNL     1      -9.733  14.080  69.023  1.00  0.00     0.000 HD 
BRANCH  12  15
HETATM   15  C   UNL     1     -10.841  12.326  68.914  1.00  0.00    -0.196 A  
HETATM   16  C   UNL     1     -11.654  11.962  70.011  1.00  0.00    -0.301 A  
HETATM   17  C   UNL     1     -12.305  12.922  70.967  1.00  0.00    -0.318 C  
HETATM   18  C   UNL     1     -11.941  10.600  70.233  1.00  0.00    -0.425 A  
HETATM   19  C   UNL     1     -11.474   9.612  69.371  1.00  0.00     0.048 A  
HETATM   20  C   UNL     1     -10.684   9.969  68.287  1.00  0.00    -0.280 A  
HETATM   21  C   UNL     1     -10.362  11.314  68.044  1.00  0.00    -0.204 A  
HETATM   22  C   UNL     1      -9.435  11.612  66.889  1.00  0.00    -0.195 C  
ENDBRANCH  12  15
ENDBRANCH  10  11
ENDBRANCH   4   5
ENDBRANCH   3   4
ENDBRANCH   2   3
TORSDOF 5
ENDMDL
MODEL      188
REMARK 921   NORMALIZED FREE ENERGY PREDICTED BY IDOCK:   -3.53 KCAL/MOL
REMARK 922        TOTAL FREE ENERGY PREDICTED BY IDOCK:   -5.51 KCAL/MOL
REMARK 923 INTER-LIGAND FREE ENERGY PREDICTED BY IDOCK:   -4.60 KCAL/MOL
REMARK 924 INTRA-LIGAND FREE ENERGY PREDICTED BY IDOCK:   -0.90 KCAL/MOL
REMARK 927      BINDING AFFINITY PREDICTED BY RF-SCORE:    0.00 PKD
ROOT
HETATM    1  C   UNL     1      -7.733  13.556  68.238  1.00  0.00    -0.137 C  
HETATM    2  C   UNL     1      -8.526  13.580  66.939  1.00  0.00    -0.066 C  
ENDROOT
BRANCH   2   3
HETATM    3  C   UNL     1      -9.286  12.274  66.718  1.00  0.00    -0.218 C  
BRANCH   3   4
HETATM    4  C   UNL     1      -8.423  11.032  67.002  1.00  0.00    -0.141 C  
BRANCH   4   5
HETATM    5  N   UNL     1      -9.148   9.743  66.899  1.00  0.00    -0.141 NA 
HETATM    6  C   UNL     1      -8.777   8.990  65.686  1.00  0.00    -0.175 C  
HETATM    7  C   UNL     1      -7.327   8.497  65.686  1.00  0.00    -0.084 C  
HETATM    8  C   UNL     1      -7.014   7.680  66.937  1.00  0.00    -0.079 C  
HETATM    9  C   UNL     1      -7.475   8.378  68.217  1.00  0.00    -0.096 C  
HETATM   10  C   UNL     1      -8.930   8.851  68.084  1.00  0.00    -0.137 C  
BRANCH  10  11
HETATM   11  C   UNL     1      -9.495   9.464  69.389  1.00  0.00    -0.173 C  
HETATM   12  N   UNL     1     -10.878   9.583  69.360  1.00  0.00    -0.282 N  
HETATM   13  O   UNL     1      -8.780   9.714  70.357  1.00  0.00    -0.221 OA 
HETATM   14  H   UNL     1     -11.349   9.198  68.541  1.00  0.00     0.000 HD 
BRANCH  12  15
HETATM   15  C   UNL     1     -11.707  10.176  70.339  1.00  0.00    -0.308 A  
HETATM   16  C   UNL     1     -11.949  11.567  70.394  1.00  0.00    -0.459 A  
HETATM   17  C   UNL     1     -11.366  12.589  69.458  1.00  0.00    -0.240 C  
HETATM   18  C   UNL     1     -12.841  12.074  71.362  1.00  0.00    -0.391 A  
HETATM   19  C   UNL     1     -13.517  11.227  72.235  1.00  0.00    -0.026 A  
HETATM   20  C   UNL     1     -13.289   9.859  72.175  1.00  0.00    -0.498 A  
HETATM   21  C   UNL     1     -12.394   9.320  71.237  1.00  0.00    -0.403 A  
HETATM   22  C   UNL     1     -12.143   7.832  71.288  1.00  0.00    -0.328 C  
ENDBRANCH  12  15
ENDBRANCH  10  11
ENDBRANCH   4   5
ENDBRANCH   3   4
ENDBRANCH   2   3
TORSDOF 5
ENDMDL
MODEL      189
REMARK 921   NORMALIZED FREE ENERGY PREDICTED BY IDOCK:   -3.52 KCAL/MOL
REMARK 922        TOTAL FREE ENERGY PREDICTED BY IDOCK:   -5.49 KCAL/MOL
REMARK 923 INTER-LIGAND FREE ENERGY PREDICTED BY IDOCK:   -4.69 KCAL/MOL
REMARK 924 INTRA-LIGAND FREE ENERGY PREDICTED BY IDOCK:   -0.80 KCAL/MOL
REMARK 927      BINDING AFFINITY PREDICTED BY RF-SCORE:    0.00 PKD
ROOT
HETATM    1  C   UNL     1     -12.621  12.136  63.760  1.00  0.00    -0.585 C  
HETATM    2  C   UNL     1     -11.310  12.528  64.428  1.00  0.00    -0.395 C  
ENDROOT
BRANCH   2   3
HETATM    3  C   UNL     1     -11.340  12.252  65.930  1.00  0.00    -0.406 C  
BRANCH   3   4
HETATM    4  C   UNL     1     -10.031  11.626  66.443  1.00  0.00    -0.206 C  
BRANCH   4   5
HETATM    5  N   UNL     1      -9.821  11.752  67.905  1.00  0.00    -0.178 NA 
HETATM    6  C   UNL     1     -10.444  10.645  68.655  1.00  0.00    -0.191 C  
HETATM    7  C   UNL     1      -9.794   9.283  68.395  1.00  0.00    -0.173 C  
HETATM    8  C   UNL     1      -8.289   9.322  68.653  1.00  0.00    -0.118 C  
HETATM    9  C   UNL     1      -7.615  10.517  67.976  1.00  0.00    -0.091 C  
HETATM   10  C   UNL     1      -8.372  11.816  68.287  1.00  0.00    -0.159 C  
BRANCH  10  11
HETATM   11  C   UNL     1      -7.676  13.080  67.726  1.00  0.00    -0.151 C  
HETATM   12  N   UNL     1      -8.184  14.250  68.273  1.00  0.00    -0.141 N  
HETATM   13  O   UNL     1      -6.718  13.011  66.958  1.00  0.00    -0.096 OA 
HETATM   14  H   UNL     1      -8.883  14.140  69.008  1.00  0.00     0.000 HD 
BRANCH  12  15
HETATM   15  C   UNL     1      -7.843  15.577  67.926  1.00  0.00    -0.131 A  
HETATM   16  C   UNL     1      -6.949  16.360  68.689  1.00  0.00    -0.159 A  
HETATM   17  C   UNL     1      -6.263  15.916  69.951  1.00  0.00    -0.157 C  
HETATM   18  C   UNL     1      -6.609  17.653  68.241  1.00  0.00    -0.190 A  
HETATM   19  C   UNL     1      -7.105  18.155  67.041  1.00  0.00    -0.217 A  
HETATM   20  C   UNL     1      -7.975  17.383  66.284  1.00  0.00    -0.314 A  
HETATM   21  C   UNL     1      -8.350  16.097  66.709  1.00  0.00    -0.299 A  
HETATM   22  C   UNL     1      -9.360  15.353  65.869  1.00  0.00    -0.329 C  
ENDBRANCH  12  15
ENDBRANCH  10  11
ENDBRANCH   4   5
ENDBRANCH   3   4
ENDBRANCH   2   3
TORSDOF 5
ENDMDL
MODEL      190
REMARK 921   NORMALIZED FREE ENERGY PREDICTED BY IDOCK:   -3.51 KCAL/MOL
REMARK 922        TOTAL FREE ENERGY PREDICTED BY IDOCK:   -5.48 KCAL/MOL
REMARK 923 INTER-LIGAND FREE ENERGY PREDICTED BY IDOCK:   -4.96 KCAL/MOL
REMARK 924 INTRA-LIGAND FREE ENERGY PREDICTED BY IDOCK:   -0.52 KCAL/MOL
REMARK 927      BINDING AFFINITY PREDICTED BY RF-SCORE:    0.00 PKD
ROOT
HETATM    1  C   UNL     1     -10.669  12.615  65.050  1.00  0.00    -0.321 C  
HETATM    2  C   UNL     1     -10.565  13.140  66.476  1.00  0.00    -0.290 C  
ENDROOT
BRANCH   2   3
HETATM    3  C   UNL     1     -11.908  13.075  67.200  1.00  0.00    -0.431 C  
BRANCH   3   4
HETATM    4  C   UNL     1     -11.956  11.962  68.261  1.00  0.00    -0.167 C  
BRANCH   4   5
HETATM    5  N   UNL     1     -11.208  12.267  69.504  1.00  0.00    -0.169 NA 
HETATM    6  C   UNL     1     -11.754  13.442  70.210  1.00  0.00    -0.159 C  
HETATM    7  C   UNL     1     -13.159  13.222  70.775  1.00  0.00     0.005 C  
HETATM    8  C   UNL     1     -13.215  11.988  71.673  1.00  0.00    -0.361 C  
HETATM    9  C   UNL     1     -12.567  10.767  71.021  1.00  0.00    -0.520 C  
HETATM   10  C   UNL     1     -11.178  11.118  70.468  1.00  0.00     0.245 C  
BRANCH  10  11
HETATM   11  C   UNL     1     -10.419   9.896  69.896  1.00  0.00    -0.269 C  
HETATM   12  N   UNL     1     -11.200   8.749  69.880  1.00  0.00    -0.433 N  
HETATM   13  O   UNL     1      -9.286   9.992  69.427  1.00  0.00    -0.197 OA 
HETATM   14  H   UNL     1     -12.172   8.859  70.170  1.00  0.00     0.000 HD 
BRANCH  12  15
HETATM   15  C   UNL     1     -10.801   7.446  69.508  1.00  0.00    -0.189 A  
HETATM   16  C   UNL     1     -10.658   6.394  70.440  1.00  0.00    -0.294 A  
HETATM   17  C   UNL     1     -10.889   6.508  71.922  1.00  0.00    -0.273 C  
HETATM   18  C   UNL     1     -10.319   5.105  69.980  1.00  0.00    -0.347 A  
HETATM   19  C   UNL     1     -10.162   4.841  68.623  1.00  0.00    -0.060 A  
HETATM   20  C   UNL     1     -10.312   5.870  67.704  1.00  0.00    -0.265 A  
HETATM   21  C   UNL     1     -10.632   7.171  68.127  1.00  0.00    -0.241 A  
HETATM   22  C   UNL     1     -10.702   8.250  67.073  1.00  0.00    -0.225 C  
ENDBRANCH  12  15
ENDBRANCH  10  11
ENDBRANCH   4   5
ENDBRANCH   3   4
ENDBRANCH   2   3
TORSDOF 5
ENDMDL
MODEL      191
REMARK 921   NORMALIZED FREE ENERGY PREDICTED BY IDOCK:   -3.50 KCAL/MOL
REMARK 922        TOTAL FREE ENERGY PREDICTED BY IDOCK:   -5.47 KCAL/MOL
REMARK 923 INTER-LIGAND FREE ENERGY PREDICTED BY IDOCK:   -4.39 KCAL/MOL
REMARK 924 INTRA-LIGAND FREE ENERGY PREDICTED BY IDOCK:   -1.09 KCAL/MOL
REMARK 927      BINDING AFFINITY PREDICTED BY RF-SCORE:    0.00 PKD
ROOT
HETATM    1  C   UNL     1      -8.946  11.765  67.763  1.00  0.00    -0.173 C  
HETATM    2  C   UNL     1     -10.179  12.407  68.383  1.00  0.00    -0.227 C  
ENDROOT
BRANCH   2   3
HETATM    3  C   UNL     1     -11.455  11.655  68.006  1.00  0.00    -0.385 C  
BRANCH   3   4
HETATM    4  C   UNL     1     -11.802  10.540  69.008  1.00  0.00    -0.111 C  
BRANCH   4   5
HETATM    5  N   UNL     1     -11.293  10.767  70.381  1.00  0.00    -0.293 NA 
HETATM    6  C   UNL     1     -12.327  11.326  71.274  1.00  0.00    -0.270 C  
HETATM    7  C   UNL     1     -13.480  10.360  71.559  1.00  0.00    -0.303 C  
HETATM    8  C   UNL     1     -12.973   9.025  72.100  1.00  0.00    -0.490 C  
HETATM    9  C   UNL     1     -11.827   8.457  71.261  1.00  0.00    -0.327 C  
HETATM   10  C   UNL     1     -10.749   9.524  71.020  1.00  0.00    -0.340 C  
BRANCH  10  11
HETATM   11  C   UNL     1      -9.506   8.981  70.274  1.00  0.00    -0.200 C  
HETATM   12  N   UNL     1      -9.782   7.823  69.560  1.00  0.00    -0.164 N  
HETATM   13  O   UNL     1      -8.437   9.588  70.258  1.00  0.00    -0.180 OA 
HETATM   14  H   UNL     1     -10.755   7.516  69.553  1.00  0.00     0.000 HD 
BRANCH  12  15
HETATM   15  C   UNL     1      -8.867   7.020  68.843  1.00  0.00    -0.130 A  
HETATM   16  C   UNL     1      -8.570   7.233  67.477  1.00  0.00    -0.122 A  
HETATM   17  C   UNL     1      -9.178   8.302  66.612  1.00  0.00    -0.224 C  
HETATM   18  C   UNL     1      -7.597   6.429  66.850  1.00  0.00    -0.095 A  
HETATM   19  C   UNL     1      -6.894   5.459  67.559  1.00  0.00    -0.060 A  
HETATM   20  C   UNL     1      -7.176   5.256  68.903  1.00  0.00    -0.062 A  
HETATM   21  C   UNL     1      -8.152   6.025  69.557  1.00  0.00    -0.107 A  
HETATM   22  C   UNL     1      -8.454   5.690  70.998  1.00  0.00    -0.122 C  
ENDBRANCH  12  15
ENDBRANCH  10  11
ENDBRANCH   4   5
ENDBRANCH   3   4
ENDBRANCH   2   3
TORSDOF 5
ENDMDL
MODEL      192
REMARK 921   NORMALIZED FREE ENERGY PREDICTED BY IDOCK:   -3.45 KCAL/MOL
REMARK 922        TOTAL FREE ENERGY PREDICTED BY IDOCK:   -5.40 KCAL/MOL
REMARK 923 INTER-LIGAND FREE ENERGY PREDICTED BY IDOCK:   -4.82 KCAL/MOL
REMARK 924 INTRA-LIGAND FREE ENERGY PREDICTED BY IDOCK:   -0.58 KCAL/MOL
REMARK 927      BINDING AFFINITY PREDICTED BY RF-SCORE:    0.00 PKD
ROOT
HETATM    1  C   UNL     1     -12.534  12.800  71.318  1.00  0.00    -0.284 C  
HETATM    2  C   UNL     1     -13.255  13.763  70.385  1.00  0.00     0.239 C  
ENDROOT
BRANCH   2   3
HETATM    3  C   UNL     1     -12.286  14.441  69.418  1.00  0.00    -0.305 C  
BRANCH   3   4
HETATM    4  C   UNL     1     -11.228  13.470  68.862  1.00  0.00    -0.275 C  
BRANCH   4   5
HETATM    5  N   UNL     1     -11.637  12.757  67.629  1.00  0.00    -0.337 NA 
HETATM    6  C   UNL     1     -12.367  13.635  66.694  1.00  0.00    -0.331 C  
HETATM    7  C   UNL     1     -11.507  14.753  66.100  1.00  0.00    -0.311 C  
HETATM    8  C   UNL     1     -10.247  14.198  65.437  1.00  0.00    -0.380 C  
HETATM    9  C   UNL     1      -9.511  13.203  66.334  1.00  0.00    -0.226 C  
HETATM   10  C   UNL     1     -10.481  12.151  66.891  1.00  0.00    -0.225 C  
BRANCH  10  11
HETATM   11  C   UNL     1      -9.778  11.045  67.715  1.00  0.00    -0.170 C  
HETATM   12  N   UNL     1     -10.604   9.954  67.947  1.00  0.00    -0.237 N  
HETATM   13  O   UNL     1      -8.590  11.116  68.025  1.00  0.00    -0.130 OA 
HETATM   14  H   UNL     1     -11.522   9.978  67.502  1.00  0.00     0.000 HD 
BRANCH  12  15
HETATM   15  C   UNL     1     -10.317   8.814  68.732  1.00  0.00    -0.213 A  
HETATM   16  C   UNL     1     -10.597   8.748  70.116  1.00  0.00    -0.237 A  
HETATM   17  C   UNL     1     -11.207   9.853  70.933  1.00  0.00    -0.433 C  
HETATM   18  C   UNL     1     -10.341   7.551  70.815  1.00  0.00    -0.205 A  
HETATM   19  C   UNL     1      -9.857   6.422  70.161  1.00  0.00    -0.191 A  
HETATM   20  C   UNL     1      -9.592   6.481  68.800  1.00  0.00    -0.126 A  
HETATM   21  C   UNL     1      -9.818   7.662  68.074  1.00  0.00    -0.188 A  
HETATM   22  C   UNL     1      -9.432   7.668  66.614  1.00  0.00    -0.255 C  
ENDBRANCH  12  15
ENDBRANCH  10  11
ENDBRANCH   4   5
ENDBRANCH   3   4
ENDBRANCH   2   3
TORSDOF 5
ENDMDL
MODEL      193
REMARK 921   NORMALIZED FREE ENERGY PREDICTED BY IDOCK:   -3.44 KCAL/MOL
REMARK 922        TOTAL FREE ENERGY PREDICTED BY IDOCK:   -5.40 KCAL/MOL
REMARK 923 INTER-LIGAND FREE ENERGY PREDICTED BY IDOCK:   -4.91 KCAL/MOL
REMARK 924 INTRA-LIGAND FREE ENERGY PREDICTED BY IDOCK:   -0.49 KCAL/MOL
REMARK 927      BINDING AFFINITY PREDICTED BY RF-SCORE:    0.00 PKD
ROOT
HETATM    1  C   UNL     1      -9.718   6.426  66.599  1.00  0.00    -0.197 C  
HETATM    2  C   UNL     1      -8.514   6.725  65.716  1.00  0.00    -0.150 C  
ENDROOT
BRANCH   2   3
HETATM    3  C   UNL     1      -8.289   8.228  65.561  1.00  0.00    -0.163 C  
BRANCH   3   4
HETATM    4  C   UNL     1      -7.558   8.845  66.767  1.00  0.00    -0.086 C  
BRANCH   4   5
HETATM    5  N   UNL     1      -8.238   8.640  68.067  1.00  0.00    -0.115 NA 
HETATM    6  C   UNL     1      -7.299   8.228  69.128  1.00  0.00    -0.081 C  
HETATM    7  C   UNL     1      -6.286   9.310  69.509  1.00  0.00    -0.043 C  
HETATM    8  C   UNL     1      -6.979  10.618  69.889  1.00  0.00    -0.148 C  
HETATM    9  C   UNL     1      -8.036  11.032  68.865  1.00  0.00    -0.135 C  
HETATM   10  C   UNL     1      -8.972   9.858  68.544  1.00  0.00    -0.122 C  
BRANCH  10  11
HETATM   11  C   UNL     1     -10.137  10.244  67.600  1.00  0.00    -0.191 C  
HETATM   12  N   UNL     1      -9.939  11.476  66.993  1.00  0.00    -0.198 N  
HETATM   13  O   UNL     1     -11.068   9.476  67.364  1.00  0.00    -0.148 OA 
HETATM   14  H   UNL     1      -9.046  11.934  67.178  1.00  0.00     0.000 HD 
BRANCH  12  15
HETATM   15  C   UNL     1     -10.835  12.168  66.147  1.00  0.00    -0.282 A  
HETATM   16  C   UNL     1     -11.779  13.101  66.632  1.00  0.00    -0.427 A  
HETATM   17  C   UNL     1     -11.973  13.471  68.077  1.00  0.00    -0.372 C  
HETATM   18  C   UNL     1     -12.594  13.798  65.717  1.00  0.00    -0.525 A  
HETATM   19  C   UNL     1     -12.457  13.615  64.344  1.00  0.00    -0.316 A  
HETATM   20  C   UNL     1     -11.523  12.708  63.864  1.00  0.00    -0.509 A  
HETATM   21  C   UNL     1     -10.707  11.981  64.747  1.00  0.00    -0.352 A  
HETATM   22  C   UNL     1      -9.771  10.958  64.150  1.00  0.00    -0.347 C  
ENDBRANCH  12  15
ENDBRANCH  10  11
ENDBRANCH   4   5
ENDBRANCH   3   4
ENDBRANCH   2   3
TORSDOF 5
ENDMDL
MODEL      194
REMARK 921   NORMALIZED FREE ENERGY PREDICTED BY IDOCK:   -3.44 KCAL/MOL
REMARK 922        TOTAL FREE ENERGY PREDICTED BY IDOCK:   -5.39 KCAL/MOL
REMARK 923 INTER-LIGAND FREE ENERGY PREDICTED BY IDOCK:   -4.49 KCAL/MOL
REMARK 924 INTRA-LIGAND FREE ENERGY PREDICTED BY IDOCK:   -0.90 KCAL/MOL
REMARK 927      BINDING AFFINITY PREDICTED BY RF-SCORE:    0.00 PKD
ROOT
HETATM    1  C   UNL     1     -10.518  11.765  63.697  1.00  0.00    -0.490 C  
HETATM    2  C   UNL     1     -10.346  12.403  65.069  1.00  0.00    -0.319 C  
ENDROOT
BRANCH   2   3
HETATM    3  C   UNL     1     -11.685  12.565  65.786  1.00  0.00    -0.478 C  
BRANCH   3   4
HETATM    4  C   UNL     1     -11.722  11.836  67.141  1.00  0.00    -0.188 C  
BRANCH   4   5
HETATM    5  N   UNL     1     -10.717  12.310  68.121  1.00  0.00    -0.208 NA 
HETATM    6  C   UNL     1     -10.897  13.735  68.459  1.00  0.00    -0.263 C  
HETATM    7  C   UNL     1     -12.192  14.028  69.222  1.00  0.00    -0.319 C  
HETATM    8  C   UNL     1     -12.312  13.163  70.475  1.00  0.00    -0.380 C  
HETATM    9  C   UNL     1     -12.032  11.688  70.190  1.00  0.00    -0.441 C  
HETATM   10  C   UNL     1     -10.726  11.524  69.399  1.00  0.00    -0.068 C  
BRANCH  10  11
HETATM   11  C   UNL     1     -10.325  10.045  69.177  1.00  0.00    -0.216 C  
HETATM   12  N   UNL     1      -8.976   9.903  68.881  1.00  0.00    -0.145 N  
HETATM   13  O   UNL     1     -11.117   9.121  69.350  1.00  0.00    -0.148 OA 
HETATM   14  H   UNL     1      -8.413  10.753  68.914  1.00  0.00     0.000 HD 
BRANCH  12  15
HETATM   15  C   UNL     1      -8.296   8.712  68.539  1.00  0.00    -0.123 A  
HETATM   16  C   UNL     1      -7.969   7.718  69.489  1.00  0.00    -0.117 A  
HETATM   17  C   UNL     1      -8.275   7.786  70.959  1.00  0.00    -0.103 C  
HETATM   18  C   UNL     1      -7.347   6.529  69.056  1.00  0.00    -0.093 A  
HETATM   19  C   UNL     1      -7.086   6.299  67.708  1.00  0.00    -0.081 A  
HETATM   20  C   UNL     1      -7.416   7.269  66.773  1.00  0.00    -0.092 A  
HETATM   21  C   UNL     1      -8.020   8.474  67.169  1.00  0.00    -0.101 A  
HETATM   22  C   UNL     1      -8.277   9.510  66.100  1.00  0.00    -0.115 C  
ENDBRANCH  12  15
ENDBRANCH  10  11
ENDBRANCH   4   5
ENDBRANCH   3   4
ENDBRANCH   2   3
TORSDOF 5
ENDMDL
MODEL      195
REMARK 921   NORMALIZED FREE ENERGY PREDICTED BY IDOCK:   -3.44 KCAL/MOL
REMARK 922        TOTAL FREE ENERGY PREDICTED BY IDOCK:   -5.39 KCAL/MOL
REMARK 923 INTER-LIGAND FREE ENERGY PREDICTED BY IDOCK:   -5.03 KCAL/MOL
REMARK 924 INTRA-LIGAND FREE ENERGY PREDICTED BY IDOCK:   -0.35 KCAL/MOL
REMARK 927      BINDING AFFINITY PREDICTED BY RF-SCORE:    0.00 PKD
ROOT
HETATM    1  C   UNL     1     -12.381  12.099  63.646  1.00  0.00    -0.673 C  
HETATM    2  C   UNL     1     -10.861  12.133  63.720  1.00  0.00    -0.490 C  
ENDROOT
BRANCH   2   3
HETATM    3  C   UNL     1     -10.366  12.061  65.163  1.00  0.00    -0.313 C  
BRANCH   3   4
HETATM    4  C   UNL     1      -9.171  11.105  65.332  1.00  0.00    -0.205 C  
BRANCH   4   5
HETATM    5  N   UNL     1      -9.380   9.753  64.762  1.00  0.00    -0.267 NA 
HETATM    6  C   UNL     1      -8.706   9.587  63.460  1.00  0.00    -0.220 C  
HETATM    7  C   UNL     1      -7.178   9.619  63.549  1.00  0.00    -0.111 C  
HETATM    8  C   UNL     1      -6.654   8.598  64.556  1.00  0.00    -0.066 C  
HETATM    9  C   UNL     1      -7.396   8.666  65.891  1.00  0.00    -0.084 C  
HETATM   10  C   UNL     1      -8.915   8.655  65.670  1.00  0.00    -0.182 C  
BRANCH  10  11
HETATM   11  C   UNL     1      -9.725   8.606  66.989  1.00  0.00    -0.201 C  
HETATM   12  N   UNL     1      -9.102   7.839  67.964  1.00  0.00    -0.129 N  
HETATM   13  O   UNL     1     -10.751   9.265  67.150  1.00  0.00    -0.251 OA 
HETATM   14  H   UNL     1      -8.180   7.470  67.729  1.00  0.00     0.000 HD 
BRANCH  12  15
HETATM   15  C   UNL     1      -9.601   7.512  69.245  1.00  0.00    -0.158 A  
HETATM   16  C   UNL     1      -9.473   8.373  70.358  1.00  0.00    -0.179 A  
HETATM   17  C   UNL     1      -8.797   9.715  70.345  1.00  0.00    -0.227 C  
HETATM   18  C   UNL     1     -10.055   8.002  71.587  1.00  0.00    -0.238 A  
HETATM   19  C   UNL     1     -10.787   6.825  71.714  1.00  0.00    -0.257 A  
HETATM   20  C   UNL     1     -10.922   5.982  70.619  1.00  0.00    -0.376 A  
HETATM   21  C   UNL     1     -10.341   6.310  69.384  1.00  0.00    -0.266 A  
HETATM   22  C   UNL     1     -10.468   5.305  68.264  1.00  0.00    -0.140 C  
ENDBRANCH  12  15
ENDBRANCH  10  11
ENDBRANCH   4   5
ENDBRANCH   3   4
ENDBRANCH   2   3
TORSDOF 5
ENDMDL
MODEL      196
REMARK 921   NORMALIZED FREE ENERGY PREDICTED BY IDOCK:   -3.43 KCAL/MOL
REMARK 922        TOTAL FREE ENERGY PREDICTED BY IDOCK:   -5.38 KCAL/MOL
REMARK 923 INTER-LIGAND FREE ENERGY PREDICTED BY IDOCK:   -4.55 KCAL/MOL
REMARK 924 INTRA-LIGAND FREE ENERGY PREDICTED BY IDOCK:   -0.84 KCAL/MOL
REMARK 927      BINDING AFFINITY PREDICTED BY RF-SCORE:    0.00 PKD
ROOT
HETATM    1  C   UNL     1     -11.916  12.728  66.404  1.00  0.00    -0.443 C  
HETATM    2  C   UNL     1     -11.072  11.478  66.193  1.00  0.00    -0.302 C  
ENDROOT
BRANCH   2   3
HETATM    3  C   UNL     1     -10.672  10.838  67.521  1.00  0.00    -0.312 C  
BRANCH   3   4
HETATM    4  C   UNL     1      -9.407   9.969  67.402  1.00  0.00    -0.148 C  
BRANCH   4   5
HETATM    5  N   UNL     1      -9.543   8.809  66.490  1.00  0.00    -0.216 NA 
HETATM    6  C   UNL     1      -8.762   8.981  65.250  1.00  0.00    -0.193 C  
HETATM    7  C   UNL     1      -7.247   8.988  65.472  1.00  0.00    -0.085 C  
HETATM    8  C   UNL     1      -6.785   7.741  66.224  1.00  0.00    -0.054 C  
HETATM    9  C   UNL     1      -7.635   7.466  67.465  1.00  0.00    -0.106 C  
HETATM   10  C   UNL     1      -9.131   7.513  67.123  1.00  0.00    -0.127 C  
BRANCH  10  11
HETATM   11  C   UNL     1     -10.044   7.129  68.312  1.00  0.00    -0.167 C  
HETATM   12  N   UNL     1      -9.347   7.050  69.510  1.00  0.00    -0.148 N  
HETATM   13  O   UNL     1     -11.262   7.011  68.189  1.00  0.00    -0.066 OA 
HETATM   14  H   UNL     1      -8.363   7.317  69.479  1.00  0.00     0.000 HD 
BRANCH  12  15
HETATM   15  C   UNL     1      -9.848   6.643  70.767  1.00  0.00    -0.183 A  
HETATM   16  C   UNL     1     -10.448   7.541  71.678  1.00  0.00    -0.226 A  
HETATM   17  C   UNL     1     -10.623   9.018  71.456  1.00  0.00    -0.415 C  
HETATM   18  C   UNL     1     -10.982   7.045  72.885  1.00  0.00    -0.337 A  
HETATM   19  C   UNL     1     -10.965   5.684  73.177  1.00  0.00    -0.326 A  
HETATM   20  C   UNL     1     -10.385   4.799  72.279  1.00  0.00    -0.264 A  
HETATM   21  C   UNL     1      -9.827   5.259  71.075  1.00  0.00    -0.254 A  
HETATM   22  C   UNL     1      -9.147   4.243  70.188  1.00  0.00    -0.174 C  
ENDBRANCH  12  15
ENDBRANCH  10  11
ENDBRANCH   4   5
ENDBRANCH   3   4
ENDBRANCH   2   3
TORSDOF 5
ENDMDL
MODEL      197
REMARK 921   NORMALIZED FREE ENERGY PREDICTED BY IDOCK:   -3.43 KCAL/MOL
REMARK 922        TOTAL FREE ENERGY PREDICTED BY IDOCK:   -5.38 KCAL/MOL
REMARK 923 INTER-LIGAND FREE ENERGY PREDICTED BY IDOCK:   -4.61 KCAL/MOL
REMARK 924 INTRA-LIGAND FREE ENERGY PREDICTED BY IDOCK:   -0.77 KCAL/MOL
REMARK 927      BINDING AFFINITY PREDICTED BY RF-SCORE:    0.00 PKD
ROOT
HETATM    1  C   UNL     1      -8.029   4.214  66.817  1.00  0.00    -0.097 C  
HETATM    2  C   UNL     1      -7.546   4.253  68.260  1.00  0.00    -0.067 C  
ENDROOT
BRANCH   2   3
HETATM    3  C   UNL     1      -7.180   5.672  68.692  1.00  0.00    -0.078 C  
BRANCH   3   4
HETATM    4  C   UNL     1      -7.869   6.748  67.835  1.00  0.00    -0.113 C  
BRANCH   4   5
HETATM    5  N   UNL     1      -7.443   8.136  68.134  1.00  0.00    -0.095 NA 
HETATM    6  C   UNL     1      -6.071   8.411  67.667  1.00  0.00    -0.052 C  
HETATM    7  C   UNL     1      -5.924   8.394  66.143  1.00  0.00    -0.045 C  
HETATM    8  C   UNL     1      -6.915   9.345  65.474  1.00  0.00    -0.086 C  
HETATM    9  C   UNL     1      -8.338   9.165  66.003  1.00  0.00    -0.125 C  
HETATM   10  C   UNL     1      -8.352   9.170  67.539  1.00  0.00    -0.116 C  
BRANCH  10  11
HETATM   11  C   UNL     1      -9.778   9.107  68.138  1.00  0.00    -0.154 C  
HETATM   12  N   UNL     1      -9.808   9.493  69.471  1.00  0.00    -0.182 N  
HETATM   13  O   UNL     1     -10.763   8.837  67.454  1.00  0.00    -0.267 OA 
HETATM   14  H   UNL     1      -8.929   9.829  69.865  1.00  0.00     0.000 HD 
BRANCH  12  15
HETATM   15  C   UNL     1     -10.920   9.472  70.344  1.00  0.00    -0.278 A  
HETATM   16  C   UNL     1     -11.168   8.407  71.240  1.00  0.00    -0.309 A  
HETATM   17  C   UNL     1     -10.321   7.172  71.379  1.00  0.00    -0.210 C  
HETATM   18  C   UNL     1     -12.262   8.491  72.124  1.00  0.00    -0.446 A  
HETATM   19  C   UNL     1     -13.077   9.619  72.161  1.00  0.00    -0.520 A  
HETATM   20  C   UNL     1     -12.828  10.671  71.290  1.00  0.00    -0.535 A  
HETATM   21  C   UNL     1     -11.758  10.614  70.382  1.00  0.00    -0.446 A  
HETATM   22  C   UNL     1     -11.602  11.764  69.416  1.00  0.00    -0.386 C  
ENDBRANCH  12  15
ENDBRANCH  10  11
ENDBRANCH   4   5
ENDBRANCH   3   4
ENDBRANCH   2   3
TORSDOF 5
ENDMDL
MODEL      198
REMARK 921   NORMALIZED FREE ENERGY PREDICTED BY IDOCK:   -3.42 KCAL/MOL
REMARK 922        TOTAL FREE ENERGY PREDICTED BY IDOCK:   -5.37 KCAL/MOL
REMARK 923 INTER-LIGAND FREE ENERGY PREDICTED BY IDOCK:   -4.67 KCAL/MOL
REMARK 924 INTRA-LIGAND FREE ENERGY PREDICTED BY IDOCK:   -0.70 KCAL/MOL
REMARK 927      BINDING AFFINITY PREDICTED BY RF-SCORE:    0.00 PKD
ROOT
HETATM    1  C   UNL     1      -9.282  12.269  67.310  1.00  0.00    -0.185 C  
HETATM    2  C   UNL     1     -10.406  12.641  68.266  1.00  0.00    -0.246 C  
ENDROOT
BRANCH   2   3
HETATM    3  C   UNL     1     -11.659  11.804  68.015  1.00  0.00    -0.386 C  
BRANCH   3   4
HETATM    4  C   UNL     1     -11.755  10.585  68.950  1.00  0.00    -0.146 C  
BRANCH   4   5
HETATM    5  N   UNL     1     -11.244  10.822  70.321  1.00  0.00    -0.285 NA 
HETATM    6  C   UNL     1     -12.292  11.334  71.226  1.00  0.00    -0.270 C  
HETATM    7  C   UNL     1     -13.405  10.322  71.512  1.00  0.00    -0.413 C  
HETATM    8  C   UNL     1     -12.842   9.004  72.039  1.00  0.00    -0.468 C  
HETATM    9  C   UNL     1     -11.682   8.487  71.188  1.00  0.00    -0.322 C  
HETATM   10  C   UNL     1     -10.648   9.596  70.946  1.00  0.00    -0.316 C  
BRANCH  10  11
HETATM   11  C   UNL     1      -9.391   9.107  70.187  1.00  0.00    -0.209 C  
HETATM   12  N   UNL     1      -9.702   8.218  69.167  1.00  0.00    -0.168 N  
HETATM   13  O   UNL     1      -8.270   9.554  70.424  1.00  0.00    -0.173 OA 
HETATM   14  H   UNL     1     -10.695   8.053  68.997  1.00  0.00     0.000 HD 
BRANCH  12  15
HETATM   15  C   UNL     1      -8.799   7.516  68.338  1.00  0.00    -0.126 A  
HETATM   16  C   UNL     1      -7.910   6.536  68.833  1.00  0.00    -0.110 A  
HETATM   17  C   UNL     1      -7.788   6.121  70.273  1.00  0.00    -0.102 C  
HETATM   18  C   UNL     1      -7.085   5.833  67.931  1.00  0.00    -0.071 A  
HETATM   19  C   UNL     1      -7.160   6.057  66.559  1.00  0.00    -0.072 A  
HETATM   20  C   UNL     1      -8.040   7.012  66.069  1.00  0.00    -0.122 A  
HETATM   21  C   UNL     1      -8.864   7.744  66.940  1.00  0.00    -0.143 A  
HETATM   22  C   UNL     1      -9.737   8.818  66.335  1.00  0.00    -0.335 C  
ENDBRANCH  12  15
ENDBRANCH  10  11
ENDBRANCH   4   5
ENDBRANCH   3   4
ENDBRANCH   2   3
TORSDOF 5
ENDMDL
MODEL      199
REMARK 921   NORMALIZED FREE ENERGY PREDICTED BY IDOCK:   -3.40 KCAL/MOL
REMARK 922        TOTAL FREE ENERGY PREDICTED BY IDOCK:   -5.35 KCAL/MOL
REMARK 923 INTER-LIGAND FREE ENERGY PREDICTED BY IDOCK:   -4.91 KCAL/MOL
REMARK 924 INTRA-LIGAND FREE ENERGY PREDICTED BY IDOCK:   -0.43 KCAL/MOL
REMARK 927      BINDING AFFINITY PREDICTED BY RF-SCORE:    0.00 PKD
ROOT
HETATM    1  C   UNL     1     -13.109  15.791  72.579  1.00  0.00    -0.558 C  
HETATM    2  C   UNL     1     -11.721  15.570  71.993  1.00  0.00    -0.541 C  
ENDROOT
BRANCH   2   3
HETATM    3  C   UNL     1     -11.793  15.025  70.568  1.00  0.00    -0.347 C  
BRANCH   3   4
HETATM    4  C   UNL     1     -10.522  15.325  69.754  1.00  0.00    -0.275 C  
BRANCH   4   5
HETATM    5  N   UNL     1     -10.751  15.506  68.301  1.00  0.00    -0.262 NA 
HETATM    6  C   UNL     1     -10.902  16.927  67.934  1.00  0.00    -0.310 C  
HETATM    7  C   UNL     1      -9.625  17.751  68.121  1.00  0.00    -0.303 C  
HETATM    8  C   UNL     1      -8.444  17.130  67.377  1.00  0.00    -0.202 C  
HETATM    9  C   UNL     1      -8.311  15.632  67.649  1.00  0.00    -0.168 C  
HETATM   10  C   UNL     1      -9.658  14.922  67.457  1.00  0.00    -0.204 C  
BRANCH  10  11
HETATM   11  C   UNL     1      -9.566  13.383  67.605  1.00  0.00    -0.219 C  
HETATM   12  N   UNL     1      -8.374  12.875  67.108  1.00  0.00    -0.273 N  
HETATM   13  O   UNL     1     -10.428  12.731  68.190  1.00  0.00    -0.222 OA 
HETATM   14  H   UNL     1      -7.691  13.559  66.781  1.00  0.00     0.000 HD 
BRANCH  12  15
HETATM   15  C   UNL     1      -7.999  11.516  67.004  1.00  0.00    -0.161 A  
HETATM   16  C   UNL     1      -8.580  10.632  66.067  1.00  0.00    -0.177 A  
HETATM   17  C   UNL     1      -9.659  10.993  65.084  1.00  0.00    -0.281 C  
HETATM   18  C   UNL     1      -8.105   9.308  65.983  1.00  0.00    -0.110 A  
HETATM   19  C   UNL     1      -7.049   8.867  66.775  1.00  0.00    -0.081 A  
HETATM   20  C   UNL     1      -6.470   9.736  67.688  1.00  0.00    -0.067 A  
HETATM   21  C   UNL     1      -6.929  11.058  67.814  1.00  0.00    -0.080 A  
HETATM   22  C   UNL     1      -6.298  11.917  68.884  1.00  0.00    -0.073 C  
ENDBRANCH  12  15
ENDBRANCH  10  11
ENDBRANCH   4   5
ENDBRANCH   3   4
ENDBRANCH   2   3
TORSDOF 5
ENDMDL
MODEL      200
REMARK 921   NORMALIZED FREE ENERGY PREDICTED BY IDOCK:   -3.40 KCAL/MOL
REMARK 922        TOTAL FREE ENERGY PREDICTED BY IDOCK:   -5.35 KCAL/MOL
REMARK 923 INTER-LIGAND FREE ENERGY PREDICTED BY IDOCK:   -4.40 KCAL/MOL
REMARK 924 INTRA-LIGAND FREE ENERGY PREDICTED BY IDOCK:   -0.95 KCAL/MOL
REMARK 927      BINDING AFFINITY PREDICTED BY RF-SCORE:    0.00 PKD
ROOT
HETATM    1  C   UNL     1     -12.954   9.140  72.164  1.00  0.00    -0.498 C  
HETATM    2  C   UNL     1     -12.321   8.192  71.154  1.00  0.00    -0.229 C  
ENDROOT
BRANCH   2   3
HETATM    3  C   UNL     1     -10.846   8.515  70.927  1.00  0.00    -0.275 C  
BRANCH   3   4
HETATM    4  C   UNL     1     -10.625   9.951  70.420  1.00  0.00    -0.302 C  
BRANCH   4   5
HETATM    5  N   UNL     1     -11.318  10.266  69.148  1.00  0.00    -0.215 NA 
HETATM    6  C   UNL     1     -12.273  11.382  69.295  1.00  0.00    -0.204 C  
HETATM    7  C   UNL     1     -11.605  12.728  69.592  1.00  0.00    -0.322 C  
HETATM    8  C   UNL     1     -10.543  13.068  68.549  1.00  0.00    -0.274 C  
HETATM    9  C   UNL     1      -9.591  11.901  68.289  1.00  0.00    -0.201 C  
HETATM   10  C   UNL     1     -10.374  10.606  68.034  1.00  0.00    -0.178 C  
BRANCH  10  11
HETATM   11  C   UNL     1      -9.471   9.408  67.649  1.00  0.00    -0.132 C  
HETATM   12  N   UNL     1     -10.116   8.506  66.815  1.00  0.00    -0.277 N  
HETATM   13  O   UNL     1      -8.289   9.348  67.983  1.00  0.00    -0.118 OA 
HETATM   14  H   UNL     1     -11.054   8.765  66.506  1.00  0.00     0.000 HD 
BRANCH  12  15
HETATM   15  C   UNL     1      -9.621   7.268  66.346  1.00  0.00    -0.104 A  
HETATM   16  C   UNL     1      -8.744   7.164  65.244  1.00  0.00     0.073 A  
HETATM   17  C   UNL     1      -8.236   8.318  64.424  1.00  0.00    -0.130 C  
HETATM   18  C   UNL     1      -8.243   5.898  64.878  1.00  0.00    -0.135 A  
HETATM   19  C   UNL     1      -8.564   4.756  65.607  1.00  0.00    -0.127 A  
HETATM   20  C   UNL     1      -9.417   4.857  66.697  1.00  0.00    -0.153 A  
HETATM   21  C   UNL     1      -9.950   6.099  67.079  1.00  0.00    -0.200 A  
HETATM   22  C   UNL     1     -10.931   6.114  68.227  1.00  0.00    -0.397 C  
ENDBRANCH  12  15
ENDBRANCH  10  11
ENDBRANCH   4   5
ENDBRANCH   3   4
ENDBRANCH   2   3
TORSDOF 5
ENDMDL
MODEL      201
REMARK 921   NORMALIZED FREE ENERGY PREDICTED BY IDOCK:   -3.40 KCAL/MOL
REMARK 922        TOTAL FREE ENERGY PREDICTED BY IDOCK:   -5.34 KCAL/MOL
REMARK 923 INTER-LIGAND FREE ENERGY PREDICTED BY IDOCK:   -4.88 KCAL/MOL
REMARK 924 INTRA-LIGAND FREE ENERGY PREDICTED BY IDOCK:   -0.47 KCAL/MOL
REMARK 927      BINDING AFFINITY PREDICTED BY RF-SCORE:    0.00 PKD
ROOT
HETATM    1  C   UNL     1      -9.020   3.269  69.781  1.00  0.00    -0.174 C  
HETATM    2  C   UNL     1      -9.264   3.664  71.231  1.00  0.00    -0.197 C  
ENDROOT
BRANCH   2   3
HETATM    3  C   UNL     1     -10.485   4.572  71.369  1.00  0.00    -0.029 C  
BRANCH   3   4
HETATM    4  C   UNL     1     -10.150   6.055  71.135  1.00  0.00    -0.194 C  
BRANCH   4   5
HETATM    5  N   UNL     1     -10.815   6.991  72.072  1.00  0.00    -0.219 NA 
HETATM    6  C   UNL     1     -10.577   6.629  73.483  1.00  0.00    -0.311 C  
HETATM    7  C   UNL     1      -9.118   6.783  73.921  1.00  0.00    -0.195 C  
HETATM    8  C   UNL     1      -8.593   8.189  73.635  1.00  0.00    -0.312 C  
HETATM    9  C   UNL     1      -8.908   8.647  72.211  1.00  0.00    -0.218 C  
HETATM   10  C   UNL     1     -10.390   8.416  71.880  1.00  0.00    -0.283 C  
BRANCH  10  11
HETATM   11  C   UNL     1     -10.800   8.965  70.492  1.00  0.00    -0.236 C  
HETATM   12  N   UNL     1     -10.230  10.201  70.223  1.00  0.00    -0.411 N  
HETATM   13  O   UNL     1     -11.476   8.307  69.703  1.00  0.00     0.108 OA 
HETATM   14  H   UNL     1      -9.573  10.558  70.917  1.00  0.00     0.000 HD 
BRANCH  12  15
HETATM   15  C   UNL     1     -10.457  11.023  69.095  1.00  0.00    -0.210 A  
HETATM   16  C   UNL     1      -9.803  10.823  67.859  1.00  0.00    -0.185 A  
HETATM   17  C   UNL     1      -8.789   9.749  67.576  1.00  0.00    -0.129 C  
HETATM   18  C   UNL     1     -10.133  11.645  66.763  1.00  0.00    -0.242 A  
HETATM   19  C   UNL     1     -11.119  12.622  66.864  1.00  0.00    -0.315 A  
HETATM   20  C   UNL     1     -11.771  12.813  68.074  1.00  0.00    -0.405 A  
HETATM   21  C   UNL     1     -11.455  12.025  69.193  1.00  0.00    -0.357 A  
HETATM   22  C   UNL     1     -12.154  12.347  70.493  1.00  0.00    -0.363 C  
ENDBRANCH  12  15
ENDBRANCH  10  11
ENDBRANCH   4   5
ENDBRANCH   3   4
ENDBRANCH   2   3
TORSDOF 5
ENDMDL
MODEL      202
REMARK 921   NORMALIZED FREE ENERGY PREDICTED BY IDOCK:   -3.39 KCAL/MOL
REMARK 922        TOTAL FREE ENERGY PREDICTED BY IDOCK:   -5.32 KCAL/MOL
REMARK 923 INTER-LIGAND FREE ENERGY PREDICTED BY IDOCK:   -4.97 KCAL/MOL
REMARK 924 INTRA-LIGAND FREE ENERGY PREDICTED BY IDOCK:   -0.35 KCAL/MOL
REMARK 927      BINDING AFFINITY PREDICTED BY RF-SCORE:    0.00 PKD
ROOT
HETATM    1  C   UNL     1     -10.289   9.500  71.018  1.00  0.00    -0.353 C  
HETATM    2  C   UNL     1      -8.908   8.859  71.028  1.00  0.00    -0.285 C  
ENDROOT
BRANCH   2   3
HETATM    3  C   UNL     1      -8.103   9.238  69.787  1.00  0.00    -0.120 C  
BRANCH   3   4
HETATM    4  C   UNL     1      -8.837  10.251  68.891  1.00  0.00    -0.157 C  
BRANCH   4   5
HETATM    5  N   UNL     1      -8.117  10.605  67.644  1.00  0.00    -0.107 NA 
HETATM    6  C   UNL     1      -7.562   9.417  66.966  1.00  0.00    -0.091 C  
HETATM    7  C   UNL     1      -8.630   8.469  66.414  1.00  0.00    -0.136 C  
HETATM    8  C   UNL     1      -9.608   9.199  65.496  1.00  0.00    -0.239 C  
HETATM    9  C   UNL     1     -10.132  10.493  66.119  1.00  0.00    -0.306 C  
HETATM   10  C   UNL     1      -8.974  11.344  66.661  1.00  0.00    -0.181 C  
BRANCH  10  11
HETATM   11  C   UNL     1      -9.427  12.722  67.202  1.00  0.00    -0.223 C  
HETATM   12  N   UNL     1      -8.926  13.776  66.451  1.00  0.00    -0.471 N  
HETATM   13  O   UNL     1     -10.222  12.828  68.135  1.00  0.00    -0.227 OA 
HETATM   14  H   UNL     1      -8.395  13.525  65.617  1.00  0.00     0.000 HD 
BRANCH  12  15
HETATM   15  C   UNL     1      -9.068  15.158  66.712  1.00  0.00    -0.256 A  
HETATM   16  C   UNL     1      -8.141  15.888  67.489  1.00  0.00    -0.171 A  
HETATM   17  C   UNL     1      -6.914  15.316  68.144  1.00  0.00    -0.133 C  
HETATM   18  C   UNL     1      -8.318  17.277  67.649  1.00  0.00    -0.209 A  
HETATM   19  C   UNL     1      -9.364  17.949  67.023  1.00  0.00    -0.267 A  
HETATM   20  C   UNL     1     -10.270  17.235  66.250  1.00  0.00    -0.347 A  
HETATM   21  C   UNL     1     -10.135  15.847  66.084  1.00  0.00    -0.334 A  
HETATM   22  C   UNL     1     -11.205  15.133  65.292  1.00  0.00    -0.359 C  
ENDBRANCH  12  15
ENDBRANCH  10  11
ENDBRANCH   4   5
ENDBRANCH   3   4
ENDBRANCH   2   3
TORSDOF 5
ENDMDL
MODEL      203
REMARK 921   NORMALIZED FREE ENERGY PREDICTED BY IDOCK:   -3.37 KCAL/MOL
REMARK 922        TOTAL FREE ENERGY PREDICTED BY IDOCK:   -5.30 KCAL/MOL
REMARK 923 INTER-LIGAND FREE ENERGY PREDICTED BY IDOCK:   -4.39 KCAL/MOL
REMARK 924 INTRA-LIGAND FREE ENERGY PREDICTED BY IDOCK:   -0.91 KCAL/MOL
REMARK 927      BINDING AFFINITY PREDICTED BY RF-SCORE:    0.00 PKD
ROOT
HETATM    1  C   UNL     1      -9.682   6.296  69.580  1.00  0.00    -0.175 C  
HETATM    2  C   UNL     1      -9.173   6.895  68.276  1.00  0.00    -0.123 C  
ENDROOT
BRANCH   2   3
HETATM    3  C   UNL     1      -9.815   8.251  67.991  1.00  0.00    -0.201 C  
BRANCH   3   4
HETATM    4  C   UNL     1      -8.775   9.360  67.754  1.00  0.00    -0.116 C  
BRANCH   4   5
HETATM    5  N   UNL     1      -8.548  10.248  68.919  1.00  0.00    -0.141 NA 
HETATM    6  C   UNL     1      -7.394   9.816  69.732  1.00  0.00    -0.116 C  
HETATM    7  C   UNL     1      -6.050   9.949  69.011  1.00  0.00    -0.040 C  
HETATM    8  C   UNL     1      -5.832  11.367  68.487  1.00  0.00    -0.042 C  
HETATM    9  C   UNL     1      -7.047  11.895  67.723  1.00  0.00    -0.103 C  
HETATM   10  C   UNL     1      -8.334  11.681  68.532  1.00  0.00    -0.140 C  
BRANCH  10  11
HETATM   11  C   UNL     1      -9.587  12.298  67.865  1.00  0.00    -0.203 C  
HETATM   12  N   UNL     1      -9.341  12.717  66.565  1.00  0.00    -0.287 N  
HETATM   13  O   UNL     1     -10.684  12.309  68.419  1.00  0.00    -0.217 OA 
HETATM   14  H   UNL     1      -8.414  12.511  66.190  1.00  0.00     0.000 HD 
BRANCH  12  15
HETATM   15  C   UNL     1     -10.228  13.398  65.701  1.00  0.00    -0.292 A  
HETATM   16  C   UNL     1     -11.147  12.726  64.864  1.00  0.00    -0.324 A  
HETATM   17  C   UNL     1     -11.300  11.233  64.763  1.00  0.00    -0.043 C  
HETATM   18  C   UNL     1     -12.044  13.478  64.080  1.00  0.00    -0.494 A  
HETATM   19  C   UNL     1     -12.070  14.869  64.145  1.00  0.00    -0.289 A  
HETATM   20  C   UNL     1     -11.175  15.531  64.974  1.00  0.00    -0.364 A  
HETATM   21  C   UNL     1     -10.254  14.815  65.756  1.00  0.00    -0.359 A  
HETATM   22  C   UNL     1      -9.264  15.611  66.572  1.00  0.00    -0.325 C  
ENDBRANCH  12  15
ENDBRANCH  10  11
ENDBRANCH   4   5
ENDBRANCH   3   4
ENDBRANCH   2   3
TORSDOF 5
ENDMDL
MODEL      204
REMARK 921   NORMALIZED FREE ENERGY PREDICTED BY IDOCK:   -3.33 KCAL/MOL
REMARK 922        TOTAL FREE ENERGY PREDICTED BY IDOCK:   -5.25 KCAL/MOL
REMARK 923 INTER-LIGAND FREE ENERGY PREDICTED BY IDOCK:   -4.26 KCAL/MOL
REMARK 924 INTRA-LIGAND FREE ENERGY PREDICTED BY IDOCK:   -0.99 KCAL/MOL
REMARK 927      BINDING AFFINITY PREDICTED BY RF-SCORE:    0.00 PKD
ROOT
HETATM    1  C   UNL     1      -6.508   3.981  64.494  1.00  0.00    -0.042 C  
HETATM    2  C   UNL     1      -7.302   5.021  63.715  1.00  0.00    -0.051 C  
ENDROOT
BRANCH   2   3
HETATM    3  C   UNL     1      -8.379   5.672  64.581  1.00  0.00    -0.119 C  
BRANCH   3   4
HETATM    4  C   UNL     1      -7.799   6.369  65.824  1.00  0.00    -0.104 C  
BRANCH   4   5
HETATM    5  N   UNL     1      -8.431   5.969  67.104  1.00  0.00    -0.105 NA 
HETATM    6  C   UNL     1      -7.554   5.099  67.911  1.00  0.00    -0.084 C  
HETATM    7  C   UNL     1      -6.296   5.803  68.427  1.00  0.00    -0.041 C  
HETATM    8  C   UNL     1      -6.642   7.075  69.199  1.00  0.00    -0.048 C  
HETATM    9  C   UNL     1      -7.632   7.961  68.442  1.00  0.00    -0.108 C  
HETATM   10  C   UNL     1      -8.832   7.139  67.951  1.00  0.00    -0.124 C  
BRANCH  10  11
HETATM   11  C   UNL     1      -9.929   8.000  67.275  1.00  0.00    -0.217 C  
HETATM   12  N   UNL     1      -9.542   9.324  67.125  1.00  0.00    -0.151 N  
HETATM   13  O   UNL     1     -10.971   7.509  66.845  1.00  0.00    -0.292 OA 
HETATM   14  H   UNL     1      -8.587   9.552  67.402  1.00  0.00     0.000 HD 
BRANCH  12  15
HETATM   15  C   UNL     1     -10.324  10.394  66.631  1.00  0.00    -0.231 A  
HETATM   16  C   UNL     1     -11.209  11.134  67.447  1.00  0.00    -0.363 A  
HETATM   17  C   UNL     1     -11.452  10.890  68.910  1.00  0.00    -0.369 C  
HETATM   18  C   UNL     1     -11.904  12.228  66.894  1.00  0.00    -0.334 A  
HETATM   19  C   UNL     1     -11.705  12.618  65.572  1.00  0.00    -0.446 A  
HETATM   20  C   UNL     1     -10.828  11.898  64.772  1.00  0.00    -0.359 A  
HETATM   21  C   UNL     1     -10.131  10.791  65.284  1.00  0.00    -0.353 A  
HETATM   22  C   UNL     1      -9.255  10.016  64.329  1.00  0.00    -0.318 C  
ENDBRANCH  12  15
ENDBRANCH  10  11
ENDBRANCH   4   5
ENDBRANCH   3   4
ENDBRANCH   2   3
TORSDOF 5
ENDMDL
MODEL      205
REMARK 921   NORMALIZED FREE ENERGY PREDICTED BY IDOCK:   -3.32 KCAL/MOL
REMARK 922        TOTAL FREE ENERGY PREDICTED BY IDOCK:   -5.24 KCAL/MOL
REMARK 923 INTER-LIGAND FREE ENERGY PREDICTED BY IDOCK:   -4.38 KCAL/MOL
REMARK 924 INTRA-LIGAND FREE ENERGY PREDICTED BY IDOCK:   -0.86 KCAL/MOL
REMARK 927      BINDING AFFINITY PREDICTED BY RF-SCORE:    0.00 PKD
ROOT
HETATM    1  C   UNL     1     -13.231   9.750  71.915  1.00  0.00    -0.545 C  
HETATM    2  C   UNL     1     -12.161   8.981  71.152  1.00  0.00    -0.345 C  
ENDROOT
BRANCH   2   3
HETATM    3  C   UNL     1     -10.797   9.662  71.254  1.00  0.00    -0.366 C  
BRANCH   3   4
HETATM    4  C   UNL     1     -10.159   9.918  69.877  1.00  0.00    -0.257 C  
BRANCH   4   5
HETATM    5  N   UNL     1     -11.132  10.107  68.775  1.00  0.00    -0.224 NA 
HETATM    6  C   UNL     1     -11.666  11.482  68.732  1.00  0.00    -0.334 C  
HETATM    7  C   UNL     1     -10.618  12.537  68.365  1.00  0.00    -0.256 C  
HETATM    8  C   UNL     1      -9.915  12.196  67.053  1.00  0.00    -0.213 C  
HETATM    9  C   UNL     1      -9.434  10.746  67.013  1.00  0.00    -0.186 C  
HETATM   10  C   UNL     1     -10.561   9.788  67.426  1.00  0.00    -0.267 C  
BRANCH  10  11
HETATM   11  C   UNL     1     -10.174   8.294  67.295  1.00  0.00    -0.274 C  
HETATM   12  N   UNL     1      -8.801   8.111  67.196  1.00  0.00    -0.129 N  
HETATM   13  O   UNL     1     -11.007   7.394  67.374  1.00  0.00    -0.243 OA 
HETATM   14  H   UNL     1      -8.225   8.948  67.291  1.00  0.00     0.000 HD 
BRANCH  12  15
HETATM   15  C   UNL     1      -8.113   6.896  66.980  1.00  0.00    -0.117 A  
HETATM   16  C   UNL     1      -7.859   5.966  68.013  1.00  0.00    -0.104 A  
HETATM   17  C   UNL     1      -8.259   6.135  69.452  1.00  0.00    -0.113 C  
HETATM   18  C   UNL     1      -7.223   4.747  67.703  1.00  0.00    -0.070 A  
HETATM   19  C   UNL     1      -6.878   4.425  66.393  1.00  0.00    -0.055 A  
HETATM   20  C   UNL     1      -7.135   5.332  65.375  1.00  0.00    -0.066 A  
HETATM   21  C   UNL     1      -7.751   6.565  65.649  1.00  0.00    -0.094 A  
HETATM   22  C   UNL     1      -7.926   7.528  64.499  1.00  0.00    -0.122 C  
ENDBRANCH  12  15
ENDBRANCH  10  11
ENDBRANCH   4   5
ENDBRANCH   3   4
ENDBRANCH   2   3
TORSDOF 5
ENDMDL
MODEL      206
REMARK 921   NORMALIZED FREE ENERGY PREDICTED BY IDOCK:   -3.31 KCAL/MOL
REMARK 922        TOTAL FREE ENERGY PREDICTED BY IDOCK:   -5.22 KCAL/MOL
REMARK 923 INTER-LIGAND FREE ENERGY PREDICTED BY IDOCK:   -4.37 KCAL/MOL
REMARK 924 INTRA-LIGAND FREE ENERGY PREDICTED BY IDOCK:   -0.84 KCAL/MOL
REMARK 927      BINDING AFFINITY PREDICTED BY RF-SCORE:    0.00 PKD
ROOT
HETATM    1  C   UNL     1     -10.656   5.447  66.228  1.00  0.00    -0.268 C  
HETATM    2  C   UNL     1     -11.017   6.477  67.290  1.00  0.00    -0.475 C  
ENDROOT
BRANCH   2   3
HETATM    3  C   UNL     1     -10.441   6.103  68.655  1.00  0.00    -0.285 C  
BRANCH   3   4
HETATM    4  C   UNL     1     -11.095   6.885  69.808  1.00  0.00    -0.271 C  
BRANCH   4   5
HETATM    5  N   UNL     1     -10.252   7.964  70.375  1.00  0.00    -0.195 NA 
HETATM    6  C   UNL     1     -10.446   9.249  69.676  1.00  0.00    -0.224 C  
HETATM    7  C   UNL     1     -11.840   9.851  69.871  1.00  0.00    -0.072 C  
HETATM    8  C   UNL     1     -12.187   9.992  71.352  1.00  0.00    -0.510 C  
HETATM    9  C   UNL     1     -11.904   8.711  72.137  1.00  0.00    -0.447 C  
HETATM   10  C   UNL     1     -10.491   8.189  71.837  1.00  0.00    -0.248 C  
BRANCH  10  11
HETATM   11  C   UNL     1     -10.099   6.957  72.689  1.00  0.00    -0.175 C  
HETATM   12  N   UNL     1      -8.879   6.418  72.308  1.00  0.00    -0.135 N  
HETATM   13  O   UNL     1     -10.770   6.588  73.651  1.00  0.00    -0.285 OA 
HETATM   14  H   UNL     1      -8.367   6.923  71.583  1.00  0.00     0.000 HD 
BRANCH  12  15
HETATM   15  C   UNL     1      -8.265   5.248  72.810  1.00  0.00    -0.109 A  
HETATM   16  C   UNL     1      -8.579   3.955  72.334  1.00  0.00    -0.108 A  
HETATM   17  C   UNL     1      -9.592   3.644  71.268  1.00  0.00    -0.244 C  
HETATM   18  C   UNL     1      -7.875   2.844  72.840  1.00  0.00    -0.055 A  
HETATM   19  C   UNL     1      -6.849   3.000  73.768  1.00  0.00    -0.035 A  
HETATM   20  C   UNL     1      -6.532   4.270  74.229  1.00  0.00    -0.052 A  
HETATM   21  C   UNL     1      -7.224   5.399  73.761  1.00  0.00    -0.087 A  
HETATM   22  C   UNL     1      -6.871   6.736  74.369  1.00  0.00    -0.091 C  
ENDBRANCH  12  15
ENDBRANCH  10  11
ENDBRANCH   4   5
ENDBRANCH   3   4
ENDBRANCH   2   3
TORSDOF 5
ENDMDL
MODEL      207
REMARK 921   NORMALIZED FREE ENERGY PREDICTED BY IDOCK:   -3.27 KCAL/MOL
REMARK 922        TOTAL FREE ENERGY PREDICTED BY IDOCK:   -5.18 KCAL/MOL
REMARK 923 INTER-LIGAND FREE ENERGY PREDICTED BY IDOCK:   -4.52 KCAL/MOL
REMARK 924 INTRA-LIGAND FREE ENERGY PREDICTED BY IDOCK:   -0.66 KCAL/MOL
REMARK 927      BINDING AFFINITY PREDICTED BY RF-SCORE:    0.00 PKD
ROOT
HETATM    1  C   UNL     1      -8.390  10.656  64.404  1.00  0.00    -0.032 C  
HETATM    2  C   UNL     1      -9.533   9.674  64.625  1.00  0.00    -0.221 C  
ENDROOT
BRANCH   2   3
HETATM    3  C   UNL     1      -9.615   9.225  66.083  1.00  0.00    -0.327 C  
BRANCH   3   4
HETATM    4  C   UNL     1      -8.547   9.892  66.969  1.00  0.00    -0.128 C  
BRANCH   4   5
HETATM    5  N   UNL     1      -8.934  10.039  68.392  1.00  0.00    -0.119 NA 
HETATM    6  C   UNL     1      -8.074   9.242  69.288  1.00  0.00    -0.106 C  
HETATM    7  C   UNL     1      -6.623   9.727  69.340  1.00  0.00    -0.049 C  
HETATM    8  C   UNL     1      -6.540  11.210  69.700  1.00  0.00    -0.139 C  
HETATM    9  C   UNL     1      -7.493  12.063  68.863  1.00  0.00    -0.043 C  
HETATM   10  C   UNL     1      -8.906  11.461  68.864  1.00  0.00    -0.001 C  
BRANCH  10  11
HETATM   11  C   UNL     1      -9.947  12.341  68.129  1.00  0.00    -0.210 C  
HETATM   12  N   UNL     1      -9.419  12.951  67.000  1.00  0.00    -0.228 N  
HETATM   13  O   UNL     1     -11.124  12.390  68.479  1.00  0.00    -0.227 OA 
HETATM   14  H   UNL     1      -8.461  12.700  66.755  1.00  0.00     0.000 HD 
BRANCH  12  15
HETATM   15  C   UNL     1     -10.060  13.881  66.150  1.00  0.00    -0.308 A  
HETATM   16  C   UNL     1     -11.195  13.553  65.375  1.00  0.00    -0.301 A  
HETATM   17  C   UNL     1     -11.857  12.204  65.331  1.00  0.00    -0.357 C  
HETATM   18  C   UNL     1     -11.816  14.556  64.603  1.00  0.00    -0.462 A  
HETATM   19  C   UNL     1     -11.357  15.870  64.621  1.00  0.00    -0.328 A  
HETATM   20  C   UNL     1     -10.249  16.197  65.390  1.00  0.00    -0.294 A  
HETATM   21  C   UNL     1      -9.594  15.220  66.158  1.00  0.00    -0.353 A  
HETATM   22  C   UNL     1      -8.351  15.640  66.906  1.00  0.00    -0.287 C  
ENDBRANCH  12  15
ENDBRANCH  10  11
ENDBRANCH   4   5
ENDBRANCH   3   4
ENDBRANCH   2   3
TORSDOF 5
ENDMDL
MODEL      208
REMARK 921   NORMALIZED FREE ENERGY PREDICTED BY IDOCK:   -3.26 KCAL/MOL
REMARK 922        TOTAL FREE ENERGY PREDICTED BY IDOCK:   -5.16 KCAL/MOL
REMARK 923 INTER-LIGAND FREE ENERGY PREDICTED BY IDOCK:   -4.55 KCAL/MOL
REMARK 924 INTRA-LIGAND FREE ENERGY PREDICTED BY IDOCK:   -0.61 KCAL/MOL
REMARK 927      BINDING AFFINITY PREDICTED BY RF-SCORE:    0.00 PKD
ROOT
HETATM    1  C   UNL     1      -6.453  13.489  67.645  1.00  0.00    -0.169 C  
HETATM    2  C   UNL     1      -5.716  12.161  67.536  1.00  0.00    -0.117 C  
ENDROOT
BRANCH   2   3
HETATM    3  C   UNL     1      -6.214  11.337  66.350  1.00  0.00    -0.106 C  
BRANCH   3   4
HETATM    4  C   UNL     1      -7.297  10.319  66.750  1.00  0.00    -0.106 C  
BRANCH   4   5
HETATM    5  N   UNL     1      -8.594  10.497  66.056  1.00  0.00    -0.154 NA 
HETATM    6  C   UNL     1      -8.876   9.398  65.112  1.00  0.00    -0.195 C  
HETATM    7  C   UNL     1      -9.106   8.046  65.794  1.00  0.00    -0.109 C  
HETATM    8  C   UNL     1     -10.201   8.133  66.855  1.00  0.00    -0.387 C  
HETATM    9  C   UNL     1     -10.004   9.322  67.795  1.00  0.00    -0.235 C  
HETATM   10  C   UNL     1      -9.754  10.610  66.998  1.00  0.00    -0.176 C  
BRANCH  10  11
HETATM   11  C   UNL     1      -9.661  11.873  67.889  1.00  0.00    -0.193 C  
HETATM   12  N   UNL     1     -10.487  12.896  67.444  1.00  0.00    -0.232 N  
HETATM   13  O   UNL     1      -8.995  11.896  68.922  1.00  0.00    -0.006 OA 
HETATM   14  H   UNL     1     -11.091  12.677  66.651  1.00  0.00     0.000 HD 
BRANCH  12  15
HETATM   15  C   UNL     1     -10.585  14.206  67.964  1.00  0.00    -0.239 A  
HETATM   16  C   UNL     1      -9.965  15.320  67.354  1.00  0.00    -0.223 A  
HETATM   17  C   UNL     1      -9.123  15.272  66.110  1.00  0.00    -0.314 C  
HETATM   18  C   UNL     1     -10.164  16.604  67.899  1.00  0.00    -0.284 A  
HETATM   19  C   UNL     1     -10.993  16.802  69.000  1.00  0.00    -0.239 A  
HETATM   20  C   UNL     1     -11.612  15.711  69.594  1.00  0.00    -0.364 A  
HETATM   21  C   UNL     1     -11.421  14.413  69.090  1.00  0.00    -0.328 A  
HETATM   22  C   UNL     1     -12.068  13.272  69.839  1.00  0.00    -0.377 C  
ENDBRANCH  12  15
ENDBRANCH  10  11
ENDBRANCH   4   5
ENDBRANCH   3   4
ENDBRANCH   2   3
TORSDOF 5
ENDMDL
MODEL      209
REMARK 921   NORMALIZED FREE ENERGY PREDICTED BY IDOCK:   -3.26 KCAL/MOL
REMARK 922        TOTAL FREE ENERGY PREDICTED BY IDOCK:   -5.16 KCAL/MOL
REMARK 923 INTER-LIGAND FREE ENERGY PREDICTED BY IDOCK:   -4.25 KCAL/MOL
REMARK 924 INTRA-LIGAND FREE ENERGY PREDICTED BY IDOCK:   -0.91 KCAL/MOL
REMARK 927      BINDING AFFINITY PREDICTED BY RF-SCORE:    0.00 PKD
ROOT
HETATM    1  C   UNL     1      -9.576   9.618  69.864  1.00  0.00    -0.260 C  
HETATM    2  C   UNL     1      -8.081   9.607  70.157  1.00  0.00    -0.205 C  
ENDROOT
BRANCH   2   3
HETATM    3  C   UNL     1      -7.256   9.580  68.872  1.00  0.00    -0.072 C  
BRANCH   3   4
HETATM    4  C   UNL     1      -8.132   9.506  67.608  1.00  0.00    -0.110 C  
BRANCH   4   5
HETATM    5  N   UNL     1      -7.629  10.303  66.464  1.00  0.00    -0.109 NA 
HETATM    6  C   UNL     1      -6.820   9.493  65.533  1.00  0.00    -0.085 C  
HETATM    7  C   UNL     1      -7.624   8.419  64.794  1.00  0.00    -0.102 C  
HETATM    8  C   UNL     1      -8.829   9.019  64.072  1.00  0.00    -0.052 C  
HETATM    9  C   UNL     1      -9.641   9.949  64.973  1.00  0.00    -0.364 C  
HETATM   10  C   UNL     1      -8.724  10.959  65.679  1.00  0.00    -0.183 C  
BRANCH  10  11
HETATM   11  C   UNL     1      -9.498  12.005  66.518  1.00  0.00    -0.228 C  
HETATM   12  N   UNL     1      -8.889  13.252  66.500  1.00  0.00    -0.449 N  
HETATM   13  O   UNL     1     -10.579  11.750  67.046  1.00  0.00    -0.217 OA 
HETATM   14  H   UNL     1      -8.070  13.348  65.897  1.00  0.00     0.000 HD 
BRANCH  12  15
HETATM   15  C   UNL     1      -9.274  14.405  67.221  1.00  0.00    -0.209 A  
HETATM   16  C   UNL     1     -10.242  15.317  66.745  1.00  0.00    -0.273 A  
HETATM   17  C   UNL     1     -10.970  15.207  65.434  1.00  0.00    -0.381 C  
HETATM   18  C   UNL     1     -10.619  16.408  67.554  1.00  0.00    -0.309 A  
HETATM   19  C   UNL     1     -10.086  16.580  68.829  1.00  0.00    -0.255 A  
HETATM   20  C   UNL     1      -9.143  15.679  69.303  1.00  0.00    -0.270 A  
HETATM   21  C   UNL     1      -8.730  14.591  68.517  1.00  0.00    -0.177 A  
HETATM   22  C   UNL     1      -7.644  13.701  69.074  1.00  0.00     0.056 C  
ENDBRANCH  12  15
ENDBRANCH  10  11
ENDBRANCH   4   5
ENDBRANCH   3   4
ENDBRANCH   2   3
TORSDOF 5
ENDMDL
MODEL      210
REMARK 921   NORMALIZED FREE ENERGY PREDICTED BY IDOCK:   -3.24 KCAL/MOL
REMARK 922        TOTAL FREE ENERGY PREDICTED BY IDOCK:   -5.14 KCAL/MOL
REMARK 923 INTER-LIGAND FREE ENERGY PREDICTED BY IDOCK:   -4.33 KCAL/MOL
REMARK 924 INTRA-LIGAND FREE ENERGY PREDICTED BY IDOCK:   -0.81 KCAL/MOL
REMARK 927      BINDING AFFINITY PREDICTED BY RF-SCORE:    0.00 PKD
ROOT
HETATM    1  C   UNL     1     -10.178   5.854  67.482  1.00  0.00    -0.232 C  
HETATM    2  C   UNL     1     -10.759   7.125  66.878  1.00  0.00    -0.363 C  
ENDROOT
BRANCH   2   3
HETATM    3  C   UNL     1      -9.858   8.332  67.133  1.00  0.00    -0.281 C  
BRANCH   3   4
HETATM    4  C   UNL     1      -8.942   8.140  68.354  1.00  0.00    -0.136 C  
BRANCH   4   5
HETATM    5  N   UNL     1      -9.289   8.984  69.522  1.00  0.00    -0.156 NA 
HETATM    6  C   UNL     1      -9.435   8.192  70.758  1.00  0.00    -0.162 C  
HETATM    7  C   UNL     1      -8.126   7.565  71.246  1.00  0.00    -0.096 C  
HETATM    8  C   UNL     1      -7.029   8.615  71.410  1.00  0.00    -0.086 C  
HETATM    9  C   UNL     1      -6.911   9.527  70.189  1.00  0.00    -0.092 C  
HETATM   10  C   UNL     1      -8.288  10.070  69.780  1.00  0.00    -0.172 C  
BRANCH  10  11
HETATM   11  C   UNL     1      -8.223  11.092  68.619  1.00  0.00    -0.151 C  
HETATM   12  N   UNL     1      -9.251  12.023  68.677  1.00  0.00    -0.380 N  
HETATM   13  O   UNL     1      -7.295  11.107  67.813  1.00  0.00    -0.088 OA 
HETATM   14  H   UNL     1      -9.865  11.969  69.490  1.00  0.00     0.000 HD 
BRANCH  12  15
HETATM   15  C   UNL     1      -9.543  13.036  67.736  1.00  0.00    -0.208 A  
HETATM   16  C   UNL     1     -10.434  12.843  66.656  1.00  0.00    -0.272 A  
HETATM   17  C   UNL     1     -11.167  11.566  66.351  1.00  0.00    -0.307 C  
HETATM   18  C   UNL     1     -10.722  13.924  65.798  1.00  0.00    -0.289 A  
HETATM   19  C   UNL     1     -10.179  15.187  66.020  1.00  0.00    -0.325 A  
HETATM   20  C   UNL     1      -9.312  15.381  67.086  1.00  0.00    -0.225 A  
HETATM   21  C   UNL     1      -8.987  14.323  67.950  1.00  0.00    -0.186 A  
HETATM   22  C   UNL     1      -7.978  14.597  69.039  1.00  0.00    -0.122 C  
ENDBRANCH  12  15
ENDBRANCH  10  11
ENDBRANCH   4   5
ENDBRANCH   3   4
ENDBRANCH   2   3
TORSDOF 5
ENDMDL
MODEL      211
REMARK 921   NORMALIZED FREE ENERGY PREDICTED BY IDOCK:   -3.23 KCAL/MOL
REMARK 922        TOTAL FREE ENERGY PREDICTED BY IDOCK:   -5.13 KCAL/MOL
REMARK 923 INTER-LIGAND FREE ENERGY PREDICTED BY IDOCK:   -4.35 KCAL/MOL
REMARK 924 INTRA-LIGAND FREE ENERGY PREDICTED BY IDOCK:   -0.77 KCAL/MOL
REMARK 927      BINDING AFFINITY PREDICTED BY RF-SCORE:    0.00 PKD
ROOT
HETATM    1  C   UNL     1     -12.284  12.363  63.604  1.00  0.00    -0.653 C  
HETATM    2  C   UNL     1     -11.369  11.630  64.575  1.00  0.00    -0.310 C  
ENDROOT
BRANCH   2   3
HETATM    3  C   UNL     1     -11.357  12.296  65.949  1.00  0.00    -0.406 C  
BRANCH   3   4
HETATM    4  C   UNL     1     -10.871  11.350  67.061  1.00  0.00    -0.282 C  
BRANCH   4   5
HETATM    5  N   UNL     1     -10.904  11.935  68.423  1.00  0.00    -0.216 NA 
HETATM    6  C   UNL     1     -11.929  11.302  69.276  1.00  0.00    -0.342 C  
HETATM    7  C   UNL     1     -11.635   9.837  69.607  1.00  0.00    -0.032 C  
HETATM    8  C   UNL     1     -10.249   9.669  70.226  1.00  0.00    -0.333 C  
HETATM    9  C   UNL     1      -9.166  10.396  69.428  1.00  0.00    -0.177 C  
HETATM   10  C   UNL     1      -9.587  11.843  69.134  1.00  0.00     0.363 C  
BRANCH  10  11
HETATM   11  C   UNL     1      -8.484  12.670  68.428  1.00  0.00    -0.121 C  
HETATM   12  N   UNL     1      -8.733  14.035  68.480  1.00  0.00    -0.239 N  
HETATM   13  O   UNL     1      -7.469  12.149  67.971  1.00  0.00    -0.098 OA 
HETATM   14  H   UNL     1      -9.548  14.326  69.020  1.00  0.00     0.000 HD 
BRANCH  12  15
HETATM   15  C   UNL     1      -7.985  15.065  67.867  1.00  0.00    -0.138 A  
HETATM   16  C   UNL     1      -8.315  15.601  66.602  1.00  0.00    -0.310 A  
HETATM   17  C   UNL     1      -9.465  15.157  65.742  1.00  0.00    -0.285 C  
HETATM   18  C   UNL     1      -7.557  16.673  66.088  1.00  0.00    -0.090 A  
HETATM   19  C   UNL     1      -6.518  17.240  66.821  1.00  0.00    -0.244 A  
HETATM   20  C   UNL     1      -6.199  16.722  68.068  1.00  0.00    -0.144 A  
HETATM   21  C   UNL     1      -6.920  15.642  68.604  1.00  0.00    -0.125 A  
HETATM   22  C   UNL     1      -6.461  15.088  69.932  1.00  0.00    -0.169 C  
ENDBRANCH  12  15
ENDBRANCH  10  11
ENDBRANCH   4   5
ENDBRANCH   3   4
ENDBRANCH   2   3
TORSDOF 5
ENDMDL
MODEL      212
REMARK 921   NORMALIZED FREE ENERGY PREDICTED BY IDOCK:   -3.22 KCAL/MOL
REMARK 922        TOTAL FREE ENERGY PREDICTED BY IDOCK:   -5.11 KCAL/MOL
REMARK 923 INTER-LIGAND FREE ENERGY PREDICTED BY IDOCK:   -4.14 KCAL/MOL
REMARK 924 INTRA-LIGAND FREE ENERGY PREDICTED BY IDOCK:   -0.97 KCAL/MOL
REMARK 927      BINDING AFFINITY PREDICTED BY RF-SCORE:    0.00 PKD
ROOT
HETATM    1  C   UNL     1      -8.070   6.548  74.029  1.00  0.00    -0.120 C  
HETATM    2  C   UNL     1      -8.028   5.399  73.030  1.00  0.00    -0.101 C  
ENDROOT
BRANCH   2   3
HETATM    3  C   UNL     1      -9.431   4.912  72.672  1.00  0.00    -0.159 C  
BRANCH   3   4
HETATM    4  C   UNL     1      -9.691   4.922  71.155  1.00  0.00    -0.179 C  
BRANCH   4   5
HETATM    5  N   UNL     1      -8.486   5.161  70.327  1.00  0.00    -0.100 NA 
HETATM    6  C   UNL     1      -7.928   3.908  69.781  1.00  0.00    -0.054 C  
HETATM    7  C   UNL     1      -8.839   3.223  68.759  1.00  0.00    -0.165 C  
HETATM    8  C   UNL     1      -9.226   4.173  67.627  1.00  0.00    -0.184 C  
HETATM    9  C   UNL     1      -9.715   5.525  68.147  1.00  0.00    -0.164 C  
HETATM   10  C   UNL     1      -8.736   6.096  69.182  1.00  0.00    -0.121 C  
BRANCH  10  11
HETATM   11  C   UNL     1      -9.114   7.519  69.663  1.00  0.00    -0.140 C  
HETATM   12  N   UNL     1     -10.357   7.921  69.196  1.00  0.00    -0.217 N  
HETATM   13  O   UNL     1      -8.411   8.150  70.449  1.00  0.00    -0.114 OA 
HETATM   14  H   UNL     1     -10.889   7.228  68.668  1.00  0.00     0.000 HD 
BRANCH  12  15
HETATM   15  C   UNL     1     -10.970   9.183  69.369  1.00  0.00    -0.092 A  
HETATM   16  C   UNL     1     -11.808   9.482  70.467  1.00  0.00    -0.246 A  
HETATM   17  C   UNL     1     -12.171   8.526  71.569  1.00  0.00    -0.355 C  
HETATM   18  C   UNL     1     -12.329  10.784  70.602  1.00  0.00    -0.465 A  
HETATM   19  C   UNL     1     -12.001  11.791  69.698  1.00  0.00    -0.378 A  
HETATM   20  C   UNL     1     -11.170  11.503  68.625  1.00  0.00    -0.307 A  
HETATM   21  C   UNL     1     -10.647  10.211  68.448  1.00  0.00    -0.249 A  
HETATM   22  C   UNL     1      -9.813   9.959  67.214  1.00  0.00    -0.228 C  
ENDBRANCH  12  15
ENDBRANCH  10  11
ENDBRANCH   4   5
ENDBRANCH   3   4
ENDBRANCH   2   3
TORSDOF 5
ENDMDL
MODEL      213
REMARK 921   NORMALIZED FREE ENERGY PREDICTED BY IDOCK:   -3.14 KCAL/MOL
REMARK 922        TOTAL FREE ENERGY PREDICTED BY IDOCK:   -5.00 KCAL/MOL
REMARK 923 INTER-LIGAND FREE ENERGY PREDICTED BY IDOCK:   -4.98 KCAL/MOL
REMARK 924 INTRA-LIGAND FREE ENERGY PREDICTED BY IDOCK:   -0.02 KCAL/MOL
REMARK 927      BINDING AFFINITY PREDICTED BY RF-SCORE:    0.00 PKD
ROOT
HETATM    1  C   UNL     1      -9.741  15.317  65.996  1.00  0.00    -0.367 C  
HETATM    2  C   UNL     1     -10.785  15.234  67.101  1.00  0.00    -0.316 C  
ENDROOT
BRANCH   2   3
HETATM    3  C   UNL     1     -10.831  13.842  67.729  1.00  0.00    -0.261 C  
BRANCH   3   4
HETATM    4  C   UNL     1     -10.327  12.745  66.774  1.00  0.00    -0.240 C  
BRANCH   4   5
HETATM    5  N   UNL     1     -11.382  11.829  66.281  1.00  0.00    -0.342 NA 
HETATM    6  C   UNL     1     -12.323  12.503  65.366  1.00  0.00    -0.359 C  
HETATM    7  C   UNL     1     -11.690  12.940  64.043  1.00  0.00    -0.499 C  
HETATM    8  C   UNL     1     -11.005  11.771  63.337  1.00  0.00    -0.458 C  
HETATM    9  C   UNL     1     -10.095  10.979  64.276  1.00  0.00    -0.398 C  
HETATM   10  C   UNL     1     -10.831  10.625  65.576  1.00  0.00     0.070 C  
BRANCH  10  11
HETATM   11  C   UNL     1     -10.002   9.723  66.523  1.00  0.00    -0.239 C  
HETATM   12  N   UNL     1      -9.434  10.437  67.569  1.00  0.00    -0.148 N  
HETATM   13  O   UNL     1      -9.957   8.502  66.388  1.00  0.00    -0.269 OA 
HETATM   14  H   UNL     1      -9.681  11.425  67.630  1.00  0.00     0.000 HD 
BRANCH  12  15
HETATM   15  C   UNL     1      -8.553   9.949  68.560  1.00  0.00    -0.117 A  
HETATM   16  C   UNL     1      -7.164   9.807  68.345  1.00  0.00    -0.077 A  
HETATM   17  C   UNL     1      -6.445  10.130  67.065  1.00  0.00    -0.069 C  
HETATM   18  C   UNL     1      -6.342   9.374  69.406  1.00  0.00    -0.044 A  
HETATM   19  C   UNL     1      -6.867   9.124  70.671  1.00  0.00    -0.084 A  
HETATM   20  C   UNL     1      -8.230   9.273  70.887  1.00  0.00    -0.179 A  
HETATM   21  C   UNL     1      -9.082   9.685  69.849  1.00  0.00    -0.250 A  
HETATM   22  C   UNL     1     -10.561   9.749  70.145  1.00  0.00    -0.337 C  
ENDBRANCH  12  15
ENDBRANCH  10  11
ENDBRANCH   4   5
ENDBRANCH   3   4
ENDBRANCH   2   3
TORSDOF 5
ENDMDL
MODEL      214
REMARK 921   NORMALIZED FREE ENERGY PREDICTED BY IDOCK:   -3.13 KCAL/MOL
REMARK 922        TOTAL FREE ENERGY PREDICTED BY IDOCK:   -4.99 KCAL/MOL
REMARK 923 INTER-LIGAND FREE ENERGY PREDICTED BY IDOCK:   -4.06 KCAL/MOL
REMARK 924 INTRA-LIGAND FREE ENERGY PREDICTED BY IDOCK:   -0.94 KCAL/MOL
REMARK 927      BINDING AFFINITY PREDICTED BY RF-SCORE:    0.00 PKD
ROOT
HETATM    1  C   UNL     1     -13.727   9.782  71.445  1.00  0.00    -0.241 C  
HETATM    2  C   UNL     1     -13.241   8.519  72.143  1.00  0.00    -0.384 C  
ENDROOT
BRANCH   2   3
HETATM    3  C   UNL     1     -11.719   8.396  72.090  1.00  0.00    -0.442 C  
BRANCH   3   4
HETATM    4  C   UNL     1     -11.251   7.211  71.228  1.00  0.00    -0.259 C  
BRANCH   4   5
HETATM    5  N   UNL     1      -9.819   6.864  71.385  1.00  0.00    -0.178 NA 
HETATM    6  C   UNL     1      -9.534   6.254  72.698  1.00  0.00    -0.148 C  
HETATM    7  C   UNL     1     -10.178   4.878  72.889  1.00  0.00    -0.217 C  
HETATM    8  C   UNL     1      -9.798   3.920  71.762  1.00  0.00    -0.249 C  
HETATM    9  C   UNL     1      -9.981   4.549  70.381  1.00  0.00    -0.284 C  
HETATM   10  C   UNL     1      -9.319   5.933  70.321  1.00  0.00    -0.158 C  
BRANCH  10  11
HETATM   11  C   UNL     1      -9.368   6.576  68.913  1.00  0.00    -0.131 C  
HETATM   12  N   UNL     1      -8.600   7.729  68.832  1.00  0.00    -0.132 N  
HETATM   13  O   UNL     1      -9.953   6.043  67.972  1.00  0.00    -0.128 OA 
HETATM   14  H   UNL     1      -8.055   7.969  69.661  1.00  0.00     0.000 HD 
BRANCH  12  15
HETATM   15  C   UNL     1      -8.488   8.608  67.731  1.00  0.00    -0.125 A  
HETATM   16  C   UNL     1      -7.539   8.425  66.700  1.00  0.00    -0.089 A  
HETATM   17  C   UNL     1      -6.532   7.311  66.633  1.00  0.00    -0.052 C  
HETATM   18  C   UNL     1      -7.534   9.309  65.602  1.00  0.00    -0.094 A  
HETATM   19  C   UNL     1      -8.472  10.333  65.495  1.00  0.00    -0.167 A  
HETATM   20  C   UNL     1      -9.411  10.508  66.502  1.00  0.00    -0.189 A  
HETATM   21  C   UNL     1      -9.434   9.658  67.619  1.00  0.00    -0.155 A  
HETATM   22  C   UNL     1     -10.437   9.963  68.707  1.00  0.00    -0.234 C  
ENDBRANCH  12  15
ENDBRANCH  10  11
ENDBRANCH   4   5
ENDBRANCH   3   4
ENDBRANCH   2   3
TORSDOF 5
ENDMDL
MODEL      215
REMARK 921   NORMALIZED FREE ENERGY PREDICTED BY IDOCK:   -3.12 KCAL/MOL
REMARK 922        TOTAL FREE ENERGY PREDICTED BY IDOCK:   -4.98 KCAL/MOL
REMARK 923 INTER-LIGAND FREE ENERGY PREDICTED BY IDOCK:   -4.11 KCAL/MOL
REMARK 924 INTRA-LIGAND FREE ENERGY PREDICTED BY IDOCK:   -0.86 KCAL/MOL
REMARK 927      BINDING AFFINITY PREDICTED BY RF-SCORE:    0.00 PKD
ROOT
HETATM    1  C   UNL     1      -8.858   7.187  70.720  1.00  0.00    -0.148 C  
HETATM    2  C   UNL     1     -10.012   8.160  70.521  1.00  0.00    -0.195 C  
ENDROOT
BRANCH   2   3
HETATM    3  C   UNL     1      -9.534   9.611  70.538  1.00  0.00    -0.243 C  
BRANCH   3   4
HETATM    4  C   UNL     1      -9.571  10.262  69.144  1.00  0.00    -0.218 C  
BRANCH   4   5
HETATM    5  N   UNL     1     -10.700   9.822  68.290  1.00  0.00    -0.238 NA 
HETATM    6  C   UNL     1     -11.762  10.842  68.201  1.00  0.00    -0.154 C  
HETATM    7  C   UNL     1     -11.333  12.114  67.464  1.00  0.00    -0.392 C  
HETATM    8  C   UNL     1     -10.778  11.798  66.077  1.00  0.00    -0.324 C  
HETATM    9  C   UNL     1      -9.745  10.672  66.108  1.00  0.00    -0.253 C  
HETATM   10  C   UNL     1     -10.278   9.467  66.896  1.00  0.00    -0.248 C  
BRANCH  10  11
HETATM   11  C   UNL     1      -9.325   8.247  66.869  1.00  0.00    -0.176 C  
HETATM   12  N   UNL     1      -9.924   7.120  66.323  1.00  0.00    -0.441 N  
HETATM   13  O   UNL     1      -8.146   8.331  67.208  1.00  0.00    -0.107 OA 
HETATM   14  H   UNL     1     -10.867   7.244  65.951  1.00  0.00     0.000 HD 
BRANCH  12  15
HETATM   15  C   UNL     1      -9.377   5.821  66.224  1.00  0.00    -0.156 A  
HETATM   16  C   UNL     1      -8.489   5.442  65.193  1.00  0.00    -0.150 A  
HETATM   17  C   UNL     1      -8.022   6.334  64.075  1.00  0.00    -0.099 C  
HETATM   18  C   UNL     1      -7.935   4.146  65.201  1.00  0.00    -0.093 A  
HETATM   19  C   UNL     1      -8.214   3.247  66.227  1.00  0.00    -0.097 A  
HETATM   20  C   UNL     1      -9.078   3.621  67.247  1.00  0.00    -0.191 A  
HETATM   21  C   UNL     1      -9.663   4.898  67.262  1.00  0.00    -0.194 A  
HETATM   22  C   UNL     1     -10.651   5.200  68.363  1.00  0.00     0.005 C  
ENDBRANCH  12  15
ENDBRANCH  10  11
ENDBRANCH   4   5
ENDBRANCH   3   4
ENDBRANCH   2   3
TORSDOF 5
ENDMDL
MODEL      216
REMARK 921   NORMALIZED FREE ENERGY PREDICTED BY IDOCK:   -3.11 KCAL/MOL
REMARK 922        TOTAL FREE ENERGY PREDICTED BY IDOCK:   -4.96 KCAL/MOL
REMARK 923 INTER-LIGAND FREE ENERGY PREDICTED BY IDOCK:   -4.30 KCAL/MOL
REMARK 924 INTRA-LIGAND FREE ENERGY PREDICTED BY IDOCK:   -0.66 KCAL/MOL
REMARK 927      BINDING AFFINITY PREDICTED BY RF-SCORE:    0.00 PKD
ROOT
HETATM    1  C   UNL     1      -7.983   4.926  63.957  1.00  0.00    -0.101 C  
HETATM    2  C   UNL     1      -9.246   4.087  63.817  1.00  0.00    -0.138 C  
ENDROOT
BRANCH   2   3
HETATM    3  C   UNL     1      -9.931   3.872  65.166  1.00  0.00    -0.171 C  
BRANCH   3   4
HETATM    4  C   UNL     1      -9.614   4.990  66.175  1.00  0.00    -0.168 C  
BRANCH   4   5
HETATM    5  N   UNL     1      -9.746   4.590  67.596  1.00  0.00    -0.168 NA 
HETATM    6  C   UNL     1      -8.881   3.443  67.934  1.00  0.00    -0.123 C  
HETATM    7  C   UNL     1      -7.385   3.760  67.870  1.00  0.00    -0.062 C  
HETATM    8  C   UNL     1      -7.030   4.969  68.734  1.00  0.00    -0.052 C  
HETATM    9  C   UNL     1      -7.968   6.151  68.490  1.00  0.00    -0.108 C  
HETATM   10  C   UNL     1      -9.435   5.704  68.551  1.00  0.00    -0.125 C  
BRANCH  10  11
HETATM   11  C   UNL     1     -10.439   6.876  68.426  1.00  0.00    -0.204 C  
HETATM   12  N   UNL     1      -9.941   8.057  68.959  1.00  0.00    -0.180 N  
HETATM   13  O   UNL     1     -11.506   6.761  67.826  1.00  0.00    -0.077 OA 
HETATM   14  H   UNL     1      -8.978   8.032  69.295  1.00  0.00     0.000 HD 
BRANCH  12  15
HETATM   15  C   UNL     1     -10.619   9.290  69.090  1.00  0.00    -0.212 A  
HETATM   16  C   UNL     1     -10.749  10.208  68.024  1.00  0.00    -0.305 A  
HETATM   17  C   UNL     1     -10.191  10.019  66.641  1.00  0.00    -0.288 C  
HETATM   18  C   UNL     1     -11.496  11.388  68.217  1.00  0.00    -0.369 A  
HETATM   19  C   UNL     1     -12.141  11.646  69.423  1.00  0.00    -0.328 A  
HETATM   20  C   UNL     1     -12.023  10.740  70.469  1.00  0.00    -0.456 A  
HETATM   21  C   UNL     1     -11.272   9.563  70.319  1.00  0.00    -0.307 A  
HETATM   22  C   UNL     1     -11.129   8.668  71.527  1.00  0.00    -0.358 C  
ENDBRANCH  12  15
ENDBRANCH  10  11
ENDBRANCH   4   5
ENDBRANCH   3   4
ENDBRANCH   2   3
TORSDOF 5
ENDMDL
MODEL      217
REMARK 921   NORMALIZED FREE ENERGY PREDICTED BY IDOCK:   -3.06 KCAL/MOL
REMARK 922        TOTAL FREE ENERGY PREDICTED BY IDOCK:   -4.90 KCAL/MOL
REMARK 923 INTER-LIGAND FREE ENERGY PREDICTED BY IDOCK:   -3.97 KCAL/MOL
REMARK 924 INTRA-LIGAND FREE ENERGY PREDICTED BY IDOCK:   -0.93 KCAL/MOL
REMARK 927      BINDING AFFINITY PREDICTED BY RF-SCORE:    0.00 PKD
ROOT
HETATM    1  C   UNL     1      -6.065   9.524  65.910  1.00  0.00    -0.063 C  
HETATM    2  C   UNL     1      -7.449  10.149  65.805  1.00  0.00    -0.131 C  
ENDROOT
BRANCH   2   3
HETATM    3  C   UNL     1      -8.382   9.637  66.900  1.00  0.00    -0.117 C  
BRANCH   3   4
HETATM    4  C   UNL     1      -9.063  10.777  67.678  1.00  0.00    -0.147 C  
BRANCH   4   5
HETATM    5  N   UNL     1     -10.375  11.197  67.131  1.00  0.00    -0.204 NA 
HETATM    6  C   UNL     1     -11.492  10.425  67.708  1.00  0.00     0.028 C  
HETATM    7  C   UNL     1     -11.715  10.685  69.200  1.00  0.00    -0.324 C  
HETATM    8  C   UNL     1     -11.891  12.175  69.488  1.00  0.00    -0.386 C  
HETATM    9  C   UNL     1     -10.809  13.026  68.823  1.00  0.00    -0.277 C  
HETATM   10  C   UNL     1     -10.660  12.654  67.341  1.00  0.00    -0.224 C  
BRANCH  10  11
HETATM   11  C   UNL     1      -9.660  13.559  66.580  1.00  0.00    -0.277 C  
HETATM   12  N   UNL     1      -9.068  14.504  67.406  1.00  0.00    -0.188 N  
HETATM   13  O   UNL     1      -9.375  13.369  65.399  1.00  0.00     0.169 OA 
HETATM   14  H   UNL     1      -9.299  14.446  68.399  1.00  0.00     0.000 HD 
BRANCH  12  15
HETATM   15  C   UNL     1      -8.181  15.537  67.028  1.00  0.00    -0.240 A  
HETATM   16  C   UNL     1      -8.625  16.778  66.520  1.00  0.00    -0.312 A  
HETATM   17  C   UNL     1     -10.062  17.163  66.299  1.00  0.00    -0.329 C  
HETATM   18  C   UNL     1      -7.680  17.782  66.227  1.00  0.00    -0.308 A  
HETATM   19  C   UNL     1      -6.323  17.589  66.468  1.00  0.00    -0.261 A  
HETATM   20  C   UNL     1      -5.885  16.374  66.978  1.00  0.00    -0.087 A  
HETATM   21  C   UNL     1      -6.796  15.344  67.264  1.00  0.00    -0.143 A  
HETATM   22  C   UNL     1      -6.233  14.028  67.743  1.00  0.00    -0.152 C  
ENDBRANCH  12  15
ENDBRANCH  10  11
ENDBRANCH   4   5
ENDBRANCH   3   4
ENDBRANCH   2   3
TORSDOF 5
ENDMDL
MODEL      218
REMARK 921   NORMALIZED FREE ENERGY PREDICTED BY IDOCK:   -3.05 KCAL/MOL
REMARK 922        TOTAL FREE ENERGY PREDICTED BY IDOCK:   -4.89 KCAL/MOL
REMARK 923 INTER-LIGAND FREE ENERGY PREDICTED BY IDOCK:   -4.30 KCAL/MOL
REMARK 924 INTRA-LIGAND FREE ENERGY PREDICTED BY IDOCK:   -0.59 KCAL/MOL
REMARK 927      BINDING AFFINITY PREDICTED BY RF-SCORE:    0.00 PKD
ROOT
HETATM    1  C   UNL     1     -12.486  12.271  64.250  1.00  0.00    -0.508 C  
HETATM    2  C   UNL     1     -11.801  13.536  64.748  1.00  0.00    -0.412 C  
ENDROOT
BRANCH   2   3
HETATM    3  C   UNL     1     -12.177  13.847  66.196  1.00  0.00    -0.498 C  
BRANCH   3   4
HETATM    4  C   UNL     1     -10.959  13.845  67.137  1.00  0.00    -0.291 C  
BRANCH   4   5
HETATM    5  N   UNL     1      -9.872  14.770  66.737  1.00  0.00    -0.247 NA 
HETATM    6  C   UNL     1     -10.339  16.166  66.631  1.00  0.00    -0.296 C  
HETATM    7  C   UNL     1     -10.752  16.780  67.971  1.00  0.00    -0.355 C  
HETATM    8  C   UNL     1      -9.634  16.669  69.006  1.00  0.00    -0.246 C  
HETATM    9  C   UNL     1      -9.049  15.259  69.078  1.00  0.00    -0.225 C  
HETATM   10  C   UNL     1      -8.702  14.741  67.674  1.00  0.00    -0.178 C  
BRANCH  10  11
HETATM   11  C   UNL     1      -7.998  13.362  67.686  1.00  0.00    -0.174 C  
HETATM   12  N   UNL     1      -8.323  12.613  68.808  1.00  0.00    -0.356 N  
HETATM   13  O   UNL     1      -7.314  12.970  66.742  1.00  0.00     0.236 OA 
HETATM   14  H   UNL     1      -9.020  13.016  69.436  1.00  0.00     0.000 HD 
BRANCH  12  15
HETATM   15  C   UNL     1      -7.797  11.355  69.180  1.00  0.00     0.027 A  
HETATM   16  C   UNL     1      -8.492  10.143  68.968  1.00  0.00    -0.151 A  
HETATM   17  C   UNL     1      -9.857  10.020  68.350  1.00  0.00    -0.169 C  
HETATM   18  C   UNL     1      -7.872   8.924  69.308  1.00  0.00    -0.096 A  
HETATM   19  C   UNL     1      -6.573   8.888  69.808  1.00  0.00    -0.041 A  
HETATM   20  C   UNL     1      -5.885  10.077  70.006  1.00  0.00    -0.049 A  
HETATM   21  C   UNL     1      -6.478  11.312  69.697  1.00  0.00    -0.132 A  
HETATM   22  C   UNL     1      -5.692  12.562  70.014  1.00  0.00    -0.140 C  
ENDBRANCH  12  15
ENDBRANCH  10  11
ENDBRANCH   4   5
ENDBRANCH   3   4
ENDBRANCH   2   3
TORSDOF 5
ENDMDL
MODEL      219
REMARK 921   NORMALIZED FREE ENERGY PREDICTED BY IDOCK:   -3.04 KCAL/MOL
REMARK 922        TOTAL FREE ENERGY PREDICTED BY IDOCK:   -4.88 KCAL/MOL
REMARK 923 INTER-LIGAND FREE ENERGY PREDICTED BY IDOCK:   -3.68 KCAL/MOL
REMARK 924 INTRA-LIGAND FREE ENERGY PREDICTED BY IDOCK:   -1.20 KCAL/MOL
REMARK 927      BINDING AFFINITY PREDICTED BY RF-SCORE:    0.00 PKD
ROOT
HETATM    1  C   UNL     1      -8.072   8.525  71.489  1.00  0.00    -0.191 C  
HETATM    2  C   UNL     1      -7.851   7.023  71.599  1.00  0.00    -0.098 C  
ENDROOT
BRANCH   2   3
HETATM    3  C   UNL     1      -9.169   6.253  71.534  1.00  0.00    -0.149 C  
BRANCH   3   4
HETATM    4  C   UNL     1      -9.427   5.637  70.147  1.00  0.00    -0.159 C  
BRANCH   4   5
HETATM    5  N   UNL     1      -8.208   5.169  69.446  1.00  0.00    -0.086 NA 
HETATM    6  C   UNL     1      -8.033   3.707  69.549  1.00  0.00    -0.050 C  
HETATM    7  C   UNL     1      -9.107   2.905  68.810  1.00  0.00    -0.212 C  
HETATM    8  C   UNL     1      -9.214   3.328  67.346  1.00  0.00    -0.233 C  
HETATM    9  C   UNL     1      -9.295   4.846  67.186  1.00  0.00    -0.139 C  
HETATM   10  C   UNL     1      -8.188   5.538  67.993  1.00  0.00    -0.100 C  
BRANCH  10  11
HETATM   11  C   UNL     1      -8.143   7.072  67.782  1.00  0.00    -0.114 C  
HETATM   12  N   UNL     1      -9.297   7.557  67.183  1.00  0.00    -0.137 N  
HETATM   13  O   UNL     1      -7.215   7.762  68.200  1.00  0.00    -0.085 OA 
HETATM   14  H   UNL     1     -10.044   6.879  67.024  1.00  0.00     0.000 HD 
BRANCH  12  15
HETATM   15  C   UNL     1      -9.555   8.883  66.769  1.00  0.00    -0.202 A  
HETATM   16  C   UNL     1      -9.112   9.397  65.530  1.00  0.00    -0.270 A  
HETATM   17  C   UNL     1      -8.313   8.636  64.509  1.00  0.00    -0.157 C  
HETATM   18  C   UNL     1      -9.466  10.711  65.161  1.00  0.00    -0.276 A  
HETATM   19  C   UNL     1     -10.277  11.495  65.976  1.00  0.00    -0.283 A  
HETATM   20  C   UNL     1     -10.723  10.989  67.189  1.00  0.00    -0.313 A  
HETATM   21  C   UNL     1     -10.375   9.691  67.597  1.00  0.00    -0.290 A  
HETATM   22  C   UNL     1     -10.835   9.243  68.964  1.00  0.00    -0.136 C  
ENDBRANCH  12  15
ENDBRANCH  10  11
ENDBRANCH   4   5
ENDBRANCH   3   4
ENDBRANCH   2   3
TORSDOF 5
ENDMDL
MODEL      220
REMARK 921   NORMALIZED FREE ENERGY PREDICTED BY IDOCK:   -3.04 KCAL/MOL
REMARK 922        TOTAL FREE ENERGY PREDICTED BY IDOCK:   -4.87 KCAL/MOL
REMARK 923 INTER-LIGAND FREE ENERGY PREDICTED BY IDOCK:   -4.49 KCAL/MOL
REMARK 924 INTRA-LIGAND FREE ENERGY PREDICTED BY IDOCK:   -0.38 KCAL/MOL
REMARK 927      BINDING AFFINITY PREDICTED BY RF-SCORE:    0.00 PKD
ROOT
HETATM    1  C   UNL     1      -5.129  12.067  69.607  1.00  0.00    -0.070 C  
HETATM    2  C   UNL     1      -6.093  10.889  69.573  1.00  0.00    -0.061 C  
ENDROOT
BRANCH   2   3
HETATM    3  C   UNL     1      -5.735   9.899  68.466  1.00  0.00    -0.042 C  
BRANCH   3   4
HETATM    4  C   UNL     1      -6.900   9.656  67.491  1.00  0.00    -0.082 C  
BRANCH   4   5
HETATM    5  N   UNL     1      -7.253  10.825  66.651  1.00  0.00    -0.127 NA 
HETATM    6  C   UNL     1      -6.774  10.678  65.262  1.00  0.00     0.017 C  
HETATM    7  C   UNL     1      -7.469   9.555  64.487  1.00  0.00    -0.114 C  
HETATM    8  C   UNL     1      -8.988   9.714  64.514  1.00  0.00    -0.278 C  
HETATM    9  C   UNL     1      -9.519   9.971  65.924  1.00  0.00    -0.260 C  
HETATM   10  C   UNL     1      -8.727  11.094  66.608  1.00  0.00    -0.166 C  
BRANCH  10  11
HETATM   11  C   UNL     1      -9.289  11.483  67.997  1.00  0.00    -0.175 C  
HETATM   12  N   UNL     1     -10.429  10.761  68.327  1.00  0.00    -0.171 N  
HETATM   13  O   UNL     1      -8.709  12.274  68.739  1.00  0.00    -0.024 OA 
HETATM   14  H   UNL     1     -10.710  10.034  67.668  1.00  0.00     0.000 HD 
BRANCH  12  15
HETATM   15  C   UNL     1     -11.243  10.921  69.471  1.00  0.00    -0.277 A  
HETATM   16  C   UNL     1     -11.898  12.134  69.779  1.00  0.00    -0.397 A  
HETATM   17  C   UNL     1     -11.816  13.397  68.968  1.00  0.00    -0.378 C  
HETATM   18  C   UNL     1     -12.745  12.193  70.905  1.00  0.00    -0.280 A  
HETATM   19  C   UNL     1     -12.980  11.069  71.692  1.00  0.00    -0.561 A  
HETATM   20  C   UNL     1     -12.345   9.874  71.385  1.00  0.00    -0.498 A  
HETATM   21  C   UNL     1     -11.480   9.782  70.282  1.00  0.00    -0.317 A  
HETATM   22  C   UNL     1     -10.769   8.469  70.061  1.00  0.00    -0.234 C  
ENDBRANCH  12  15
ENDBRANCH  10  11
ENDBRANCH   4   5
ENDBRANCH   3   4
ENDBRANCH   2   3
TORSDOF 5
ENDMDL
MODEL      221
REMARK 921   NORMALIZED FREE ENERGY PREDICTED BY IDOCK:   -2.95 KCAL/MOL
REMARK 922        TOTAL FREE ENERGY PREDICTED BY IDOCK:   -4.76 KCAL/MOL
REMARK 923 INTER-LIGAND FREE ENERGY PREDICTED BY IDOCK:   -4.31 KCAL/MOL
REMARK 924 INTRA-LIGAND FREE ENERGY PREDICTED BY IDOCK:   -0.45 KCAL/MOL
REMARK 927      BINDING AFFINITY PREDICTED BY RF-SCORE:    0.00 PKD
ROOT
HETATM    1  C   UNL     1     -10.328  11.985  65.150  1.00  0.00    -0.313 C  
HETATM    2  C   UNL     1     -10.334  12.099  66.668  1.00  0.00    -0.233 C  
ENDROOT
BRANCH   2   3
HETATM    3  C   UNL     1     -11.754  12.065  67.230  1.00  0.00    -0.339 C  
BRANCH   3   4
HETATM    4  C   UNL     1     -11.907  11.067  68.391  1.00  0.00    -0.184 C  
BRANCH   4   5
HETATM    5  N   UNL     1     -11.190  11.451  69.630  1.00  0.00    -0.252 NA 
HETATM    6  C   UNL     1     -11.900  12.503  70.382  1.00  0.00    -0.160 C  
HETATM    7  C   UNL     1     -13.239  12.045  70.965  1.00  0.00     0.164 C  
HETATM    8  C   UNL     1     -13.078  10.792  71.823  1.00  0.00    -0.573 C  
HETATM    9  C   UNL     1     -12.258   9.710  71.121  1.00  0.00    -0.437 C  
HETATM   10  C   UNL     1     -10.956  10.295  70.555  1.00  0.00    -0.270 C  
BRANCH  10  11
HETATM   11  C   UNL     1     -10.025   9.227  69.931  1.00  0.00    -0.205 C  
HETATM   12  N   UNL     1      -9.870   8.117  70.751  1.00  0.00    -0.179 N  
HETATM   13  O   UNL     1      -9.572   9.340  68.794  1.00  0.00    -0.151 OA 
HETATM   14  H   UNL     1     -10.426   8.105  71.606  1.00  0.00     0.000 HD 
BRANCH  12  15
HETATM   15  C   UNL     1      -9.028   7.003  70.533  1.00  0.00    -0.155 A  
HETATM   16  C   UNL     1      -7.690   6.955  70.985  1.00  0.00    -0.096 A  
HETATM   17  C   UNL     1      -6.983   8.056  71.727  1.00  0.00    -0.069 C  
HETATM   18  C   UNL     1      -6.936   5.781  70.786  1.00  0.00    -0.062 A  
HETATM   19  C   UNL     1      -7.497   4.655  70.190  1.00  0.00    -0.054 A  
HETATM   20  C   UNL     1      -8.814   4.695  69.755  1.00  0.00    -0.128 A  
HETATM   21  C   UNL     1      -9.591   5.855  69.920  1.00  0.00    -0.194 A  
HETATM   22  C   UNL     1     -10.989   5.844  69.351  1.00  0.00    -0.421 C  
ENDBRANCH  12  15
ENDBRANCH  10  11
ENDBRANCH   4   5
ENDBRANCH   3   4
ENDBRANCH   2   3
TORSDOF 5
ENDMDL
MODEL      222
REMARK 921   NORMALIZED FREE ENERGY PREDICTED BY IDOCK:   -2.95 KCAL/MOL
REMARK 922        TOTAL FREE ENERGY PREDICTED BY IDOCK:   -4.76 KCAL/MOL
REMARK 923 INTER-LIGAND FREE ENERGY PREDICTED BY IDOCK:   -3.73 KCAL/MOL
REMARK 924 INTRA-LIGAND FREE ENERGY PREDICTED BY IDOCK:   -1.03 KCAL/MOL
REMARK 927      BINDING AFFINITY PREDICTED BY RF-SCORE:    0.00 PKD
ROOT
HETATM    1  C   UNL     1      -5.268  12.415  69.329  1.00  0.00    -0.068 C  
HETATM    2  C   UNL     1      -6.239  11.347  69.811  1.00  0.00    -0.135 C  
ENDROOT
BRANCH   2   3
HETATM    3  C   UNL     1      -6.163  10.087  68.951  1.00  0.00    -0.044 C  
BRANCH   3   4
HETATM    4  C   UNL     1      -7.372   9.938  68.011  1.00  0.00    -0.084 C  
BRANCH   4   5
HETATM    5  N   UNL     1      -8.443  10.940  68.224  1.00  0.00    -0.128 NA 
HETATM    6  C   UNL     1      -8.597  11.846  67.070  1.00  0.00    -0.176 C  
HETATM    7  C   UNL     1      -9.112  11.151  65.806  1.00  0.00    -0.222 C  
HETATM    8  C   UNL     1     -10.414  10.398  66.072  1.00  0.00    -0.211 C  
HETATM    9  C   UNL     1     -10.333   9.522  67.322  1.00  0.00    -0.319 C  
HETATM   10  C   UNL     1      -9.778  10.320  68.511  1.00  0.00    -0.161 C  
BRANCH  10  11
HETATM   11  C   UNL     1      -9.779   9.523  69.838  1.00  0.00    -0.224 C  
HETATM   12  N   UNL     1     -10.202   8.212  69.666  1.00  0.00    -0.201 N  
HETATM   13  O   UNL     1      -9.352  10.001  70.887  1.00  0.00     0.148 OA 
HETATM   14  H   UNL     1     -10.387   7.918  68.707  1.00  0.00     0.000 HD 
BRANCH  12  15
HETATM   15  C   UNL     1     -10.404   7.239  70.671  1.00  0.00    -0.204 A  
HETATM   16  C   UNL     1     -11.565   7.201  71.476  1.00  0.00    -0.310 A  
HETATM   17  C   UNL     1     -12.712   8.170  71.394  1.00  0.00    -0.283 C  
HETATM   18  C   UNL     1     -11.721   6.160  72.413  1.00  0.00    -0.319 A  
HETATM   19  C   UNL     1     -10.775   5.146  72.530  1.00  0.00    -0.286 A  
HETATM   20  C   UNL     1      -9.639   5.175  71.733  1.00  0.00    -0.199 A  
HETATM   21  C   UNL     1      -9.441   6.207  70.802  1.00  0.00    -0.184 A  
HETATM   22  C   UNL     1      -8.144   6.209  70.028  1.00  0.00    -0.119 C  
ENDBRANCH  12  15
ENDBRANCH  10  11
ENDBRANCH   4   5
ENDBRANCH   3   4
ENDBRANCH   2   3
TORSDOF 5
ENDMDL
MODEL      223
REMARK 921   NORMALIZED FREE ENERGY PREDICTED BY IDOCK:   -2.95 KCAL/MOL
REMARK 922        TOTAL FREE ENERGY PREDICTED BY IDOCK:   -4.76 KCAL/MOL
REMARK 923 INTER-LIGAND FREE ENERGY PREDICTED BY IDOCK:   -4.10 KCAL/MOL
REMARK 924 INTRA-LIGAND FREE ENERGY PREDICTED BY IDOCK:   -0.66 KCAL/MOL
REMARK 927      BINDING AFFINITY PREDICTED BY RF-SCORE:    0.00 PKD
ROOT
HETATM    1  C   UNL     1      -8.590  11.199  68.693  1.00  0.00    -0.151 C  
HETATM    2  C   UNL     1      -8.590   9.754  69.174  1.00  0.00    -0.153 C  
ENDROOT
BRANCH   2   3
HETATM    3  C   UNL     1      -9.813   8.992  68.666  1.00  0.00    -0.177 C  
BRANCH   3   4
HETATM    4  C   UNL     1     -10.768   8.582  69.801  1.00  0.00    -0.213 C  
BRANCH   4   5
HETATM    5  N   UNL     1     -10.718   9.460  70.993  1.00  0.00    -0.311 NA 
HETATM    6  C   UNL     1     -11.532  10.680  70.822  1.00  0.00    -0.214 C  
HETATM    7  C   UNL     1     -13.036  10.409  70.736  1.00  0.00    -0.362 C  
HETATM    8  C   UNL     1     -13.530   9.602  71.936  1.00  0.00    -0.496 C  
HETATM    9  C   UNL     1     -12.653   8.381  72.214  1.00  0.00    -0.401 C  
HETATM   10  C   UNL     1     -11.169   8.774  72.248  1.00  0.00    -0.273 C  
BRANCH  10  11
HETATM   11  C   UNL     1     -10.234   7.603  72.639  1.00  0.00    -0.265 C  
HETATM   12  N   UNL     1      -8.957   7.748  72.115  1.00  0.00    -0.129 N  
HETATM   13  O   UNL     1     -10.589   6.714  73.410  1.00  0.00    -0.268 OA 
HETATM   14  H   UNL     1      -8.770   8.616  71.611  1.00  0.00     0.000 HD 
BRANCH  12  15
HETATM   15  C   UNL     1      -7.886   6.830  72.202  1.00  0.00    -0.095 A  
HETATM   16  C   UNL     1      -7.770   5.709  71.350  1.00  0.00    -0.109 A  
HETATM   17  C   UNL     1      -8.747   5.331  70.271  1.00  0.00    -0.134 C  
HETATM   18  C   UNL     1      -6.638   4.876  71.456  1.00  0.00    -0.035 A  
HETATM   19  C   UNL     1      -5.613   5.161  72.355  1.00  0.00    -0.017 A  
HETATM   20  C   UNL     1      -5.720   6.268  73.184  1.00  0.00    -0.038 A  
HETATM   21  C   UNL     1      -6.842   7.110  73.119  1.00  0.00    -0.069 A  
HETATM   22  C   UNL     1      -6.918   8.249  74.109  1.00  0.00    -0.187 C  
ENDBRANCH  12  15
ENDBRANCH  10  11
ENDBRANCH   4   5
ENDBRANCH   3   4
ENDBRANCH   2   3
TORSDOF 5
ENDMDL
MODEL      224
REMARK 921   NORMALIZED FREE ENERGY PREDICTED BY IDOCK:   -2.94 KCAL/MOL
REMARK 922        TOTAL FREE ENERGY PREDICTED BY IDOCK:   -4.75 KCAL/MOL
REMARK 923 INTER-LIGAND FREE ENERGY PREDICTED BY IDOCK:   -3.76 KCAL/MOL
REMARK 924 INTRA-LIGAND FREE ENERGY PREDICTED BY IDOCK:   -0.99 KCAL/MOL
REMARK 927      BINDING AFFINITY PREDICTED BY RF-SCORE:    0.00 PKD
ROOT
HETATM    1  C   UNL     1      -6.037  13.062  69.826  1.00  0.00    -0.123 C  
HETATM    2  C   UNL     1      -6.441  11.614  69.583  1.00  0.00    -0.124 C  
ENDROOT
BRANCH   2   3
HETATM    3  C   UNL     1      -6.575  11.309  68.093  1.00  0.00    -0.057 C  
BRANCH   3   4
HETATM    4  C   UNL     1      -8.042  11.183  67.644  1.00  0.00    -0.117 C  
BRANCH   4   5
HETATM    5  N   UNL     1      -9.036  11.536  68.686  1.00  0.00    -0.150 NA 
HETATM    6  C   UNL     1      -9.733  12.801  68.385  1.00  0.00    -0.186 C  
HETATM    7  C   UNL     1     -10.635  12.729  67.151  1.00  0.00    -0.249 C  
HETATM    8  C   UNL     1     -11.636  11.580  67.255  1.00  0.00    -0.280 C  
HETATM    9  C   UNL     1     -10.970  10.266  67.665  1.00  0.00    -0.356 C  
HETATM   10  C   UNL     1     -10.071  10.472  68.893  1.00  0.00    -0.202 C  
BRANCH  10  11
HETATM   11  C   UNL     1      -9.457   9.156  69.430  1.00  0.00    -0.161 C  
HETATM   12  N   UNL     1      -9.559   8.115  68.518  1.00  0.00    -0.147 N  
HETATM   13  O   UNL     1      -8.866   9.103  70.507  1.00  0.00    -0.184 OA 
HETATM   14  H   UNL     1      -9.949   8.349  67.604  1.00  0.00     0.000 HD 
BRANCH  12  15
HETATM   15  C   UNL     1      -9.184   6.766  68.712  1.00  0.00    -0.130 A  
HETATM   16  C   UNL     1      -9.917   5.879  69.532  1.00  0.00    -0.238 A  
HETATM   17  C   UNL     1     -11.157   6.233  70.305  1.00  0.00    -0.430 C  
HETATM   18  C   UNL     1      -9.514   4.531  69.622  1.00  0.00    -0.244 A  
HETATM   19  C   UNL     1      -8.434   4.049  68.888  1.00  0.00    -0.098 A  
HETATM   20  C   UNL     1      -7.719   4.916  68.074  1.00  0.00    -0.083 A  
HETATM   21  C   UNL     1      -8.080   6.270  67.973  1.00  0.00    -0.115 A  
HETATM   22  C   UNL     1      -7.205   7.164  67.127  1.00  0.00    -0.085 C  
ENDBRANCH  12  15
ENDBRANCH  10  11
ENDBRANCH   4   5
ENDBRANCH   3   4
ENDBRANCH   2   3
TORSDOF 5
ENDMDL
MODEL      225
REMARK 921   NORMALIZED FREE ENERGY PREDICTED BY IDOCK:   -2.92 KCAL/MOL
REMARK 922        TOTAL FREE ENERGY PREDICTED BY IDOCK:   -4.72 KCAL/MOL
REMARK 923 INTER-LIGAND FREE ENERGY PREDICTED BY IDOCK:   -3.90 KCAL/MOL
REMARK 924 INTRA-LIGAND FREE ENERGY PREDICTED BY IDOCK:   -0.82 KCAL/MOL
REMARK 927      BINDING AFFINITY PREDICTED BY RF-SCORE:    0.00 PKD
ROOT
HETATM    1  C   UNL     1      -7.162   9.493  64.142  1.00  0.00    -0.115 C  
HETATM    2  C   UNL     1      -6.865   8.253  63.310  1.00  0.00    -0.085 C  
ENDROOT
BRANCH   2   3
HETATM    3  C   UNL     1      -7.250   6.973  64.051  1.00  0.00    -0.069 C  
BRANCH   3   4
HETATM    4  C   UNL     1      -7.944   7.253  65.395  1.00  0.00    -0.125 C  
BRANCH   4   5
HETATM    5  N   UNL     1      -8.264   6.041  66.186  1.00  0.00    -0.117 NA 
HETATM    6  C   UNL     1      -7.204   5.019  66.093  1.00  0.00    -0.077 C  
HETATM    7  C   UNL     1      -5.885   5.440  66.748  1.00  0.00    -0.018 C  
HETATM    8  C   UNL     1      -6.091   5.865  68.200  1.00  0.00    -0.017 C  
HETATM    9  C   UNL     1      -7.251   6.849  68.357  1.00  0.00    -0.088 C  
HETATM   10  C   UNL     1      -8.504   6.332  67.637  1.00  0.00    -0.116 C  
BRANCH  10  11
HETATM   11  C   UNL     1      -9.749   7.228  67.854  1.00  0.00    -0.140 C  
HETATM   12  N   UNL     1      -9.412   8.508  68.270  1.00  0.00    -0.134 N  
HETATM   13  O   UNL     1     -10.885   6.844  67.582  1.00  0.00    -0.250 OA 
HETATM   14  H   UNL     1      -8.415   8.723  68.314  1.00  0.00     0.000 HD 
BRANCH  12  15
HETATM   15  C   UNL     1     -10.294   9.548  68.642  1.00  0.00    -0.205 A  
HETATM   16  C   UNL     1     -10.846   9.656  69.938  1.00  0.00    -0.287 A  
HETATM   17  C   UNL     1     -10.594   8.702  71.073  1.00  0.00    -0.278 C  
HETATM   18  C   UNL     1     -11.666  10.760  70.249  1.00  0.00    -0.442 A  
HETATM   19  C   UNL     1     -11.910  11.764  69.316  1.00  0.00    -0.389 A  
HETATM   20  C   UNL     1     -11.361  11.665  68.045  1.00  0.00    -0.366 A  
HETATM   21  C   UNL     1     -10.553  10.571  67.694  1.00  0.00    -0.295 A  
HETATM   22  C   UNL     1     -10.057  10.498  66.270  1.00  0.00    -0.290 C  
ENDBRANCH  12  15
ENDBRANCH  10  11
ENDBRANCH   4   5
ENDBRANCH   3   4
ENDBRANCH   2   3
TORSDOF 5
ENDMDL
MODEL      226
REMARK 921   NORMALIZED FREE ENERGY PREDICTED BY IDOCK:   -2.89 KCAL/MOL
REMARK 922        TOTAL FREE ENERGY PREDICTED BY IDOCK:   -4.69 KCAL/MOL
REMARK 923 INTER-LIGAND FREE ENERGY PREDICTED BY IDOCK:   -4.41 KCAL/MOL
REMARK 924 INTRA-LIGAND FREE ENERGY PREDICTED BY IDOCK:   -0.27 KCAL/MOL
REMARK 927      BINDING AFFINITY PREDICTED BY RF-SCORE:    0.00 PKD
ROOT
HETATM    1  C   UNL     1      -9.225   3.491  68.856  1.00  0.00    -0.227 C  
HETATM    2  C   UNL     1      -9.508   4.145  70.201  1.00  0.00    -0.254 C  
ENDROOT
BRANCH   2   3
HETATM    3  C   UNL     1     -10.449   5.340  70.059  1.00  0.00    -0.351 C  
BRANCH   3   4
HETATM    4  C   UNL     1      -9.965   6.354  69.008  1.00  0.00    -0.149 C  
BRANCH   4   5
HETATM    5  N   UNL     1      -9.756   7.726  69.529  1.00  0.00    -0.164 NA 
HETATM    6  C   UNL     1      -9.153   7.725  70.875  1.00  0.00    -0.148 C  
HETATM    7  C   UNL     1      -7.718   7.192  70.907  1.00  0.00    -0.094 C  
HETATM    8  C   UNL     1      -6.822   7.939  69.921  1.00  0.00    -0.045 C  
HETATM    9  C   UNL     1      -7.454   8.053  68.534  1.00  0.00    -0.102 C  
HETATM   10  C   UNL     1      -8.897   8.569  68.635  1.00  0.00    -0.136 C  
BRANCH  10  11
HETATM   11  C   UNL     1      -9.557   8.817  67.256  1.00  0.00    -0.165 C  
HETATM   12  N   UNL     1      -8.807   9.669  66.457  1.00  0.00    -0.140 N  
HETATM   13  O   UNL     1     -10.579   8.230  66.906  1.00  0.00    -0.321 OA 
HETATM   14  H   UNL     1      -7.905   9.964  66.832  1.00  0.00     0.000 HD 
BRANCH  12  15
HETATM   15  C   UNL     1      -9.152  10.174  65.183  1.00  0.00    -0.201 A  
HETATM   16  C   UNL     1     -10.081  11.224  65.003  1.00  0.00    -0.331 A  
HETATM   17  C   UNL     1     -10.826  11.925  66.105  1.00  0.00    -0.334 C  
HETATM   18  C   UNL     1     -10.323  11.715  63.704  1.00  0.00    -0.466 A  
HETATM   19  C   UNL     1      -9.635  11.214  62.602  1.00  0.00    -0.271 A  
HETATM   20  C   UNL     1      -8.715  10.190  62.778  1.00  0.00    -0.213 A  
HETATM   21  C   UNL     1      -8.461   9.663  64.055  1.00  0.00    -0.190 A  
HETATM   22  C   UNL     1      -7.503   8.500  64.152  1.00  0.00    -0.112 C  
ENDBRANCH  12  15
ENDBRANCH  10  11
ENDBRANCH   4   5
ENDBRANCH   3   4
ENDBRANCH   2   3
TORSDOF 5
ENDMDL
MODEL      227
REMARK 921   NORMALIZED FREE ENERGY PREDICTED BY IDOCK:   -2.88 KCAL/MOL
REMARK 922        TOTAL FREE ENERGY PREDICTED BY IDOCK:   -4.66 KCAL/MOL
REMARK 923 INTER-LIGAND FREE ENERGY PREDICTED BY IDOCK:   -3.73 KCAL/MOL
REMARK 924 INTRA-LIGAND FREE ENERGY PREDICTED BY IDOCK:   -0.93 KCAL/MOL
REMARK 927      BINDING AFFINITY PREDICTED BY RF-SCORE:    0.00 PKD
ROOT
HETATM    1  C   UNL     1      -9.967  10.659  68.449  1.00  0.00    -0.176 C  
HETATM    2  C   UNL     1     -10.855   9.850  67.515  1.00  0.00    -0.307 C  
ENDROOT
BRANCH   2   3
HETATM    3  C   UNL     1     -10.048   9.200  66.392  1.00  0.00    -0.345 C  
BRANCH   3   4
HETATM    4  C   UNL     1      -8.986   8.219  66.919  1.00  0.00    -0.146 C  
BRANCH   4   5
HETATM    5  N   UNL     1      -8.905   6.942  66.171  1.00  0.00    -0.151 NA 
HETATM    6  C   UNL     1      -7.953   7.014  65.046  1.00  0.00    -0.129 C  
HETATM    7  C   UNL     1      -6.495   7.175  65.483  1.00  0.00    -0.047 C  
HETATM    8  C   UNL     1      -6.080   6.080  66.464  1.00  0.00    -0.032 C  
HETATM    9  C   UNL     1      -7.093   5.900  67.595  1.00  0.00    -0.074 C  
HETATM   10  C   UNL     1      -8.518   5.779  67.034  1.00  0.00    -0.107 C  
BRANCH  10  11
HETATM   11  C   UNL     1      -9.580   5.479  68.121  1.00  0.00    -0.119 C  
HETATM   12  N   UNL     1      -9.032   5.424  69.395  1.00  0.00    -0.104 N  
HETATM   13  O   UNL     1     -10.779   5.403  67.858  1.00  0.00    -0.147 OA 
HETATM   14  H   UNL     1      -8.040   5.652  69.471  1.00  0.00     0.000 HD 
BRANCH  12  15
HETATM   15  C   UNL     1      -9.693   5.089  70.598  1.00  0.00    -0.198 A  
HETATM   16  C   UNL     1      -9.741   3.770  71.102  1.00  0.00    -0.245 A  
HETATM   17  C   UNL     1      -9.127   2.565  70.444  1.00  0.00    -0.179 C  
HETATM   18  C   UNL     1     -10.364   3.528  72.343  1.00  0.00    -0.160 A  
HETATM   19  C   UNL     1     -10.897   4.568  73.099  1.00  0.00    -0.331 A  
HETATM   20  C   UNL     1     -10.841   5.866  72.611  1.00  0.00    -0.290 A  
HETATM   21  C   UNL     1     -10.244   6.143  71.370  1.00  0.00    -0.248 A  
HETATM   22  C   UNL     1     -10.293   7.569  70.875  1.00  0.00    -0.203 C  
ENDBRANCH  12  15
ENDBRANCH  10  11
ENDBRANCH   4   5
ENDBRANCH   3   4
ENDBRANCH   2   3
TORSDOF 5
ENDMDL
MODEL      228
REMARK 921   NORMALIZED FREE ENERGY PREDICTED BY IDOCK:   -2.87 KCAL/MOL
REMARK 922        TOTAL FREE ENERGY PREDICTED BY IDOCK:   -4.66 KCAL/MOL
REMARK 923 INTER-LIGAND FREE ENERGY PREDICTED BY IDOCK:   -3.70 KCAL/MOL
REMARK 924 INTRA-LIGAND FREE ENERGY PREDICTED BY IDOCK:   -0.96 KCAL/MOL
REMARK 927      BINDING AFFINITY PREDICTED BY RF-SCORE:    0.00 PKD
ROOT
HETATM    1  C   UNL     1      -9.738   5.241  65.978  1.00  0.00    -0.159 C  
HETATM    2  C   UNL     1     -10.665   5.758  67.070  1.00  0.00    -0.369 C  
ENDROOT
BRANCH   2   3
HETATM    3  C   UNL     1     -10.180   5.349  68.460  1.00  0.00    -0.237 C  
BRANCH   3   4
HETATM    4  C   UNL     1      -9.714   6.551  69.301  1.00  0.00    -0.144 C  
BRANCH   4   5
HETATM    5  N   UNL     1     -10.755   7.581  69.530  1.00  0.00    -0.235 NA 
HETATM    6  C   UNL     1     -11.633   7.242  70.666  1.00  0.00    -0.290 C  
HETATM    7  C   UNL     1     -10.920   7.257  72.021  1.00  0.00    -0.271 C  
HETATM    8  C   UNL     1     -10.217   8.590  72.270  1.00  0.00    -0.395 C  
HETATM    9  C   UNL     1      -9.374   9.032  71.074  1.00  0.00    -0.339 C  
HETATM   10  C   UNL     1     -10.186   8.947  69.773  1.00  0.00    -0.202 C  
BRANCH  10  11
HETATM   11  C   UNL     1      -9.425   9.490  68.539  1.00  0.00    -0.141 C  
HETATM   12  N   UNL     1      -8.048   9.442  68.704  1.00  0.00    -0.103 N  
HETATM   13  O   UNL     1     -10.007   9.826  67.509  1.00  0.00    -0.166 OA 
HETATM   14  H   UNL     1      -7.709   9.002  69.560  1.00  0.00     0.000 HD 
BRANCH  12  15
HETATM   15  C   UNL     1      -7.062   9.933  67.819  1.00  0.00    -0.087 A  
HETATM   16  C   UNL     1      -6.507   9.150  66.781  1.00  0.00    -0.067 A  
HETATM   17  C   UNL     1      -6.863   7.719  66.486  1.00  0.00    -0.066 C  
HETATM   18  C   UNL     1      -5.575   9.734  65.900  1.00  0.00    -0.049 A  
HETATM   19  C   UNL     1      -5.222  11.076  66.007  1.00  0.00    -0.139 A  
HETATM   20  C   UNL     1      -5.774  11.850  67.018  1.00  0.00    -0.139 A  
HETATM   21  C   UNL     1      -6.692  11.297  67.926  1.00  0.00    -0.063 A  
HETATM   22  C   UNL     1      -7.187  12.184  69.044  1.00  0.00    -0.037 C  
ENDBRANCH  12  15
ENDBRANCH  10  11
ENDBRANCH   4   5
ENDBRANCH   3   4
ENDBRANCH   2   3
TORSDOF 5
ENDMDL
MODEL      229
REMARK 921   NORMALIZED FREE ENERGY PREDICTED BY IDOCK:   -2.80 KCAL/MOL
REMARK 922        TOTAL FREE ENERGY PREDICTED BY IDOCK:   -4.57 KCAL/MOL
REMARK 923 INTER-LIGAND FREE ENERGY PREDICTED BY IDOCK:   -4.72 KCAL/MOL
REMARK 924 INTRA-LIGAND FREE ENERGY PREDICTED BY IDOCK:    0.15 KCAL/MOL
REMARK 927      BINDING AFFINITY PREDICTED BY RF-SCORE:    0.00 PKD
ROOT
HETATM    1  C   UNL     1     -11.697  11.725  63.403  1.00  0.00    -0.423 C  
HETATM    2  C   UNL     1     -11.680  13.170  63.885  1.00  0.00    -0.515 C  
ENDROOT
BRANCH   2   3
HETATM    3  C   UNL     1     -11.711  13.255  65.410  1.00  0.00    -0.370 C  
BRANCH   3   4
HETATM    4  C   UNL     1     -10.338  13.604  66.011  1.00  0.00    -0.304 C  
BRANCH   4   5
HETATM    5  N   UNL     1      -9.974  12.813  67.211  1.00  0.00    -0.217 NA 
HETATM    6  C   UNL     1     -10.172  11.365  67.005  1.00  0.00    -0.213 C  
HETATM    7  C   UNL     1      -9.223  10.756  65.970  1.00  0.00    -0.210 C  
HETATM    8  C   UNL     1      -7.763  11.053  66.304  1.00  0.00    -0.132 C  
HETATM    9  C   UNL     1      -7.530  12.529  66.625  1.00  0.00     0.410 C  
HETATM   10  C   UNL     1      -8.557  13.031  67.650  1.00  0.00    -0.190 C  
BRANCH  10  11
HETATM   11  C   UNL     1      -8.306  14.489  68.106  1.00  0.00    -0.147 C  
HETATM   12  N   UNL     1      -9.336  15.343  67.738  1.00  0.00    -0.195 N  
HETATM   13  O   UNL     1      -7.339  14.799  68.799  1.00  0.00    -0.114 OA 
HETATM   14  H   UNL     1     -10.144  14.910  67.289  1.00  0.00     0.000 HD 
BRANCH  12  15
HETATM   15  C   UNL     1      -9.393  16.744  67.915  1.00  0.00    -0.229 A  
HETATM   16  C   UNL     1     -10.197  17.358  68.901  1.00  0.00    -0.352 A  
HETATM   17  C   UNL     1     -11.093  16.634  69.867  1.00  0.00    -0.125 C  
HETATM   18  C   UNL     1     -10.148  18.759  69.057  1.00  0.00    -0.295 A  
HETATM   19  C   UNL     1      -9.293  19.542  68.286  1.00  0.00    -0.420 A  
HETATM   20  C   UNL     1      -8.495  18.939  67.324  1.00  0.00    -0.293 A  
HETATM   21  C   UNL     1      -8.531  17.549  67.128  1.00  0.00    -0.232 A  
HETATM   22  C   UNL     1      -7.690  16.980  66.010  1.00  0.00    -0.153 C  
ENDBRANCH  12  15
ENDBRANCH  10  11
ENDBRANCH   4   5
ENDBRANCH   3   4
ENDBRANCH   2   3
TORSDOF 5
ENDMDL
MODEL      230
REMARK 921   NORMALIZED FREE ENERGY PREDICTED BY IDOCK:   -2.77 KCAL/MOL
REMARK 922        TOTAL FREE ENERGY PREDICTED BY IDOCK:   -4.53 KCAL/MOL
REMARK 923 INTER-LIGAND FREE ENERGY PREDICTED BY IDOCK:   -3.74 KCAL/MOL
REMARK 924 INTRA-LIGAND FREE ENERGY PREDICTED BY IDOCK:   -0.79 KCAL/MOL
REMARK 927      BINDING AFFINITY PREDICTED BY RF-SCORE:    0.00 PKD
ROOT
HETATM    1  C   UNL     1     -10.461   4.719  66.011  1.00  0.00    -0.332 C  
HETATM    2  C   UNL     1     -10.836   5.869  66.936  1.00  0.00    -0.376 C  
ENDROOT
BRANCH   2   3
HETATM    3  C   UNL     1     -10.358   5.619  68.366  1.00  0.00    -0.258 C  
BRANCH   3   4
HETATM    4  C   UNL     1     -11.022   6.563  69.385  1.00  0.00    -0.337 C  
BRANCH   4   5
HETATM    5  N   UNL     1     -10.071   7.379  70.176  1.00  0.00    -0.195 NA 
HETATM    6  C   UNL     1     -10.319   8.826  70.025  1.00  0.00    -0.203 C  
HETATM    7  C   UNL     1     -11.650   9.288  70.623  1.00  0.00    -0.305 C  
HETATM    8  C   UNL     1     -11.780   8.875  72.087  1.00  0.00    -0.411 C  
HETATM    9  C   UNL     1     -11.432   7.402  72.307  1.00  0.00    -0.329 C  
HETATM   10  C   UNL     1     -10.094   7.054  71.639  1.00  0.00    -0.182 C  
BRANCH  10  11
HETATM   11  C   UNL     1      -9.627   5.605  71.922  1.00  0.00    -0.152 C  
HETATM   12  N   UNL     1      -8.246   5.476  71.871  1.00  0.00    -0.118 N  
HETATM   13  O   UNL     1     -10.413   4.717  72.249  1.00  0.00    -0.203 OA 
HETATM   14  H   UNL     1      -7.716   6.336  71.729  1.00  0.00     0.000 HD 
BRANCH  12  15
HETATM   15  C   UNL     1      -7.492   4.287  71.993  1.00  0.00    -0.070 A  
HETATM   16  C   UNL     1      -7.269   3.647  73.234  1.00  0.00    -0.055 A  
HETATM   17  C   UNL     1      -7.774   4.131  74.565  1.00  0.00    -0.079 C  
HETATM   18  C   UNL     1      -6.561   2.428  73.263  1.00  0.00    -0.018 A  
HETATM   19  C   UNL     1      -6.113   1.824  72.092  1.00  0.00    -0.009 A  
HETATM   20  C   UNL     1      -6.340   2.445  70.872  1.00  0.00    -0.023 A  
HETATM   21  C   UNL     1      -7.026   3.669  70.805  1.00  0.00    -0.033 A  
HETATM   22  C   UNL     1      -7.165   4.318  69.448  1.00  0.00    -0.051 C  
ENDBRANCH  12  15
ENDBRANCH  10  11
ENDBRANCH   4   5
ENDBRANCH   3   4
ENDBRANCH   2   3
TORSDOF 5
ENDMDL
MODEL      231
REMARK 921   NORMALIZED FREE ENERGY PREDICTED BY IDOCK:   -2.74 KCAL/MOL
REMARK 922        TOTAL FREE ENERGY PREDICTED BY IDOCK:   -4.49 KCAL/MOL
REMARK 923 INTER-LIGAND FREE ENERGY PREDICTED BY IDOCK:   -3.76 KCAL/MOL
REMARK 924 INTRA-LIGAND FREE ENERGY PREDICTED BY IDOCK:   -0.72 KCAL/MOL
REMARK 927      BINDING AFFINITY PREDICTED BY RF-SCORE:    0.00 PKD
ROOT
HETATM    1  C   UNL     1      -5.679   6.510  70.673  1.00  0.00    -0.023 C  
HETATM    2  C   UNL     1      -6.992   5.886  70.219  1.00  0.00    -0.062 C  
ENDROOT
BRANCH   2   3
HETATM    3  C   UNL     1      -7.626   6.677  69.077  1.00  0.00    -0.101 C  
BRANCH   3   4
HETATM    4  C   UNL     1      -8.660   7.704  69.570  1.00  0.00    -0.132 C  
BRANCH   4   5
HETATM    5  N   UNL     1      -9.892   7.779  68.749  1.00  0.00    -0.165 NA 
HETATM    6  C   UNL     1     -10.458   6.445  68.472  1.00  0.00    -0.224 C  
HETATM    7  C   UNL     1     -10.994   5.733  69.717  1.00  0.00    -0.397 C  
HETATM    8  C   UNL     1     -12.007   6.598  70.464  1.00  0.00    -0.377 C  
HETATM    9  C   UNL     1     -11.502   8.024  70.684  1.00  0.00    -0.237 C  
HETATM   10  C   UNL     1     -10.965   8.619  69.374  1.00  0.00    -0.019 C  
BRANCH  10  11
HETATM   11  C   UNL     1     -10.543  10.103  69.503  1.00  0.00    -0.245 C  
HETATM   12  N   UNL     1      -9.845  10.552  68.391  1.00  0.00    -0.156 N  
HETATM   13  O   UNL     1     -10.891  10.801  70.454  1.00  0.00    -0.143 OA 
HETATM   14  H   UNL     1      -9.757   9.895  67.615  1.00  0.00     0.000 HD 
BRANCH  12  15
HETATM   15  C   UNL     1      -9.241  11.817  68.211  1.00  0.00    -0.188 A  
HETATM   16  C   UNL     1      -9.960  12.953  67.775  1.00  0.00    -0.230 A  
HETATM   17  C   UNL     1     -11.424  12.976  67.434  1.00  0.00    -0.380 C  
HETATM   18  C   UNL     1      -9.300  14.194  67.683  1.00  0.00    -0.209 A  
HETATM   19  C   UNL     1      -7.965  14.332  68.054  1.00  0.00    -0.142 A  
HETATM   20  C   UNL     1      -7.259  13.220  68.493  1.00  0.00    -0.110 A  
HETATM   21  C   UNL     1      -7.880  11.963  68.579  1.00  0.00    -0.136 A  
HETATM   22  C   UNL     1      -7.023  10.789  68.992  1.00  0.00    -0.085 C  
ENDBRANCH  12  15
ENDBRANCH  10  11
ENDBRANCH   4   5
ENDBRANCH   3   4
ENDBRANCH   2   3
TORSDOF 5
ENDMDL
MODEL      232
REMARK 921   NORMALIZED FREE ENERGY PREDICTED BY IDOCK:   -2.72 KCAL/MOL
REMARK 922        TOTAL FREE ENERGY PREDICTED BY IDOCK:   -4.47 KCAL/MOL
REMARK 923 INTER-LIGAND FREE ENERGY PREDICTED BY IDOCK:   -3.95 KCAL/MOL
REMARK 924 INTRA-LIGAND FREE ENERGY PREDICTED BY IDOCK:   -0.51 KCAL/MOL
REMARK 927      BINDING AFFINITY PREDICTED BY RF-SCORE:    0.00 PKD
ROOT
HETATM    1  C   UNL     1      -9.376   9.764  69.976  1.00  0.00    -0.274 C  
HETATM    2  C   UNL     1      -8.194   9.294  70.813  1.00  0.00    -0.210 C  
ENDROOT
BRANCH   2   3
HETATM    3  C   UNL     1      -6.954   9.056  69.953  1.00  0.00    -0.052 C  
BRANCH   3   4
HETATM    4  C   UNL     1      -7.193   9.378  68.468  1.00  0.00    -0.072 C  
BRANCH   4   5
HETATM    5  N   UNL     1      -6.185  10.283  67.866  1.00  0.00    -0.059 NA 
HETATM    6  C   UNL     1      -5.135   9.544  67.139  1.00  0.00    -0.035 C  
HETATM    7  C   UNL     1      -5.644   8.820  65.890  1.00  0.00    -0.045 C  
HETATM    8  C   UNL     1      -6.373   9.776  64.947  1.00  0.00    -0.098 C  
HETATM    9  C   UNL     1      -7.403  10.638  65.678  1.00  0.00    -0.087 C  
HETATM   10  C   UNL     1      -6.784  11.285  66.925  1.00  0.00    -0.135 C  
BRANCH  10  11
HETATM   11  C   UNL     1      -7.742  12.264  67.647  1.00  0.00    -0.144 C  
HETATM   12  N   UNL     1      -8.566  12.946  66.762  1.00  0.00    -0.401 N  
HETATM   13  O   UNL     1      -7.807  12.329  68.873  1.00  0.00    -0.043 OA 
HETATM   14  H   UNL     1      -8.495  12.680  65.779  1.00  0.00     0.000 HD 
BRANCH  12  15
HETATM   15  C   UNL     1      -9.491  13.970  67.068  1.00  0.00    -0.250 A  
HETATM   16  C   UNL     1     -10.869  13.722  67.259  1.00  0.00    -0.292 A  
HETATM   17  C   UNL     1     -11.534  12.378  67.153  1.00  0.00    -0.423 C  
HETATM   18  C   UNL     1     -11.717  14.787  67.627  1.00  0.00    -0.364 A  
HETATM   19  C   UNL     1     -11.215  16.067  67.844  1.00  0.00    -0.276 A  
HETATM   20  C   UNL     1      -9.860  16.310  67.668  1.00  0.00    -0.238 A  
HETATM   21  C   UNL     1      -8.989  15.278  67.284  1.00  0.00    -0.209 A  
HETATM   22  C   UNL     1      -7.544  15.641  67.038  1.00  0.00    -0.245 C  
ENDBRANCH  12  15
ENDBRANCH  10  11
ENDBRANCH   4   5
ENDBRANCH   3   4
ENDBRANCH   2   3
TORSDOF 5
ENDMDL
MODEL      233
REMARK 921   NORMALIZED FREE ENERGY PREDICTED BY IDOCK:   -2.70 KCAL/MOL
REMARK 922        TOTAL FREE ENERGY PREDICTED BY IDOCK:   -4.44 KCAL/MOL
REMARK 923 INTER-LIGAND FREE ENERGY PREDICTED BY IDOCK:   -3.55 KCAL/MOL
REMARK 924 INTRA-LIGAND FREE ENERGY PREDICTED BY IDOCK:   -0.88 KCAL/MOL
REMARK 927      BINDING AFFINITY PREDICTED BY RF-SCORE:    0.00 PKD
ROOT
HETATM    1  C   UNL     1      -9.265   7.309  70.640  1.00  0.00    -0.157 C  
HETATM    2  C   UNL     1     -10.282   8.232  69.983  1.00  0.00    -0.202 C  
ENDROOT
BRANCH   2   3
HETATM    3  C   UNL     1     -10.013   9.698  70.321  1.00  0.00    -0.326 C  
BRANCH   3   4
HETATM    4  C   UNL     1      -9.591  10.521  69.092  1.00  0.00    -0.199 C  
BRANCH   4   5
HETATM    5  N   UNL     1     -10.569  10.507  67.978  1.00  0.00    -0.197 NA 
HETATM    6  C   UNL     1     -11.908  10.956  68.406  1.00  0.00    -0.122 C  
HETATM    7  C   UNL     1     -11.963  12.432  68.809  1.00  0.00    -0.276 C  
HETATM    8  C   UNL     1     -11.427  13.335  67.700  1.00  0.00    -0.360 C  
HETATM    9  C   UNL     1     -10.085  12.849  67.154  1.00  0.00    -0.243 C  
HETATM   10  C   UNL     1     -10.146  11.352  66.814  1.00  0.00    -0.216 C  
BRANCH  10  11
HETATM   11  C   UNL     1      -8.853  10.822  66.148  1.00  0.00    -0.177 C  
HETATM   12  N   UNL     1      -9.036   9.581  65.553  1.00  0.00    -0.179 N  
HETATM   13  O   UNL     1      -7.826  11.496  66.086  1.00  0.00    -0.034 OA 
HETATM   14  H   UNL     1      -9.986   9.210  65.563  1.00  0.00     0.000 HD 
BRANCH  12  15
HETATM   15  C   UNL     1      -8.054   8.774  64.937  1.00  0.00    -0.147 A  
HETATM   16  C   UNL     1      -7.157   7.965  65.671  1.00  0.00    -0.056 A  
HETATM   17  C   UNL     1      -7.109   7.861  67.170  1.00  0.00    -0.079 C  
HETATM   18  C   UNL     1      -6.249   7.138  64.979  1.00  0.00    -0.037 A  
HETATM   19  C   UNL     1      -6.247   7.072  63.589  1.00  0.00    -0.044 A  
HETATM   20  C   UNL     1      -7.134   7.857  62.866  1.00  0.00    -0.087 A  
HETATM   21  C   UNL     1      -8.041   8.707  63.520  1.00  0.00    -0.167 A  
HETATM   22  C   UNL     1      -8.919   9.585  62.661  1.00  0.00    -0.249 C  
ENDBRANCH  12  15
ENDBRANCH  10  11
ENDBRANCH   4   5
ENDBRANCH   3   4
ENDBRANCH   2   3
TORSDOF 5
ENDMDL
MODEL      234
REMARK 921   NORMALIZED FREE ENERGY PREDICTED BY IDOCK:   -2.69 KCAL/MOL
REMARK 922        TOTAL FREE ENERGY PREDICTED BY IDOCK:   -4.42 KCAL/MOL
REMARK 923 INTER-LIGAND FREE ENERGY PREDICTED BY IDOCK:   -3.49 KCAL/MOL
REMARK 924 INTRA-LIGAND FREE ENERGY PREDICTED BY IDOCK:   -0.93 KCAL/MOL
REMARK 927      BINDING AFFINITY PREDICTED BY RF-SCORE:    0.00 PKD
ROOT
HETATM    1  C   UNL     1      -5.796  11.551  70.252  1.00  0.00    -0.158 C  
HETATM    2  C   UNL     1      -6.961  10.716  69.740  1.00  0.00    -0.145 C  
ENDROOT
BRANCH   2   3
HETATM    3  C   UNL     1      -7.987  11.574  69.001  1.00  0.00     0.013 C  
BRANCH   3   4
HETATM    4  C   UNL     1      -8.386  10.978  67.639  1.00  0.00    -0.117 C  
BRANCH   4   5
HETATM    5  N   UNL     1      -9.847  10.828  67.440  1.00  0.00    -0.174 NA 
HETATM    6  C   UNL     1     -10.439  11.996  66.759  1.00  0.00    -0.214 C  
HETATM    7  C   UNL     1      -9.974  12.165  65.310  1.00  0.00    -0.260 C  
HETATM    8  C   UNL     1     -10.209  10.896  64.494  1.00  0.00    -0.422 C  
HETATM    9  C   UNL     1      -9.702   9.644  65.210  1.00  0.00    -0.330 C  
HETATM   10  C   UNL     1     -10.210   9.601  66.658  1.00  0.00    -0.232 C  
BRANCH  10  11
HETATM   11  C   UNL     1      -9.826   8.300  67.404  1.00  0.00    -0.188 C  
HETATM   12  N   UNL     1      -8.962   7.503  66.666  1.00  0.00    -0.146 N  
HETATM   13  O   UNL     1     -10.187   8.078  68.558  1.00  0.00    -0.198 OA 
HETATM   14  H   UNL     1      -8.635   7.890  65.780  1.00  0.00     0.000 HD 
BRANCH  12  15
HETATM   15  C   UNL     1      -8.483   6.217  67.003  1.00  0.00    -0.108 A  
HETATM   16  C   UNL     1      -9.240   5.042  66.800  1.00  0.00    -0.120 A  
HETATM   17  C   UNL     1     -10.629   4.990  66.226  1.00  0.00    -0.332 C  
HETATM   18  C   UNL     1      -8.666   3.790  67.103  1.00  0.00    -0.122 A  
HETATM   19  C   UNL     1      -7.354   3.688  67.559  1.00  0.00    -0.066 A  
HETATM   20  C   UNL     1      -6.605   4.841  67.749  1.00  0.00    -0.047 A  
HETATM   21  C   UNL     1      -7.151   6.106  67.476  1.00  0.00    -0.074 A  
HETATM   22  C   UNL     1      -6.298   7.314  67.782  1.00  0.00    -0.048 C  
ENDBRANCH  12  15
ENDBRANCH  10  11
ENDBRANCH   4   5
ENDBRANCH   3   4
ENDBRANCH   2   3
TORSDOF 5
ENDMDL
MODEL      235
REMARK 921   NORMALIZED FREE ENERGY PREDICTED BY IDOCK:   -2.68 KCAL/MOL
REMARK 922        TOTAL FREE ENERGY PREDICTED BY IDOCK:   -4.41 KCAL/MOL
REMARK 923 INTER-LIGAND FREE ENERGY PREDICTED BY IDOCK:   -3.45 KCAL/MOL
REMARK 924 INTRA-LIGAND FREE ENERGY PREDICTED BY IDOCK:   -0.96 KCAL/MOL
REMARK 927      BINDING AFFINITY PREDICTED BY RF-SCORE:    0.00 PKD
ROOT
HETATM    1  C   UNL     1      -8.358  11.636  68.334  1.00  0.00    -0.157 C  
HETATM    2  C   UNL     1      -8.627  10.313  67.630  1.00  0.00    -0.118 C  
ENDROOT
BRANCH   2   3
HETATM    3  C   UNL     1     -10.124  10.021  67.534  1.00  0.00    -0.243 C  
BRANCH   3   4
HETATM    4  C   UNL     1     -10.532   8.762  68.319  1.00  0.00    -0.187 C  
BRANCH   4   5
HETATM    5  N   UNL     1     -10.025   8.714  69.711  1.00  0.00    -0.186 NA 
HETATM    6  C   UNL     1     -10.881   9.475  70.642  1.00  0.00    -0.306 C  
HETATM    7  C   UNL     1     -12.275   8.870  70.830  1.00  0.00    -0.177 C  
HETATM    8  C   UNL     1     -12.198   7.405  71.254  1.00  0.00    -0.374 C  
HETATM    9  C   UNL     1     -11.240   6.598  70.376  1.00  0.00    -0.398 C  
HETATM   10  C   UNL     1      -9.891   7.317  70.240  1.00  0.00    -0.179 C  
BRANCH  10  11
HETATM   11  C   UNL     1      -8.836   6.497  69.457  1.00  0.00    -0.138 C  
HETATM   12  N   UNL     1      -9.412   5.509  68.671  1.00  0.00    -0.124 N  
HETATM   13  O   UNL     1      -7.640   6.782  69.479  1.00  0.00    -0.094 OA 
HETATM   14  H   UNL     1     -10.432   5.487  68.646  1.00  0.00     0.000 HD 
BRANCH  12  15
HETATM   15  C   UNL     1      -8.745   4.530  67.901  1.00  0.00    -0.104 A  
HETATM   16  C   UNL     1      -8.306   3.300  68.441  1.00  0.00    -0.094 A  
HETATM   17  C   UNL     1      -8.467   2.873  69.874  1.00  0.00    -0.095 C  
HETATM   18  C   UNL     1      -7.706   2.348  67.592  1.00  0.00    -0.060 A  
HETATM   19  C   UNL     1      -7.575   2.580  66.226  1.00  0.00    -0.072 A  
HETATM   20  C   UNL     1      -8.015   3.782  65.691  1.00  0.00    -0.093 A  
HETATM   21  C   UNL     1      -8.601   4.762  66.510  1.00  0.00    -0.109 A  
HETATM   22  C   UNL     1      -8.982   6.073  65.864  1.00  0.00    -0.144 C  
ENDBRANCH  12  15
ENDBRANCH  10  11
ENDBRANCH   4   5
ENDBRANCH   3   4
ENDBRANCH   2   3
TORSDOF 5
ENDMDL
MODEL      236
REMARK 921   NORMALIZED FREE ENERGY PREDICTED BY IDOCK:   -2.62 KCAL/MOL
REMARK 922        TOTAL FREE ENERGY PREDICTED BY IDOCK:   -4.34 KCAL/MOL
REMARK 923 INTER-LIGAND FREE ENERGY PREDICTED BY IDOCK:   -5.15 KCAL/MOL
REMARK 924 INTRA-LIGAND FREE ENERGY PREDICTED BY IDOCK:    0.81 KCAL/MOL
REMARK 927      BINDING AFFINITY PREDICTED BY RF-SCORE:    0.00 PKD
ROOT
HETATM    1  C   UNL     1      -5.391  12.258  68.506  1.00  0.00    -0.054 C  
HETATM    2  C   UNL     1      -6.178  13.231  67.639  1.00  0.00    -0.153 C  
ENDROOT
BRANCH   2   3
HETATM    3  C   UNL     1      -7.683  13.090  67.859  1.00  0.00    -0.145 C  
BRANCH   3   4
HETATM    4  C   UNL     1      -8.408  12.505  66.634  1.00  0.00     0.047 C  
BRANCH   4   5
HETATM    5  N   UNL     1      -9.873  12.730  66.621  1.00  0.00    -0.244 NA 
HETATM    6  C   UNL     1     -10.328  13.365  65.369  1.00  0.00    -0.312 C  
HETATM    7  C   UNL     1     -10.171  12.472  64.135  1.00  0.00    -0.376 C  
HETATM    8  C   UNL     1     -10.857  11.121  64.329  1.00  0.00    -0.354 C  
HETATM    9  C   UNL     1     -10.492  10.473  65.664  1.00  0.00    -0.213 C  
HETATM   10  C   UNL     1     -10.662  11.471  66.819  1.00  0.00    -0.270 C  
BRANCH  10  11
HETATM   11  C   UNL     1     -10.419  10.843  68.213  1.00  0.00    -0.179 C  
HETATM   12  N   UNL     1     -11.267   9.773  68.465  1.00  0.00    -0.496 N  
HETATM   13  O   UNL     1      -9.503  11.213  68.945  1.00  0.00    -0.188 OA 
HETATM   14  H   UNL     1     -11.880   9.491  67.700  1.00  0.00     0.000 HD 
BRANCH  12  15
HETATM   15  C   UNL     1     -11.376   9.031  69.663  1.00  0.00     0.121 A  
HETATM   16  C   UNL     1     -11.050   7.659  69.745  1.00  0.00    -0.115 A  
HETATM   17  C   UNL     1     -10.567   6.810  68.601  1.00  0.00    -0.263 C  
HETATM   18  C   UNL     1     -11.124   7.005  70.991  1.00  0.00    -0.295 A  
HETATM   19  C   UNL     1     -11.472   7.695  72.149  1.00  0.00    -0.345 A  
HETATM   20  C   UNL     1     -11.783   9.045  72.073  1.00  0.00    -0.417 A  
HETATM   21  C   UNL     1     -11.738   9.725  70.845  1.00  0.00    -0.429 A  
HETATM   22  C   UNL     1     -12.165  11.174  70.834  1.00  0.00    -0.468 C  
ENDBRANCH  12  15
ENDBRANCH  10  11
ENDBRANCH   4   5
ENDBRANCH   3   4
ENDBRANCH   2   3
TORSDOF 5
ENDMDL
MODEL      237
REMARK 921   NORMALIZED FREE ENERGY PREDICTED BY IDOCK:   -2.62 KCAL/MOL
REMARK 922        TOTAL FREE ENERGY PREDICTED BY IDOCK:   -4.34 KCAL/MOL
REMARK 923 INTER-LIGAND FREE ENERGY PREDICTED BY IDOCK:   -3.70 KCAL/MOL
REMARK 924 INTRA-LIGAND FREE ENERGY PREDICTED BY IDOCK:   -0.64 KCAL/MOL
REMARK 927      BINDING AFFINITY PREDICTED BY RF-SCORE:    0.00 PKD
ROOT
HETATM    1  C   UNL     1     -13.658   9.825  71.089  1.00  0.00    -0.233 C  
HETATM    2  C   UNL     1     -13.045   8.740  71.964  1.00  0.00    -0.436 C  
ENDROOT
BRANCH   2   3
HETATM    3  C   UNL     1     -11.578   9.031  72.275  1.00  0.00    -0.252 C  
BRANCH   3   4
HETATM    4  C   UNL     1     -10.643   7.888  71.839  1.00  0.00    -0.231 C  
BRANCH   4   5
HETATM    5  N   UNL     1      -9.323   7.883  72.514  1.00  0.00    -0.176 NA 
HETATM    6  C   UNL     1      -9.374   7.222  73.832  1.00  0.00    -0.260 C  
HETATM    7  C   UNL     1      -9.656   5.719  73.756  1.00  0.00    -0.144 C  
HETATM    8  C   UNL     1      -8.661   5.008  72.840  1.00  0.00    -0.118 C  
HETATM    9  C   UNL     1      -8.499   5.719  71.497  1.00  0.00    -0.128 C  
HETATM   10  C   UNL     1      -8.251   7.221  71.703  1.00  0.00    -0.104 C  
BRANCH  10  11
HETATM   11  C   UNL     1      -7.964   7.980  70.384  1.00  0.00    -0.103 C  
HETATM   12  N   UNL     1      -8.385   9.302  70.434  1.00  0.00    -0.181 N  
HETATM   13  O   UNL     1      -7.342   7.466  69.456  1.00  0.00    -0.080 OA 
HETATM   14  H   UNL     1      -8.756   9.626  71.327  1.00  0.00     0.000 HD 
BRANCH  12  15
HETATM   15  C   UNL     1      -8.358  10.250  69.386  1.00  0.00    -0.161 A  
HETATM   16  C   UNL     1      -9.452  10.460  68.517  1.00  0.00    -0.159 A  
HETATM   17  C   UNL     1     -10.760   9.720  68.570  1.00  0.00    -0.252 C  
HETATM   18  C   UNL     1      -9.370  11.470  67.537  1.00  0.00    -0.166 A  
HETATM   19  C   UNL     1      -8.250  12.290  67.436  1.00  0.00    -0.178 A  
HETATM   20  C   UNL     1      -7.178  12.091  68.295  1.00  0.00    -0.090 A  
HETATM   21  C   UNL     1      -7.216  11.083  69.271  1.00  0.00    -0.124 A  
HETATM   22  C   UNL     1      -5.980  10.881  70.115  1.00  0.00    -0.120 C  
ENDBRANCH  12  15
ENDBRANCH  10  11
ENDBRANCH   4   5
ENDBRANCH   3   4
ENDBRANCH   2   3
TORSDOF 5
ENDMDL
MODEL      238
REMARK 921   NORMALIZED FREE ENERGY PREDICTED BY IDOCK:   -2.56 KCAL/MOL
REMARK 922        TOTAL FREE ENERGY PREDICTED BY IDOCK:   -4.25 KCAL/MOL
REMARK 923 INTER-LIGAND FREE ENERGY PREDICTED BY IDOCK:   -3.45 KCAL/MOL
REMARK 924 INTRA-LIGAND FREE ENERGY PREDICTED BY IDOCK:   -0.80 KCAL/MOL
REMARK 927      BINDING AFFINITY PREDICTED BY RF-SCORE:    0.00 PKD
ROOT
HETATM    1  C   UNL     1      -6.047  11.749  70.145  1.00  0.00    -0.147 C  
HETATM    2  C   UNL     1      -6.943  10.551  69.860  1.00  0.00    -0.151 C  
ENDROOT
BRANCH   2   3
HETATM    3  C   UNL     1      -8.153  10.941  69.013  1.00  0.00    -0.126 C  
BRANCH   3   4
HETATM    4  C   UNL     1      -8.178  10.224  67.652  1.00  0.00    -0.114 C  
BRANCH   4   5
HETATM    5  N   UNL     1      -9.533   9.856  67.177  1.00  0.00    -0.155 NA 
HETATM    6  C   UNL     1     -10.394  11.038  66.979  1.00  0.00    -0.228 C  
HETATM    7  C   UNL     1      -9.935  11.949  65.837  1.00  0.00    -0.261 C  
HETATM    8  C   UNL     1      -9.782  11.175  64.529  1.00  0.00    -0.310 C  
HETATM    9  C   UNL     1      -8.980   9.885  64.709  1.00  0.00    -0.255 C  
HETATM   10  C   UNL     1      -9.515   9.074  65.898  1.00  0.00    -0.249 C  
BRANCH  10  11
HETATM   11  C   UNL     1      -8.820   7.700  66.064  1.00  0.00    -0.155 C  
HETATM   12  N   UNL     1      -9.298   6.995  67.160  1.00  0.00    -0.138 N  
HETATM   13  O   UNL     1      -8.012   7.273  65.241  1.00  0.00    -0.114 OA 
HETATM   14  H   UNL     1     -10.075   7.420  67.668  1.00  0.00     0.000 HD 
BRANCH  12  15
HETATM   15  C   UNL     1      -8.830   5.756  67.652  1.00  0.00    -0.105 A  
HETATM   16  C   UNL     1      -7.908   5.656  68.718  1.00  0.00    -0.096 A  
HETATM   17  C   UNL     1      -7.298   6.818  69.452  1.00  0.00    -0.092 C  
HETATM   18  C   UNL     1      -7.540   4.381  69.194  1.00  0.00    -0.055 A  
HETATM   19  C   UNL     1      -8.098   3.222  68.662  1.00  0.00    -0.071 A  
HETATM   20  C   UNL     1      -9.012   3.319  67.622  1.00  0.00    -0.180 A  
HETATM   21  C   UNL     1      -9.388   4.571  67.110  1.00  0.00    -0.163 A  
HETATM   22  C   UNL     1     -10.328   4.587  65.928  1.00  0.00    -0.289 C  
ENDBRANCH  12  15
ENDBRANCH  10  11
ENDBRANCH   4   5
ENDBRANCH   3   4
ENDBRANCH   2   3
TORSDOF 5
ENDMDL
MODEL      239
REMARK 921   NORMALIZED FREE ENERGY PREDICTED BY IDOCK:   -2.53 KCAL/MOL
REMARK 922        TOTAL FREE ENERGY PREDICTED BY IDOCK:   -4.22 KCAL/MOL
REMARK 923 INTER-LIGAND FREE ENERGY PREDICTED BY IDOCK:   -3.85 KCAL/MOL
REMARK 924 INTRA-LIGAND FREE ENERGY PREDICTED BY IDOCK:   -0.37 KCAL/MOL
REMARK 927      BINDING AFFINITY PREDICTED BY RF-SCORE:    0.00 PKD
ROOT
HETATM    1  C   UNL     1      -8.595   5.288  65.037  1.00  0.00    -0.150 C  
HETATM    2  C   UNL     1      -8.911   6.565  65.804  1.00  0.00    -0.097 C  
ENDROOT
BRANCH   2   3
HETATM    3  C   UNL     1      -8.051   6.694  67.061  1.00  0.00    -0.113 C  
BRANCH   3   4
HETATM    4  C   UNL     1      -8.182   8.075  67.728  1.00  0.00    -0.129 C  
BRANCH   4   5
HETATM    5  N   UNL     1      -9.569   8.453  68.091  1.00  0.00    -0.141 NA 
HETATM    6  C   UNL     1     -10.222   7.433  68.934  1.00  0.00    -0.196 C  
HETATM    7  C   UNL     1      -9.597   7.292  70.324  1.00  0.00    -0.165 C  
HETATM    8  C   UNL     1      -9.544   8.633  71.054  1.00  0.00    -0.264 C  
HETATM    9  C   UNL     1      -8.966   9.746  70.179  1.00  0.00    -0.235 C  
HETATM   10  C   UNL     1      -9.651   9.768  68.805  1.00  0.00    -0.154 C  
BRANCH  10  11
HETATM   11  C   UNL     1      -9.192  10.947  67.911  1.00  0.00    -0.152 C  
HETATM   12  N   UNL     1      -9.052  12.128  68.626  1.00  0.00    -0.380 N  
HETATM   13  O   UNL     1      -8.899  10.793  66.727  1.00  0.00    -0.138 OA 
HETATM   14  H   UNL     1      -9.193  12.067  69.635  1.00  0.00     0.000 HD 
BRANCH  12  15
HETATM   15  C   UNL     1      -8.736  13.407  68.114  1.00  0.00    -0.179 A  
HETATM   16  C   UNL     1      -9.691  14.236  67.484  1.00  0.00    -0.223 A  
HETATM   17  C   UNL     1     -11.136  13.883  67.261  1.00  0.00    -0.312 C  
HETATM   18  C   UNL     1      -9.312  15.525  67.058  1.00  0.00    -0.239 A  
HETATM   19  C   UNL     1      -8.027  16.011  67.283  1.00  0.00    -0.207 A  
HETATM   20  C   UNL     1      -7.090  15.203  67.911  1.00  0.00    -0.161 A  
HETATM   21  C   UNL     1      -7.427  13.906  68.332  1.00  0.00    -0.117 A  
HETATM   22  C   UNL     1      -6.330  13.063  68.937  1.00  0.00    -0.093 C  
ENDBRANCH  12  15
ENDBRANCH  10  11
ENDBRANCH   4   5
ENDBRANCH   3   4
ENDBRANCH   2   3
TORSDOF 5
ENDMDL
MODEL      240
REMARK 921   NORMALIZED FREE ENERGY PREDICTED BY IDOCK:   -2.51 KCAL/MOL
REMARK 922        TOTAL FREE ENERGY PREDICTED BY IDOCK:   -4.19 KCAL/MOL
REMARK 923 INTER-LIGAND FREE ENERGY PREDICTED BY IDOCK:   -3.67 KCAL/MOL
REMARK 924 INTRA-LIGAND FREE ENERGY PREDICTED BY IDOCK:   -0.52 KCAL/MOL
REMARK 927      BINDING AFFINITY PREDICTED BY RF-SCORE:    0.00 PKD
ROOT
HETATM    1  C   UNL     1      -6.371  12.446  69.487  1.00  0.00    -0.116 C  
HETATM    2  C   UNL     1      -7.078  13.430  68.565  1.00  0.00    -0.108 C  
ENDROOT
BRANCH   2   3
HETATM    3  C   UNL     1      -8.574  13.137  68.470  1.00  0.00    -0.056 C  
BRANCH   3   4
HETATM    4  C   UNL     1      -8.933  12.278  67.244  1.00  0.00    -0.187 C  
BRANCH   4   5
HETATM    5  N   UNL     1     -10.359  12.341  66.846  1.00  0.00    -0.216 NA 
HETATM    6  C   UNL     1     -10.524  12.498  65.388  1.00  0.00    -0.282 C  
HETATM    7  C   UNL     1     -10.061  11.282  64.582  1.00  0.00    -0.343 C  
HETATM    8  C   UNL     1     -10.741  10.000  65.061  1.00  0.00     0.845 C  
HETATM    9  C   UNL     1     -10.683   9.847  66.580  1.00  0.00    -0.116 C  
HETATM   10  C   UNL     1     -11.142  11.137  67.275  1.00  0.00    -0.302 C  
BRANCH  10  11
HETATM   11  C   UNL     1     -11.217  11.009  68.817  1.00  0.00    -0.266 C  
HETATM   12  N   UNL     1     -10.753   9.782  69.268  1.00  0.00    -0.218 N  
HETATM   13  O   UNL     1     -11.561  11.947  69.534  1.00  0.00    -0.290 OA 
HETATM   14  H   UNL     1     -10.364   9.157  68.562  1.00  0.00     0.000 HD 
BRANCH  12  15
HETATM   15  C   UNL     1     -10.760   9.299  70.597  1.00  0.00    -0.269 A  
HETATM   16  C   UNL     1     -11.948   9.125  71.341  1.00  0.00    -0.410 A  
HETATM   17  C   UNL     1     -13.335   9.431  70.848  1.00  0.00    -0.075 C  
HETATM   18  C   UNL     1     -11.876   8.577  72.638  1.00  0.00    -0.311 A  
HETATM   19  C   UNL     1     -10.662   8.167  73.182  1.00  0.00    -0.050 A  
HETATM   20  C   UNL     1      -9.494   8.328  72.449  1.00  0.00    -0.357 A  
HETATM   21  C   UNL     1      -9.526   8.887  71.161  1.00  0.00    -0.335 A  
HETATM   22  C   UNL     1      -8.205   9.099  70.460  1.00  0.00    -0.203 C  
ENDBRANCH  12  15
ENDBRANCH  10  11
ENDBRANCH   4   5
ENDBRANCH   3   4
ENDBRANCH   2   3
TORSDOF 5
ENDMDL
MODEL      241
REMARK 921   NORMALIZED FREE ENERGY PREDICTED BY IDOCK:   -2.50 KCAL/MOL
REMARK 922        TOTAL FREE ENERGY PREDICTED BY IDOCK:   -4.18 KCAL/MOL
REMARK 923 INTER-LIGAND FREE ENERGY PREDICTED BY IDOCK:   -3.80 KCAL/MOL
REMARK 924 INTRA-LIGAND FREE ENERGY PREDICTED BY IDOCK:   -0.37 KCAL/MOL
REMARK 927      BINDING AFFINITY PREDICTED BY RF-SCORE:    0.00 PKD
ROOT
HETATM    1  C   UNL     1      -6.452   8.832  68.909  1.00  0.00    -0.049 C  
HETATM    2  C   UNL     1      -6.759  10.094  69.705  1.00  0.00    -0.076 C  
ENDROOT
BRANCH   2   3
HETATM    3  C   UNL     1      -8.263  10.336  69.818  1.00  0.00    -0.111 C  
BRANCH   3   4
HETATM    4  C   UNL     1      -9.065   9.028  69.933  1.00  0.00    -0.168 C  
BRANCH   4   5
HETATM    5  N   UNL     1     -10.339   9.021  69.174  1.00  0.00    -0.215 NA 
HETATM    6  C   UNL     1     -10.237   9.768  67.906  1.00  0.00    -0.194 C  
HETATM    7  C   UNL     1      -9.298   9.121  66.884  1.00  0.00    -0.199 C  
HETATM    8  C   UNL     1      -9.679   7.667  66.617  1.00  0.00    -0.283 C  
HETATM    9  C   UNL     1      -9.895   6.877  67.908  1.00  0.00    -0.155 C  
HETATM   10  C   UNL     1     -10.828   7.638  68.861  1.00  0.00    -0.017 C  
BRANCH  10  11
HETATM   11  C   UNL     1     -11.181   6.840  70.140  1.00  0.00    -0.335 C  
HETATM   12  N   UNL     1     -10.056   6.512  70.885  1.00  0.00    -0.184 N  
HETATM   13  O   UNL     1     -12.344   6.626  70.476  1.00  0.00    -0.314 OA 
HETATM   14  H   UNL     1      -9.167   6.885  70.551  1.00  0.00     0.000 HD 
BRANCH  12  15
HETATM   15  C   UNL     1     -10.004   5.720  72.054  1.00  0.00    -0.175 A  
HETATM   16  C   UNL     1      -9.880   4.313  72.019  1.00  0.00    -0.241 A  
HETATM   17  C   UNL     1      -9.801   3.478  70.771  1.00  0.00    -0.114 C  
HETATM   18  C   UNL     1      -9.769   3.600  73.230  1.00  0.00    -0.157 A  
HETATM   19  C   UNL     1      -9.739   4.259  74.456  1.00  0.00    -0.162 A  
HETATM   20  C   UNL     1      -9.850   5.642  74.492  1.00  0.00    -0.246 A  
HETATM   21  C   UNL     1      -9.981   6.384  73.307  1.00  0.00    -0.195 A  
HETATM   22  C   UNL     1     -10.174   7.876  73.436  1.00  0.00    -0.214 C  
ENDBRANCH  12  15
ENDBRANCH  10  11
ENDBRANCH   4   5
ENDBRANCH   3   4
ENDBRANCH   2   3
TORSDOF 5
ENDMDL
MODEL      242
REMARK 921   NORMALIZED FREE ENERGY PREDICTED BY IDOCK:   -2.47 KCAL/MOL
REMARK 922        TOTAL FREE ENERGY PREDICTED BY IDOCK:   -4.14 KCAL/MOL
REMARK 923 INTER-LIGAND FREE ENERGY PREDICTED BY IDOCK:   -5.50 KCAL/MOL
REMARK 924 INTRA-LIGAND FREE ENERGY PREDICTED BY IDOCK:    1.36 KCAL/MOL
REMARK 927      BINDING AFFINITY PREDICTED BY RF-SCORE:    0.00 PKD
ROOT
HETATM    1  C   UNL     1     -11.750  11.723  63.642  1.00  0.00    -0.517 C  
HETATM    2  C   UNL     1     -12.606  12.521  64.617  1.00  0.00    -0.507 C  
ENDROOT
BRANCH   2   3
HETATM    3  C   UNL     1     -11.747  13.295  65.616  1.00  0.00    -0.389 C  
BRANCH   3   4
HETATM    4  C   UNL     1     -11.745  12.656  67.015  1.00  0.00    -0.369 C  
BRANCH   4   5
HETATM    5  N   UNL     1     -10.431  12.683  67.701  1.00  0.00    -0.216 NA 
HETATM    6  C   UNL     1     -10.050  11.359  68.229  1.00  0.00    -0.196 C  
HETATM    7  C   UNL     1      -9.776  10.318  67.140  1.00  0.00    -0.210 C  
HETATM    8  C   UNL     1      -8.733  10.814  66.140  1.00  0.00    -0.186 C  
HETATM    9  C   UNL     1      -9.034  12.228  65.642  1.00  0.00     0.302 C  
HETATM   10  C   UNL     1      -9.319  13.170  66.821  1.00  0.00    -0.244 C  
BRANCH  10  11
HETATM   11  C   UNL     1      -9.518  14.645  66.391  1.00  0.00    -0.299 C  
HETATM   12  N   UNL     1      -9.270  15.534  67.427  1.00  0.00    -0.200 N  
HETATM   13  O   UNL     1      -9.771  14.958  65.230  1.00  0.00    -0.275 OA 
HETATM   14  H   UNL     1      -8.927  15.130  68.300  1.00  0.00     0.000 HD 
BRANCH  12  15
HETATM   15  C   UNL     1      -9.438  16.938  67.410  1.00  0.00    -0.238 A  
HETATM   16  C   UNL     1      -8.527  17.809  66.772  1.00  0.00    -0.269 A  
HETATM   17  C   UNL     1      -7.277  17.385  66.052  1.00  0.00    -0.269 C  
HETATM   18  C   UNL     1      -8.800  19.192  66.743  1.00  0.00    -0.330 A  
HETATM   19  C   UNL     1      -9.969  19.709  67.296  1.00  0.00    -0.518 A  
HETATM   20  C   UNL     1     -10.869  18.854  67.915  1.00  0.00    -0.272 A  
HETATM   21  C   UNL     1     -10.622  17.472  67.978  1.00  0.00    -0.384 A  
HETATM   22  C   UNL     1     -11.612  16.620  68.736  1.00  0.00     0.086 C  
ENDBRANCH  12  15
ENDBRANCH  10  11
ENDBRANCH   4   5
ENDBRANCH   3   4
ENDBRANCH   2   3
TORSDOF 5
ENDMDL
MODEL      243
REMARK 921   NORMALIZED FREE ENERGY PREDICTED BY IDOCK:   -2.42 KCAL/MOL
REMARK 922        TOTAL FREE ENERGY PREDICTED BY IDOCK:   -4.08 KCAL/MOL
REMARK 923 INTER-LIGAND FREE ENERGY PREDICTED BY IDOCK:   -3.19 KCAL/MOL
REMARK 924 INTRA-LIGAND FREE ENERGY PREDICTED BY IDOCK:   -0.88 KCAL/MOL
REMARK 927      BINDING AFFINITY PREDICTED BY RF-SCORE:    0.00 PKD
ROOT
HETATM    1  C   UNL     1      -8.322   4.569  64.552  1.00  0.00    -0.115 C  
HETATM    2  C   UNL     1      -9.780   4.281  64.885  1.00  0.00    -0.182 C  
ENDROOT
BRANCH   2   3
HETATM    3  C   UNL     1     -10.046   4.382  66.385  1.00  0.00    -0.235 C  
BRANCH   3   4
HETATM    4  C   UNL     1      -9.467   5.667  67.003  1.00  0.00    -0.127 C  
BRANCH   4   5
HETATM    5  N   UNL     1      -9.346   5.638  68.480  1.00  0.00    -0.120 NA 
HETATM    6  C   UNL     1      -8.816   4.351  68.971  1.00  0.00    -0.094 C  
HETATM    7  C   UNL     1      -7.362   4.090  68.565  1.00  0.00    -0.055 C  
HETATM    8  C   UNL     1      -6.448   5.240  68.986  1.00  0.00    -0.042 C  
HETATM    9  C   UNL     1      -7.011   6.604  68.587  1.00  0.00    -0.080 C  
HETATM   10  C   UNL     1      -8.478   6.735  69.020  1.00  0.00    -0.128 C  
BRANCH  10  11
HETATM   11  C   UNL     1      -9.074   8.138  68.748  1.00  0.00    -0.144 C  
HETATM   12  N   UNL     1      -8.237   8.926  67.972  1.00  0.00    -0.110 N  
HETATM   13  O   UNL     1     -10.207   8.448  69.112  1.00  0.00    -0.202 OA 
HETATM   14  H   UNL     1      -7.388   8.479  67.623  1.00  0.00     0.000 HD 
BRANCH  12  15
HETATM   15  C   UNL     1      -8.426  10.279  67.609  1.00  0.00    -0.118 A  
HETATM   16  C   UNL     1      -9.200  10.670  66.493  1.00  0.00    -0.187 A  
HETATM   17  C   UNL     1      -9.900   9.733  65.549  1.00  0.00    -0.378 C  
HETATM   18  C   UNL     1      -9.395  12.042  66.236  1.00  0.00    -0.228 A  
HETATM   19  C   UNL     1      -8.875  13.017  67.083  1.00  0.00    -0.218 A  
HETATM   20  C   UNL     1      -8.124  12.635  68.186  1.00  0.00    -0.164 A  
HETATM   21  C   UNL     1      -7.893  11.278  68.463  1.00  0.00    -0.138 A  
HETATM   22  C   UNL     1      -7.003  10.947  69.637  1.00  0.00    -0.128 C  
ENDBRANCH  12  15
ENDBRANCH  10  11
ENDBRANCH   4   5
ENDBRANCH   3   4
ENDBRANCH   2   3
TORSDOF 5
ENDMDL
MODEL      244
REMARK 921   NORMALIZED FREE ENERGY PREDICTED BY IDOCK:   -2.34 KCAL/MOL
REMARK 922        TOTAL FREE ENERGY PREDICTED BY IDOCK:   -3.97 KCAL/MOL
REMARK 923 INTER-LIGAND FREE ENERGY PREDICTED BY IDOCK:   -3.29 KCAL/MOL
REMARK 924 INTRA-LIGAND FREE ENERGY PREDICTED BY IDOCK:   -0.67 KCAL/MOL
REMARK 927      BINDING AFFINITY PREDICTED BY RF-SCORE:    0.00 PKD
ROOT
HETATM    1  C   UNL     1     -10.333   9.715  68.525  1.00  0.00    -0.231 C  
HETATM    2  C   UNL     1     -10.783   8.785  67.405  1.00  0.00    -0.216 C  
ENDROOT
BRANCH   2   3
HETATM    3  C   UNL     1      -9.595   8.246  66.610  1.00  0.00    -0.299 C  
BRANCH   3   4
HETATM    4  C   UNL     1      -8.761   7.229  67.408  1.00  0.00    -0.121 C  
BRANCH   4   5
HETATM    5  N   UNL     1      -8.689   5.880  66.798  1.00  0.00    -0.116 NA 
HETATM    6  C   UNL     1      -7.857   5.863  65.580  1.00  0.00    -0.103 C  
HETATM    7  C   UNL     1      -6.373   6.130  65.843  1.00  0.00    -0.038 C  
HETATM    8  C   UNL     1      -5.808   5.171  66.889  1.00  0.00    -0.022 C  
HETATM    9  C   UNL     1      -6.694   5.079  68.131  1.00  0.00    -0.055 C  
HETATM   10  C   UNL     1      -8.159   4.839  67.738  1.00  0.00    -0.093 C  
BRANCH  10  11
HETATM   11  C   UNL     1      -9.092   4.621  68.954  1.00  0.00    -0.119 C  
HETATM   12  N   UNL     1      -8.859   5.539  69.969  1.00  0.00    -0.126 N  
HETATM   13  O   UNL     1      -9.992   3.783  68.945  1.00  0.00     0.013 OA 
HETATM   14  H   UNL     1      -8.174   6.268  69.772  1.00  0.00     0.000 HD 
BRANCH  12  15
HETATM   15  C   UNL     1      -9.465   5.576  71.246  1.00  0.00    -0.149 A  
HETATM   16  C   UNL     1     -10.725   6.171  71.477  1.00  0.00    -0.303 A  
HETATM   17  C   UNL     1     -11.574   6.844  70.433  1.00  0.00    -0.385 C  
HETATM   18  C   UNL     1     -11.291   6.110  72.766  1.00  0.00    -0.259 A  
HETATM   19  C   UNL     1     -10.651   5.440  73.805  1.00  0.00    -0.325 A  
HETATM   20  C   UNL     1      -9.418   4.845  73.578  1.00  0.00    -0.139 A  
HETATM   21  C   UNL     1      -8.815   4.902  72.310  1.00  0.00    -0.136 A  
HETATM   22  C   UNL     1      -7.439   4.298  72.165  1.00  0.00    -0.074 C  
ENDBRANCH  12  15
ENDBRANCH  10  11
ENDBRANCH   4   5
ENDBRANCH   3   4
ENDBRANCH   2   3
TORSDOF 5
ENDMDL
MODEL      245
REMARK 921   NORMALIZED FREE ENERGY PREDICTED BY IDOCK:   -2.32 KCAL/MOL
REMARK 922        TOTAL FREE ENERGY PREDICTED BY IDOCK:   -3.94 KCAL/MOL
REMARK 923 INTER-LIGAND FREE ENERGY PREDICTED BY IDOCK:   -3.87 KCAL/MOL
REMARK 924 INTRA-LIGAND FREE ENERGY PREDICTED BY IDOCK:   -0.08 KCAL/MOL
REMARK 927      BINDING AFFINITY PREDICTED BY RF-SCORE:    0.00 PKD
ROOT
HETATM    1  C   UNL     1      -8.678   9.865  68.199  1.00  0.00    -0.122 C  
HETATM    2  C   UNL     1      -7.805  10.134  69.417  1.00  0.00    -0.150 C  
ENDROOT
BRANCH   2   3
HETATM    3  C   UNL     1      -8.220   9.275  70.609  1.00  0.00    -0.224 C  
BRANCH   3   4
HETATM    4  C   UNL     1      -9.186   8.144  70.216  1.00  0.00    -0.151 C  
BRANCH   4   5
HETATM    5  N   UNL     1      -9.518   7.209  71.317  1.00  0.00    -0.163 NA 
HETATM    6  C   UNL     1     -10.198   7.887  72.438  1.00  0.00    -0.264 C  
HETATM    7  C   UNL     1     -11.592   8.411  72.085  1.00  0.00    -0.442 C  
HETATM    8  C   UNL     1     -12.479   7.307  71.513  1.00  0.00    -0.408 C  
HETATM    9  C   UNL     1     -11.775   6.509  70.415  1.00  0.00    -0.439 C  
HETATM   10  C   UNL     1     -10.380   6.064  70.875  1.00  0.00    -0.222 C  
BRANCH  10  11
HETATM   11  C   UNL     1      -9.659   5.153  69.851  1.00  0.00    -0.174 C  
HETATM   12  N   UNL     1      -9.244   5.849  68.724  1.00  0.00    -0.115 N  
HETATM   13  O   UNL     1      -9.412   3.971  70.088  1.00  0.00    -0.153 OA 
HETATM   14  H   UNL     1      -9.394   6.858  68.735  1.00  0.00     0.000 HD 
BRANCH  12  15
HETATM   15  C   UNL     1      -8.638   5.317  67.564  1.00  0.00    -0.104 A  
HETATM   16  C   UNL     1      -7.281   4.926  67.521  1.00  0.00    -0.070 A  
HETATM   17  C   UNL     1      -6.310   5.028  68.665  1.00  0.00    -0.035 C  
HETATM   18  C   UNL     1      -6.767   4.343  66.345  1.00  0.00    -0.050 A  
HETATM   19  C   UNL     1      -7.581   4.110  65.240  1.00  0.00    -0.081 A  
HETATM   20  C   UNL     1      -8.917   4.484  65.283  1.00  0.00    -0.144 A  
HETATM   21  C   UNL     1      -9.459   5.084  66.432  1.00  0.00    -0.157 A  
HETATM   22  C   UNL     1     -10.900   5.532  66.371  1.00  0.00    -0.195 C  
ENDBRANCH  12  15
ENDBRANCH  10  11
ENDBRANCH   4   5
ENDBRANCH   3   4
ENDBRANCH   2   3
TORSDOF 5
ENDMDL
MODEL      246
REMARK 921   NORMALIZED FREE ENERGY PREDICTED BY IDOCK:   -2.28 KCAL/MOL
REMARK 922        TOTAL FREE ENERGY PREDICTED BY IDOCK:   -3.90 KCAL/MOL
REMARK 923 INTER-LIGAND FREE ENERGY PREDICTED BY IDOCK:   -3.68 KCAL/MOL
REMARK 924 INTRA-LIGAND FREE ENERGY PREDICTED BY IDOCK:   -0.22 KCAL/MOL
REMARK 927      BINDING AFFINITY PREDICTED BY RF-SCORE:    0.00 PKD
ROOT
HETATM    1  C   UNL     1     -10.197  17.793  65.954  1.00  0.00    -0.231 C  
HETATM    2  C   UNL     1     -10.886  16.664  66.709  1.00  0.00    -0.037 C  
ENDROOT
BRANCH   2   3
HETATM    3  C   UNL     1     -10.395  15.294  66.244  1.00  0.00    -0.303 C  
BRANCH   3   4
HETATM    4  C   UNL     1     -10.878  14.152  67.156  1.00  0.00    -0.290 C  
BRANCH   4   5
HETATM    5  N   UNL     1     -10.235  14.117  68.490  1.00  0.00    -0.243 NA 
HETATM    6  C   UNL     1     -10.972  14.920  69.485  1.00  0.00    -0.273 C  
HETATM    7  C   UNL     1     -12.355  14.359  69.826  1.00  0.00    -0.333 C  
HETATM    8  C   UNL     1     -12.274  12.900  70.272  1.00  0.00    -0.362 C  
HETATM    9  C   UNL     1     -11.432  12.050  69.321  1.00  0.00    -0.361 C  
HETATM   10  C   UNL     1     -10.085  12.727  69.033  1.00  0.00     0.187 C  
BRANCH  10  11
HETATM   11  C   UNL     1      -9.136  11.862  68.168  1.00  0.00    -0.190 C  
HETATM   12  N   UNL     1      -9.128  10.531  68.562  1.00  0.00    -0.147 N  
HETATM   13  O   UNL     1      -8.549  12.317  67.188  1.00  0.00    -0.174 OA 
HETATM   14  H   UNL     1      -9.780  10.275  69.304  1.00  0.00     0.000 HD 
BRANCH  12  15
HETATM   15  C   UNL     1      -8.318   9.492  68.052  1.00  0.00    -0.118 A  
HETATM   16  C   UNL     1      -8.639   8.780  66.874  1.00  0.00    -0.120 A  
HETATM   17  C   UNL     1      -9.860   9.009  66.026  1.00  0.00    -0.312 C  
HETATM   18  C   UNL     1      -7.746   7.801  66.394  1.00  0.00    -0.093 A  
HETATM   19  C   UNL     1      -6.536   7.550  67.036  1.00  0.00    -0.062 A  
HETATM   20  C   UNL     1      -6.214   8.256  68.187  1.00  0.00    -0.051 A  
HETATM   21  C   UNL     1      -7.087   9.226  68.704  1.00  0.00    -0.070 A  
HETATM   22  C   UNL     1      -6.699   9.893  70.002  1.00  0.00    -0.100 C  
ENDBRANCH  12  15
ENDBRANCH  10  11
ENDBRANCH   4   5
ENDBRANCH   3   4
ENDBRANCH   2   3
TORSDOF 5
ENDMDL
MODEL      247
REMARK 921   NORMALIZED FREE ENERGY PREDICTED BY IDOCK:   -2.20 KCAL/MOL
REMARK 922        TOTAL FREE ENERGY PREDICTED BY IDOCK:   -3.79 KCAL/MOL
REMARK 923 INTER-LIGAND FREE ENERGY PREDICTED BY IDOCK:   -3.51 KCAL/MOL
REMARK 924 INTRA-LIGAND FREE ENERGY PREDICTED BY IDOCK:   -0.28 KCAL/MOL
REMARK 927      BINDING AFFINITY PREDICTED BY RF-SCORE:    0.00 PKD
ROOT
HETATM    1  C   UNL     1      -9.169   2.558  69.515  1.00  0.00    -0.193 C  
HETATM    2  C   UNL     1      -9.688   3.980  69.346  1.00  0.00    -0.205 C  
ENDROOT
BRANCH   2   3
HETATM    3  C   UNL     1     -10.251   4.532  70.654  1.00  0.00    -0.158 C  
BRANCH   3   4
HETATM    4  C   UNL     1     -10.310   6.070  70.670  1.00  0.00    -0.222 C  
BRANCH   4   5
HETATM    5  N   UNL     1      -9.684   6.697  71.858  1.00  0.00    -0.154 NA 
HETATM    6  C   UNL     1      -9.130   5.695  72.790  1.00  0.00    -0.130 C  
HETATM    7  C   UNL     1      -7.939   4.919  72.221  1.00  0.00    -0.110 C  
HETATM    8  C   UNL     1      -6.839   5.859  71.733  1.00  0.00    -0.068 C  
HETATM    9  C   UNL     1      -7.384   6.977  70.844  1.00  0.00    -0.077 C  
HETATM   10  C   UNL     1      -8.589   7.659  71.506  1.00  0.00    -0.116 C  
BRANCH  10  11
HETATM   11  C   UNL     1      -9.118   8.877  70.709  1.00  0.00    -0.213 C  
HETATM   12  N   UNL     1      -8.480   9.025  69.485  1.00  0.00    -0.121 N  
HETATM   13  O   UNL     1     -10.065   9.555  71.104  1.00  0.00    -0.288 OA 
HETATM   14  H   UNL     1      -7.811   8.297  69.232  1.00  0.00     0.000 HD 
BRANCH  12  15
HETATM   15  C   UNL     1      -8.652  10.070  68.550  1.00  0.00    -0.119 A  
HETATM   16  C   UNL     1      -9.653  10.047  67.553  1.00  0.00    -0.178 A  
HETATM   17  C   UNL     1     -10.640   8.934  67.338  1.00  0.00    -0.305 C  
HETATM   18  C   UNL     1      -9.801  11.159  66.699  1.00  0.00    -0.231 A  
HETATM   19  C   UNL     1      -9.009  12.294  66.846  1.00  0.00    -0.207 A  
HETATM   20  C   UNL     1      -8.033  12.324  67.832  1.00  0.00    -0.152 A  
HETATM   21  C   UNL     1      -7.844  11.227  68.690  1.00  0.00    -0.139 A  
HETATM   22  C   UNL     1      -6.711  11.307  69.685  1.00  0.00    -0.122 C  
ENDBRANCH  12  15
ENDBRANCH  10  11
ENDBRANCH   4   5
ENDBRANCH   3   4
ENDBRANCH   2   3
TORSDOF 5
ENDMDL
MODEL      248
REMARK 921   NORMALIZED FREE ENERGY PREDICTED BY IDOCK:   -2.19 KCAL/MOL
REMARK 922        TOTAL FREE ENERGY PREDICTED BY IDOCK:   -3.77 KCAL/MOL
REMARK 923 INTER-LIGAND FREE ENERGY PREDICTED BY IDOCK:   -3.89 KCAL/MOL
REMARK 924 INTRA-LIGAND FREE ENERGY PREDICTED BY IDOCK:    0.11 KCAL/MOL
REMARK 927      BINDING AFFINITY PREDICTED BY RF-SCORE:    0.00 PKD
ROOT
HETATM    1  C   UNL     1     -11.455  11.742  65.886  1.00  0.00    -0.273 C  
HETATM    2  C   UNL     1     -10.346  12.673  66.356  1.00  0.00    -0.264 C  
ENDROOT
BRANCH   2   3
HETATM    3  C   UNL     1     -10.408  12.907  67.864  1.00  0.00    -0.233 C  
BRANCH   3   4
HETATM    4  C   UNL     1      -9.673  11.816  68.664  1.00  0.00    -0.128 C  
BRANCH   4   5
HETATM    5  N   UNL     1      -8.795  10.944  67.848  1.00  0.00    -0.132 NA 
HETATM    6  C   UNL     1      -7.706  11.699  67.199  1.00  0.00    -0.159 C  
HETATM    7  C   UNL     1      -6.688  12.280  68.184  1.00  0.00    -0.069 C  
HETATM    8  C   UNL     1      -6.115  11.201  69.100  1.00  0.00    -0.047 C  
HETATM    9  C   UNL     1      -7.207  10.325  69.717  1.00  0.00    -0.147 C  
HETATM   10  C   UNL     1      -8.180   9.828  68.638  1.00  0.00    -0.106 C  
BRANCH  10  11
HETATM   11  C   UNL     1      -9.243   8.841  69.180  1.00  0.00    -0.149 C  
HETATM   12  N   UNL     1      -8.840   8.225  70.357  1.00  0.00    -0.138 N  
HETATM   13  O   UNL     1     -10.348   8.719  68.655  1.00  0.00    -0.204 OA 
HETATM   14  H   UNL     1      -7.952   8.537  70.751  1.00  0.00     0.000 HD 
BRANCH  12  15
HETATM   15  C   UNL     1      -9.522   7.213  71.071  1.00  0.00    -0.159 A  
HETATM   16  C   UNL     1      -9.154   5.851  71.004  1.00  0.00    -0.156 A  
HETATM   17  C   UNL     1      -8.028   5.293  70.178  1.00  0.00    -0.080 C  
HETATM   18  C   UNL     1      -9.843   4.911  71.797  1.00  0.00    -0.240 A  
HETATM   19  C   UNL     1     -10.850   5.305  72.674  1.00  0.00    -0.307 A  
HETATM   20  C   UNL     1     -11.206   6.644  72.749  1.00  0.00    -0.263 A  
HETATM   21  C   UNL     1     -10.553   7.607  71.960  1.00  0.00    -0.264 A  
HETATM   22  C   UNL     1     -11.051   9.030  72.043  1.00  0.00    -0.371 C  
ENDBRANCH  12  15
ENDBRANCH  10  11
ENDBRANCH   4   5
ENDBRANCH   3   4
ENDBRANCH   2   3
TORSDOF 5
ENDMDL
MODEL      249
REMARK 921   NORMALIZED FREE ENERGY PREDICTED BY IDOCK:   -2.17 KCAL/MOL
REMARK 922        TOTAL FREE ENERGY PREDICTED BY IDOCK:   -3.75 KCAL/MOL
REMARK 923 INTER-LIGAND FREE ENERGY PREDICTED BY IDOCK:   -4.71 KCAL/MOL
REMARK 924 INTRA-LIGAND FREE ENERGY PREDICTED BY IDOCK:    0.96 KCAL/MOL
REMARK 927      BINDING AFFINITY PREDICTED BY RF-SCORE:    0.00 PKD
ROOT
HETATM    1  C   UNL     1      -6.061  10.370  68.577  1.00  0.00    -0.043 C  
HETATM    2  C   UNL     1      -6.593  11.367  67.556  1.00  0.00    -0.078 C  
ENDROOT
BRANCH   2   3
HETATM    3  C   UNL     1      -7.367  10.669  66.439  1.00  0.00    -0.138 C  
BRANCH   3   4
HETATM    4  C   UNL     1      -8.828  11.144  66.344  1.00  0.00    -0.178 C  
BRANCH   4   5
HETATM    5  N   UNL     1      -9.769  10.132  65.810  1.00  0.00    -0.226 NA 
HETATM    6  C   UNL     1     -10.031  10.319  64.369  1.00  0.00    -0.261 C  
HETATM    7  C   UNL     1      -8.809  10.061  63.484  1.00  0.00    -0.251 C  
HETATM    8  C   UNL     1      -8.212   8.679  63.742  1.00  0.00    -0.145 C  
HETATM    9  C   UNL     1      -8.018   8.401  65.233  1.00  0.00    -0.125 C  
HETATM   10  C   UNL     1      -9.298   8.724  66.017  1.00  0.00    -0.232 C  
BRANCH  10  11
HETATM   11  C   UNL     1      -9.206   8.355  67.518  1.00  0.00    -0.140 C  
HETATM   12  N   UNL     1     -10.421   8.502  68.174  1.00  0.00    -0.329 N  
HETATM   13  O   UNL     1      -8.181   7.893  68.016  1.00  0.00    -0.124 OA 
HETATM   14  H   UNL     1     -11.221   8.758  67.593  1.00  0.00     0.000 HD 
BRANCH  12  15
HETATM   15  C   UNL     1     -10.675   8.337  69.554  1.00  0.00    -0.174 A  
HETATM   16  C   UNL     1     -10.854   9.428  70.434  1.00  0.00    -0.321 A  
HETATM   17  C   UNL     1     -10.788  10.879  70.045  1.00  0.00    -0.139 C  
HETATM   18  C   UNL     1     -11.169   9.180  71.785  1.00  0.00    -0.451 A  
HETATM   19  C   UNL     1     -11.347   7.883  72.259  1.00  0.00    -0.393 A  
HETATM   20  C   UNL     1     -11.182   6.810  71.394  1.00  0.00    -0.309 A  
HETATM   21  C   UNL     1     -10.850   7.019  70.045  1.00  0.00    -0.290 A  
HETATM   22  C   UNL     1     -10.613   5.798  69.189  1.00  0.00    -0.365 C  
ENDBRANCH  12  15
ENDBRANCH  10  11
ENDBRANCH   4   5
ENDBRANCH   3   4
ENDBRANCH   2   3
TORSDOF 5
ENDMDL
MODEL      250
REMARK 921   NORMALIZED FREE ENERGY PREDICTED BY IDOCK:   -2.07 KCAL/MOL
REMARK 922        TOTAL FREE ENERGY PREDICTED BY IDOCK:   -3.62 KCAL/MOL
REMARK 923 INTER-LIGAND FREE ENERGY PREDICTED BY IDOCK:   -2.94 KCAL/MOL
REMARK 924 INTRA-LIGAND FREE ENERGY PREDICTED BY IDOCK:   -0.69 KCAL/MOL
REMARK 927      BINDING AFFINITY PREDICTED BY RF-SCORE:    0.00 PKD
ROOT
HETATM    1  C   UNL     1     -10.521  11.468  64.601  1.00  0.00    -0.356 C  
HETATM    2  C   UNL     1      -9.282  10.873  65.256  1.00  0.00    -0.236 C  
ENDROOT
BRANCH   2   3
HETATM    3  C   UNL     1      -9.406   9.360  65.424  1.00  0.00    -0.311 C  
BRANCH   3   4
HETATM    4  C   UNL     1      -9.527   8.935  66.898  1.00  0.00    -0.177 C  
BRANCH   4   5
HETATM    5  N   UNL     1      -8.346   9.264  67.731  1.00  0.00    -0.116 NA 
HETATM    6  C   UNL     1      -8.579  10.443  68.588  1.00  0.00    -0.133 C  
HETATM    7  C   UNL     1      -9.633  10.216  69.674  1.00  0.00    -0.237 C  
HETATM    8  C   UNL     1      -9.304   8.992  70.528  1.00  0.00    -0.262 C  
HETATM    9  C   UNL     1      -8.956   7.770  69.679  1.00  0.00    -0.143 C  
HETATM   10  C   UNL     1      -7.913   8.129  68.610  1.00  0.00    -0.115 C  
BRANCH  10  11
HETATM   11  C   UNL     1      -7.431   6.907  67.790  1.00  0.00    -0.098 C  
HETATM   12  N   UNL     1      -8.416   5.938  67.657  1.00  0.00    -0.105 N  
HETATM   13  O   UNL     1      -6.327   6.877  67.249  1.00  0.00    -0.044 OA 
HETATM   14  H   UNL     1      -9.333   6.169  68.040  1.00  0.00     0.000 HD 
BRANCH  12  15
HETATM   15  C   UNL     1      -8.292   4.668  67.050  1.00  0.00    -0.105 A  
HETATM   16  C   UNL     1      -8.414   4.472  65.655  1.00  0.00    -0.116 A  
HETATM   17  C   UNL     1      -8.699   5.550  64.647  1.00  0.00    -0.015 C  
HETATM   18  C   UNL     1      -8.212   3.183  65.120  1.00  0.00    -0.094 A  
HETATM   19  C   UNL     1      -7.855   2.111  65.933  1.00  0.00    -0.077 A  
HETATM   20  C   UNL     1      -7.725   2.304  67.301  1.00  0.00    -0.065 A  
HETATM   21  C   UNL     1      -7.937   3.569  67.872  1.00  0.00    -0.079 A  
HETATM   22  C   UNL     1      -7.851   3.679  69.376  1.00  0.00    -0.053 C  
ENDBRANCH  12  15
ENDBRANCH  10  11
ENDBRANCH   4   5
ENDBRANCH   3   4
ENDBRANCH   2   3
TORSDOF 5
ENDMDL
MODEL      251
REMARK 921   NORMALIZED FREE ENERGY PREDICTED BY IDOCK:   -1.99 KCAL/MOL
REMARK 922        TOTAL FREE ENERGY PREDICTED BY IDOCK:   -3.52 KCAL/MOL
REMARK 923 INTER-LIGAND FREE ENERGY PREDICTED BY IDOCK:   -4.43 KCAL/MOL
REMARK 924 INTRA-LIGAND FREE ENERGY PREDICTED BY IDOCK:    0.91 KCAL/MOL
REMARK 927      BINDING AFFINITY PREDICTED BY RF-SCORE:    0.00 PKD
ROOT
HETATM    1  C   UNL     1      -5.434   9.094  68.566  1.00  0.00    -0.037 C  
HETATM    2  C   UNL     1      -6.266   8.480  67.448  1.00  0.00    -0.056 C  
ENDROOT
BRANCH   2   3
HETATM    3  C   UNL     1      -7.684   8.155  67.916  1.00  0.00    -0.114 C  
BRANCH   3   4
HETATM    4  C   UNL     1      -8.247   9.216  68.879  1.00  0.00    -0.112 C  
BRANCH   4   5
HETATM    5  N   UNL     1      -9.660   9.586  68.627  1.00  0.00    -0.145 NA 
HETATM    6  C   UNL     1      -9.781  10.891  67.948  1.00  0.00    -0.165 C  
HETATM    7  C   UNL     1      -9.231  10.894  66.519  1.00  0.00    -0.189 C  
HETATM    8  C   UNL     1      -9.863   9.791  65.672  1.00  0.00    -0.371 C  
HETATM    9  C   UNL     1      -9.851   8.437  66.382  1.00  0.00    -0.310 C  
HETATM   10  C   UNL     1     -10.397   8.567  67.811  1.00  0.00    -0.237 C  
BRANCH  10  11
HETATM   11  C   UNL     1     -10.520   7.209  68.545  1.00  0.00    -0.204 C  
HETATM   12  N   UNL     1     -10.542   7.356  69.925  1.00  0.00    -0.232 N  
HETATM   13  O   UNL     1     -10.677   6.151  67.940  1.00  0.00    -0.240 OA 
HETATM   14  H   UNL     1     -10.548   8.313  70.279  1.00  0.00     0.000 HD 
BRANCH  12  15
HETATM   15  C   UNL     1     -10.558   6.328  70.896  1.00  0.00    -0.241 A  
HETATM   16  C   UNL     1      -9.471   5.447  71.094  1.00  0.00    -0.200 A  
HETATM   17  C   UNL     1      -8.185   5.464  70.316  1.00  0.00    -0.101 C  
HETATM   18  C   UNL     1      -9.539   4.490  72.126  1.00  0.00    -0.206 A  
HETATM   19  C   UNL     1     -10.637   4.423  72.979  1.00  0.00    -0.267 A  
HETATM   20  C   UNL     1     -11.701   5.295  72.793  1.00  0.00    -0.214 A  
HETATM   21  C   UNL     1     -11.677   6.250  71.763  1.00  0.00    -0.355 A  
HETATM   22  C   UNL     1     -12.905   7.108  71.579  1.00  0.00    -0.434 C  
ENDBRANCH  12  15
ENDBRANCH  10  11
ENDBRANCH   4   5
ENDBRANCH   3   4
ENDBRANCH   2   3
TORSDOF 5
ENDMDL
MODEL      252
REMARK 921   NORMALIZED FREE ENERGY PREDICTED BY IDOCK:   -1.98 KCAL/MOL
REMARK 922        TOTAL FREE ENERGY PREDICTED BY IDOCK:   -3.50 KCAL/MOL
REMARK 923 INTER-LIGAND FREE ENERGY PREDICTED BY IDOCK:   -2.91 KCAL/MOL
REMARK 924 INTRA-LIGAND FREE ENERGY PREDICTED BY IDOCK:   -0.59 KCAL/MOL
REMARK 927      BINDING AFFINITY PREDICTED BY RF-SCORE:    0.00 PKD
ROOT
HETATM    1  C   UNL     1     -12.494  12.738  66.406  1.00  0.00     0.171 C  
HETATM    2  C   UNL     1     -11.592  11.667  65.808  1.00  0.00    -0.088 C  
ENDROOT
BRANCH   2   3
HETATM    3  C   UNL     1     -10.471  11.275  66.769  1.00  0.00    -0.291 C  
BRANCH   3   4
HETATM    4  C   UNL     1      -9.413  10.374  66.108  1.00  0.00    -0.181 C  
BRANCH   4   5
HETATM    5  N   UNL     1      -8.425   9.795  67.048  1.00  0.00    -0.117 NA 
HETATM    6  C   UNL     1      -7.979   8.452  66.631  1.00  0.00    -0.097 C  
HETATM    7  C   UNL     1      -7.166   8.448  65.333  1.00  0.00    -0.082 C  
HETATM    8  C   UNL     1      -5.978   9.404  65.414  1.00  0.00    -0.063 C  
HETATM    9  C   UNL     1      -6.377  10.783  65.940  1.00  0.00    -0.109 C  
HETATM   10  C   UNL     1      -7.209  10.655  67.224  1.00  0.00    -0.091 C  
BRANCH  10  11
HETATM   11  C   UNL     1      -7.548  12.019  67.873  1.00  0.00    -0.124 C  
HETATM   12  N   UNL     1      -7.239  13.089  67.045  1.00  0.00    -0.351 N  
HETATM   13  O   UNL     1      -8.118  12.102  68.960  1.00  0.00     0.061 OA 
HETATM   14  H   UNL     1      -6.903  12.856  66.110  1.00  0.00     0.000 HD 
BRANCH  12  15
HETATM   15  C   UNL     1      -7.337  14.465  67.351  1.00  0.00    -0.142 A  
HETATM   16  C   UNL     1      -8.422  15.267  66.930  1.00  0.00    -0.286 A  
HETATM   17  C   UNL     1      -9.587  14.791  66.108  1.00  0.00    -0.338 C  
HETATM   18  C   UNL     1      -8.479  16.617  67.332  1.00  0.00    -0.204 A  
HETATM   19  C   UNL     1      -7.509  17.163  68.168  1.00  0.00    -0.205 A  
HETATM   20  C   UNL     1      -6.448  16.375  68.591  1.00  0.00    -0.135 A  
HETATM   21  C   UNL     1      -6.349  15.031  68.196  1.00  0.00    -0.140 A  
HETATM   22  C   UNL     1      -5.125  14.263  68.636  1.00  0.00    -0.095 C  
ENDBRANCH  12  15
ENDBRANCH  10  11
ENDBRANCH   4   5
ENDBRANCH   3   4
ENDBRANCH   2   3
TORSDOF 5
ENDMDL
MODEL      253
REMARK 921   NORMALIZED FREE ENERGY PREDICTED BY IDOCK:   -1.85 KCAL/MOL
REMARK 922        TOTAL FREE ENERGY PREDICTED BY IDOCK:   -3.34 KCAL/MOL
REMARK 923 INTER-LIGAND FREE ENERGY PREDICTED BY IDOCK:   -2.61 KCAL/MOL
REMARK 924 INTRA-LIGAND FREE ENERGY PREDICTED BY IDOCK:   -0.72 KCAL/MOL
REMARK 927      BINDING AFFINITY PREDICTED BY RF-SCORE:    0.00 PKD
ROOT
HETATM    1  C   UNL     1      -9.002   5.221  69.383  1.00  0.00    -0.124 C  
HETATM    2  C   UNL     1     -10.179   5.867  68.665  1.00  0.00    -0.243 C  
ENDROOT
BRANCH   2   3
HETATM    3  C   UNL     1      -9.935   7.354  68.411  1.00  0.00    -0.177 C  
BRANCH   3   4
HETATM    4  C   UNL     1      -8.443   7.689  68.243  1.00  0.00    -0.125 C  
BRANCH   4   5
HETATM    5  N   UNL     1      -8.000   8.903  68.969  1.00  0.00    -0.104 NA 
HETATM    6  C   UNL     1      -7.528   8.595  70.333  1.00  0.00    -0.069 C  
HETATM    7  C   UNL     1      -6.243   7.764  70.367  1.00  0.00    -0.037 C  
HETATM    8  C   UNL     1      -5.130   8.420  69.553  1.00  0.00    -0.030 C  
HETATM    9  C   UNL     1      -5.603   8.848  68.164  1.00  0.00    -0.038 C  
HETATM   10  C   UNL     1      -6.911   9.648  68.257  1.00  0.00    -0.069 C  
BRANCH  10  11
HETATM   11  C   UNL     1      -7.383  10.211  66.894  1.00  0.00    -0.092 C  
HETATM   12  N   UNL     1      -8.632  10.810  66.975  1.00  0.00    -0.129 N  
HETATM   13  O   UNL     1      -6.663  10.198  65.897  1.00  0.00    -0.092 OA 
HETATM   14  H   UNL     1      -9.046  10.871  67.906  1.00  0.00     0.000 HD 
BRANCH  12  15
HETATM   15  C   UNL     1      -9.396  11.346  65.913  1.00  0.00    -0.228 A  
HETATM   16  C   UNL     1      -9.546  12.735  65.704  1.00  0.00    -0.054 A  
HETATM   17  C   UNL     1      -8.946  13.813  66.563  1.00  0.00    -0.080 C  
HETATM   18  C   UNL     1     -10.270  13.190  64.584  1.00  0.00    -0.327 A  
HETATM   19  C   UNL     1     -10.804  12.298  63.658  1.00  0.00    -0.522 A  
HETATM   20  C   UNL     1     -10.649  10.933  63.855  1.00  0.00    -0.285 A  
HETATM   21  C   UNL     1      -9.949  10.443  64.970  1.00  0.00    -0.399 A  
HETATM   22  C   UNL     1      -9.891   8.945  65.154  1.00  0.00     0.613 C  
ENDBRANCH  12  15
ENDBRANCH  10  11
ENDBRANCH   4   5
ENDBRANCH   3   4
ENDBRANCH   2   3
TORSDOF 5
ENDMDL
MODEL      254
REMARK 921   NORMALIZED FREE ENERGY PREDICTED BY IDOCK:   -1.68 KCAL/MOL
REMARK 922        TOTAL FREE ENERGY PREDICTED BY IDOCK:   -3.12 KCAL/MOL
REMARK 923 INTER-LIGAND FREE ENERGY PREDICTED BY IDOCK:   -3.98 KCAL/MOL
REMARK 924 INTRA-LIGAND FREE ENERGY PREDICTED BY IDOCK:    0.86 KCAL/MOL
REMARK 927      BINDING AFFINITY PREDICTED BY RF-SCORE:    0.00 PKD
ROOT
HETATM    1  C   UNL     1      -9.100   9.791  67.082  1.00  0.00    -0.152 C  
HETATM    2  C   UNL     1     -10.221   8.763  67.026  1.00  0.00    -0.351 C  
ENDROOT
BRANCH   2   3
HETATM    3  C   UNL     1      -9.688   7.366  66.714  1.00  0.00    -0.271 C  
BRANCH   3   4
HETATM    4  C   UNL     1     -10.792   6.294  66.726  1.00  0.00    -0.296 C  
BRANCH   4   5
HETATM    5  N   UNL     1     -10.302   4.909  66.921  1.00  0.00    -0.214 NA 
HETATM    6  C   UNL     1     -10.266   4.148  65.657  1.00  0.00    -0.139 C  
HETATM    7  C   UNL     1      -9.236   4.671  64.653  1.00  0.00    -0.119 C  
HETATM    8  C   UNL     1      -7.841   4.748  65.270  1.00  0.00    -0.091 C  
HETATM    9  C   UNL     1      -7.847   5.441  66.633  1.00  0.00    -0.101 C  
HETATM   10  C   UNL     1      -8.937   4.851  67.538  1.00  0.00    -0.108 C  
BRANCH  10  11
HETATM   11  C   UNL     1      -8.921   5.430  68.974  1.00  0.00    -0.107 C  
HETATM   12  N   UNL     1     -10.044   5.064  69.704  1.00  0.00    -0.241 N  
HETATM   13  O   UNL     1      -7.959   6.056  69.415  1.00  0.00    -0.100 OA 
HETATM   14  H   UNL     1     -10.690   4.420  69.248  1.00  0.00     0.000 HD 
BRANCH  12  15
HETATM   15  C   UNL     1     -10.392   5.485  71.008  1.00  0.00    -0.239 A  
HETATM   16  C   UNL     1     -10.060   4.744  72.164  1.00  0.00    -0.252 A  
HETATM   17  C   UNL     1      -9.323   3.433  72.175  1.00  0.00    -0.180 C  
HETATM   18  C   UNL     1     -10.386   5.263  73.433  1.00  0.00    -0.242 A  
HETATM   19  C   UNL     1     -10.992   6.509  73.570  1.00  0.00    -0.104 A  
HETATM   20  C   UNL     1     -11.309   7.243  72.436  1.00  0.00    -0.324 A  
HETATM   21  C   UNL     1     -11.016   6.749  71.154  1.00  0.00    -0.298 A  
HETATM   22  C   UNL     1     -11.463   7.573  69.970  1.00  0.00    -0.049 C  
ENDBRANCH  12  15
ENDBRANCH  10  11
ENDBRANCH   4   5
ENDBRANCH   3   4
ENDBRANCH   2   3
TORSDOF 5
ENDMDL
MODEL      255
REMARK 921   NORMALIZED FREE ENERGY PREDICTED BY IDOCK:   -1.62 KCAL/MOL
REMARK 922        TOTAL FREE ENERGY PREDICTED BY IDOCK:   -3.04 KCAL/MOL
REMARK 923 INTER-LIGAND FREE ENERGY PREDICTED BY IDOCK:   -2.55 KCAL/MOL
REMARK 924 INTRA-LIGAND FREE ENERGY PREDICTED BY IDOCK:   -0.49 KCAL/MOL
REMARK 927      BINDING AFFINITY PREDICTED BY RF-SCORE:    0.00 PKD
ROOT
HETATM    1  C   UNL     1      -8.107   7.350  71.957  1.00  0.00    -0.101 C  
HETATM    2  C   UNL     1      -8.550   8.701  71.412  1.00  0.00    -0.247 C  
ENDROOT
BRANCH   2   3
HETATM    3  C   UNL     1      -7.391   9.452  70.758  1.00  0.00    -0.126 C  
BRANCH   3   4
HETATM    4  C   UNL     1      -7.373   9.294  69.227  1.00  0.00    -0.070 C  
BRANCH   4   5
HETATM    5  N   UNL     1      -8.714   9.272  68.595  1.00  0.00    -0.131 NA 
HETATM    6  C   UNL     1      -9.295  10.622  68.475  1.00  0.00    -0.170 C  
HETATM    7  C   UNL     1      -8.542  11.532  67.501  1.00  0.00    -0.143 C  
HETATM    8  C   UNL     1      -8.403  10.886  66.124  1.00  0.00    -0.168 C  
HETATM    9  C   UNL     1      -7.899   9.445  66.208  1.00  0.00    -0.100 C  
HETATM   10  C   UNL     1      -8.712   8.643  67.234  1.00  0.00    -0.129 C  
BRANCH  10  11
HETATM   11  C   UNL     1      -8.326   7.144  67.284  1.00  0.00    -0.119 C  
HETATM   12  N   UNL     1      -8.200   6.589  66.019  1.00  0.00    -0.121 N  
HETATM   13  O   UNL     1      -8.072   6.570  68.342  1.00  0.00    -0.109 OA 
HETATM   14  H   UNL     1      -8.301   7.229  65.231  1.00  0.00     0.000 HD 
BRANCH  12  15
HETATM   15  C   UNL     1      -7.946   5.236  65.698  1.00  0.00    -0.106 A  
HETATM   16  C   UNL     1      -6.641   4.725  65.516  1.00  0.00    -0.041 A  
HETATM   17  C   UNL     1      -5.372   5.525  65.618  1.00  0.00    -0.013 C  
HETATM   18  C   UNL     1      -6.469   3.349  65.262  1.00  0.00    -0.035 A  
HETATM   19  C   UNL     1      -7.555   2.479  65.229  1.00  0.00    -0.076 A  
HETATM   20  C   UNL     1      -8.836   2.976  65.419  1.00  0.00    -0.135 A  
HETATM   21  C   UNL     1      -9.048   4.345  65.656  1.00  0.00    -0.137 A  
HETATM   22  C   UNL     1     -10.477   4.819  65.775  1.00  0.00    -0.275 C  
ENDBRANCH  12  15
ENDBRANCH  10  11
ENDBRANCH   4   5
ENDBRANCH   3   4
ENDBRANCH   2   3
TORSDOF 5
ENDMDL
MODEL      256
REMARK 921   NORMALIZED FREE ENERGY PREDICTED BY IDOCK:   -1.43 KCAL/MOL
REMARK 922        TOTAL FREE ENERGY PREDICTED BY IDOCK:   -2.79 KCAL/MOL
REMARK 923 INTER-LIGAND FREE ENERGY PREDICTED BY IDOCK:   -2.24 KCAL/MOL
REMARK 924 INTRA-LIGAND FREE ENERGY PREDICTED BY IDOCK:   -0.55 KCAL/MOL
REMARK 927      BINDING AFFINITY PREDICTED BY RF-SCORE:    0.00 PKD
ROOT
HETATM    1  C   UNL     1     -12.519  12.727  66.408  1.00  0.00     0.171 C  
HETATM    2  C   UNL     1     -11.517  11.782  65.759  1.00  0.00    -0.258 C  
ENDROOT
BRANCH   2   3
HETATM    3  C   UNL     1     -10.317  11.524  66.667  1.00  0.00    -0.262 C  
BRANCH   3   4
HETATM    4  C   UNL     1      -9.172  10.793  65.942  1.00  0.00    -0.190 C  
BRANCH   4   5
HETATM    5  N   UNL     1      -8.090  10.311  66.833  1.00  0.00    -0.118 NA 
HETATM    6  C   UNL     1      -7.505   9.041  66.362  1.00  0.00    -0.092 C  
HETATM    7  C   UNL     1      -6.745   9.167  65.039  1.00  0.00    -0.073 C  
HETATM    8  C   UNL     1      -5.674  10.254  65.109  1.00  0.00    -0.124 C  
HETATM    9  C   UNL     1      -6.213  11.562  65.689  1.00  0.00     0.838 C  
HETATM   10  C   UNL     1      -6.978  11.303  66.995  1.00  0.00    -0.126 C  
BRANCH  10  11
HETATM   11  C   UNL     1      -7.451  12.601  67.695  1.00  0.00    -0.143 C  
HETATM   12  N   UNL     1      -7.044  13.744  67.020  1.00  0.00    -0.142 N  
HETATM   13  O   UNL     1      -8.187  12.581  68.679  1.00  0.00    -0.107 OA 
HETATM   14  H   UNL     1      -6.558  13.598  66.134  1.00  0.00     0.000 HD 
BRANCH  12  15
HETATM   15  C   UNL     1      -7.225  15.086  67.422  1.00  0.00    -0.194 A  
HETATM   16  C   UNL     1      -6.342  15.745  68.307  1.00  0.00    -0.120 A  
HETATM   17  C   UNL     1      -5.127  15.129  68.942  1.00  0.00    -0.096 C  
HETATM   18  C   UNL     1      -6.556  17.106  68.608  1.00  0.00    -0.180 A  
HETATM   19  C   UNL     1      -7.594  17.822  68.019  1.00  0.00    -0.236 A  
HETATM   20  C   UNL     1      -8.456  17.179  67.141  1.00  0.00    -0.219 A  
HETATM   21  C   UNL     1      -8.285  15.820  66.832  1.00  0.00    -0.288 A  
HETATM   22  C   UNL     1      -9.310  15.176  65.929  1.00  0.00    -0.279 C  
ENDBRANCH  12  15
ENDBRANCH  10  11
ENDBRANCH   4   5
ENDBRANCH   3   4
ENDBRANCH   2   3
TORSDOF 5
ENDMDL
MODEL      257
REMARK 921   NORMALIZED FREE ENERGY PREDICTED BY IDOCK:   -1.18 KCAL/MOL
REMARK 922        TOTAL FREE ENERGY PREDICTED BY IDOCK:   -2.48 KCAL/MOL
REMARK 923 INTER-LIGAND FREE ENERGY PREDICTED BY IDOCK:   -3.27 KCAL/MOL
REMARK 924 INTRA-LIGAND FREE ENERGY PREDICTED BY IDOCK:    0.79 KCAL/MOL
REMARK 927      BINDING AFFINITY PREDICTED BY RF-SCORE:    0.00 PKD
ROOT
HETATM    1  C   UNL     1     -12.796  14.971  65.060  1.00  0.00     0.422 C  
HETATM    2  C   UNL     1     -12.563  13.866  64.039  1.00  0.00    -0.107 C  
ENDROOT
BRANCH   2   3
HETATM    3  C   UNL     1     -12.570  12.485  64.691  1.00  0.00    -0.507 C  
BRANCH   3   4
HETATM    4  C   UNL     1     -11.269  11.703  64.436  1.00  0.00    -0.291 C  
BRANCH   4   5
HETATM    5  N   UNL     1     -10.197  11.953  65.429  1.00  0.00    -0.254 NA 
HETATM    6  C   UNL     1     -10.628  12.880  66.493  1.00  0.00    -0.259 C  
HETATM    7  C   UNL     1     -11.724  12.311  67.399  1.00  0.00    -0.405 C  
HETATM    8  C   UNL     1     -11.314  10.967  67.997  1.00  0.00    -0.382 C  
HETATM    9  C   UNL     1     -10.763  10.007  66.942  1.00  0.00    -0.211 C  
HETATM   10  C   UNL     1      -9.697  10.698  66.081  1.00  0.00    -0.205 C  
BRANCH  10  11
HETATM   11  C   UNL     1      -9.016   9.746  65.067  1.00  0.00    -0.207 C  
HETATM   12  N   UNL     1      -8.033   8.964  65.656  1.00  0.00    -0.095 N  
HETATM   13  O   UNL     1      -9.398   9.651  63.902  1.00  0.00    -0.222 OA 
HETATM   14  H   UNL     1      -7.927   9.053  66.667  1.00  0.00     0.000 HD 
BRANCH  12  15
HETATM   15  C   UNL     1      -7.161   8.056  65.013  1.00  0.00    -0.067 A  
HETATM   16  C   UNL     1      -5.975   8.466  64.362  1.00  0.00    -0.065 A  
HETATM   17  C   UNL     1      -5.492   9.885  64.249  1.00  0.00    -0.085 C  
HETATM   18  C   UNL     1      -5.125   7.493  63.800  1.00  0.00    -0.033 A  
HETATM   19  C   UNL     1      -5.410   6.134  63.910  1.00  0.00    -0.018 A  
HETATM   20  C   UNL     1      -6.568   5.729  64.558  1.00  0.00    -0.045 A  
HETATM   21  C   UNL     1      -7.448   6.672  65.114  1.00  0.00    -0.087 A  
HETATM   22  C   UNL     1      -8.724   6.154  65.735  1.00  0.00    -0.151 C  
ENDBRANCH  12  15
ENDBRANCH  10  11
ENDBRANCH   4   5
ENDBRANCH   3   4
ENDBRANCH   2   3
TORSDOF 5
ENDMDL
MODEL      258
REMARK 921   NORMALIZED FREE ENERGY PREDICTED BY IDOCK:   -0.02 KCAL/MOL
REMARK 922        TOTAL FREE ENERGY PREDICTED BY IDOCK:   -0.97 KCAL/MOL
REMARK 923 INTER-LIGAND FREE ENERGY PREDICTED BY IDOCK:   -2.26 KCAL/MOL
REMARK 924 INTRA-LIGAND FREE ENERGY PREDICTED BY IDOCK:    1.29 KCAL/MOL
REMARK 927      BINDING AFFINITY PREDICTED BY RF-SCORE:    0.00 PKD
ROOT
HETATM    1  C   UNL     1      -6.953  10.904  62.391  1.00  0.00    -0.043 C  
HETATM    2  C   UNL     1      -8.311  10.767  63.066  1.00  0.00    -0.086 C  
ENDROOT
BRANCH   2   3
HETATM    3  C   UNL     1      -8.199  10.881  64.585  1.00  0.00     0.171 C  
BRANCH   3   4
HETATM    4  C   UNL     1      -7.329   9.770  65.199  1.00  0.00    -0.122 C  
BRANCH   4   5
HETATM    5  N   UNL     1      -7.091   9.910  66.655  1.00  0.00    -0.085 NA 
HETATM    6  C   UNL     1      -7.202  11.311  67.105  1.00  0.00    -0.126 C  
HETATM    7  C   UNL     1      -8.618  11.883  66.996  1.00  0.00    -0.176 C  
HETATM    8  C   UNL     1      -9.634  11.007  67.726  1.00  0.00    -0.180 C  
HETATM    9  C   UNL     1      -9.488   9.528  67.366  1.00  0.00    -0.164 C  
HETATM   10  C   UNL     1      -8.024   9.081  67.486  1.00  0.00    -0.101 C  
BRANCH  10  11
HETATM   11  C   UNL     1      -7.826   7.564  67.246  1.00  0.00    -0.118 C  
HETATM   12  N   UNL     1      -8.827   6.801  67.831  1.00  0.00    -0.119 N  
HETATM   13  O   UNL     1      -6.926   7.128  66.531  1.00  0.00    -0.072 OA 
HETATM   14  H   UNL     1      -9.589   7.317  68.273  1.00  0.00     0.000 HD 
BRANCH  12  15
HETATM   15  C   UNL     1      -8.911   5.391  67.883  1.00  0.00    -0.105 A  
HETATM   16  C   UNL     1      -8.765   4.661  69.084  1.00  0.00    -0.112 A  
HETATM   17  C   UNL     1      -8.494   5.257  70.437  1.00  0.00    -0.116 C  
HETATM   18  C   UNL     1      -8.927   3.261  69.064  1.00  0.00    -0.187 A  
HETATM   19  C   UNL     1      -9.267   2.590  67.892  1.00  0.00    -0.250 A  
HETATM   20  C   UNL     1      -9.421   3.307  66.714  1.00  0.00    -0.132 A  
HETATM   21  C   UNL     1      -9.250   4.701  66.693  1.00  0.00    -0.130 A  
HETATM   22  C   UNL     1      -9.358   5.396  65.357  1.00  0.00    -0.003 C  
ENDBRANCH  12  15
ENDBRANCH  10  11
ENDBRANCH   4   5
ENDBRANCH   3   4
ENDBRANCH   2   3
TORSDOF 5
ENDMDL
MODEL      259
REMARK 921   NORMALIZED FREE ENERGY PREDICTED BY IDOCK:    0.09 KCAL/MOL
REMARK 922        TOTAL FREE ENERGY PREDICTED BY IDOCK:   -0.83 KCAL/MOL
REMARK 923 INTER-LIGAND FREE ENERGY PREDICTED BY IDOCK:   -2.02 KCAL/MOL
REMARK 924 INTRA-LIGAND FREE ENERGY PREDICTED BY IDOCK:    1.18 KCAL/MOL
REMARK 927      BINDING AFFINITY PREDICTED BY RF-SCORE:    0.00 PKD
ROOT
HETATM    1  C   UNL     1      -6.936  10.929  62.400  1.00  0.00    -0.043 C  
HETATM    2  C   UNL     1      -8.251  10.788  63.153  1.00  0.00    -0.017 C  
ENDROOT
BRANCH   2   3
HETATM    3  C   UNL     1      -8.053  10.920  64.662  1.00  0.00     0.230 C  
BRANCH   3   4
HETATM    4  C   UNL     1      -7.116   9.840  65.232  1.00  0.00    -0.119 C  
BRANCH   4   5
HETATM    5  N   UNL     1      -6.801   9.998  66.672  1.00  0.00    -0.080 NA 
HETATM    6  C   UNL     1      -6.943  11.395  67.123  1.00  0.00    -0.128 C  
HETATM    7  C   UNL     1      -8.385  11.908  67.094  1.00  0.00    -0.174 C  
HETATM    8  C   UNL     1      -9.321  10.995  67.883  1.00  0.00    -0.160 C  
HETATM    9  C   UNL     1      -9.136   9.522  67.520  1.00  0.00    -0.142 C  
HETATM   10  C   UNL     1      -7.650   9.135  67.556  1.00  0.00    -0.088 C  
BRANCH  10  11
HETATM   11  C   UNL     1      -7.404   7.626  67.310  1.00  0.00    -0.091 C  
HETATM   12  N   UNL     1      -8.207   7.118  66.299  1.00  0.00    -0.117 N  
HETATM   13  O   UNL     1      -6.518   7.005  67.895  1.00  0.00    -0.046 OA 
HETATM   14  H   UNL     1      -8.794   7.791  65.805  1.00  0.00     0.000 HD 
BRANCH  12  15
HETATM   15  C   UNL     1      -8.304   5.773  65.876  1.00  0.00    -0.130 A  
HETATM   16  C   UNL     1      -9.470   4.996  66.058  1.00  0.00    -0.169 A  
HETATM   17  C   UNL     1     -10.735   5.469  66.720  1.00  0.00    -0.329 C  
HETATM   18  C   UNL     1      -9.510   3.682  65.550  1.00  0.00    -0.158 A  
HETATM   19  C   UNL     1      -8.439   3.150  64.838  1.00  0.00    -0.096 A  
HETATM   20  C   UNL     1      -7.296   3.914  64.649  1.00  0.00    -0.068 A  
HETATM   21  C   UNL     1      -7.213   5.221  65.157  1.00  0.00    -0.067 A  
HETATM   22  C   UNL     1      -5.908   5.958  64.976  1.00  0.00    -0.025 C  
ENDBRANCH  12  15
ENDBRANCH  10  11
ENDBRANCH   4   5
ENDBRANCH   3   4
ENDBRANCH   2   3
TORSDOF 5
ENDMDL
MODEL      260
REMARK 921   NORMALIZED FREE ENERGY PREDICTED BY IDOCK:    0.23 KCAL/MOL
REMARK 922        TOTAL FREE ENERGY PREDICTED BY IDOCK:   -0.65 KCAL/MOL
REMARK 923 INTER-LIGAND FREE ENERGY PREDICTED BY IDOCK:   -1.45 KCAL/MOL
REMARK 924 INTRA-LIGAND FREE ENERGY PREDICTED BY IDOCK:    0.80 KCAL/MOL
REMARK 927      BINDING AFFINITY PREDICTED BY RF-SCORE:    0.00 PKD
ROOT
HETATM    1  C   UNL     1      -8.163  19.254  69.822  1.00  0.00     0.579 C  
HETATM    2  C   UNL     1      -6.748  19.807  69.921  1.00  0.00    -0.273 C  
ENDROOT
BRANCH   2   3
HETATM    3  C   UNL     1      -5.701  18.700  69.808  1.00  0.00    -0.250 C  
BRANCH   3   4
HETATM    4  C   UNL     1      -6.313  17.293  69.929  1.00  0.00    -0.041 C  
BRANCH   4   5
HETATM    5  N   UNL     1      -5.727  16.288  69.010  1.00  0.00    -0.122 NA 
HETATM    6  C   UNL     1      -5.125  15.153  69.736  1.00  0.00    -0.091 C  
HETATM    7  C   UNL     1      -6.145  14.290  70.483  1.00  0.00    -0.180 C  
HETATM    8  C   UNL     1      -7.254  13.801  69.553  1.00  0.00     0.194 C  
HETATM    9  C   UNL     1      -7.839  14.930  68.705  1.00  0.00    -0.134 C  
HETATM   10  C   UNL     1      -6.721  15.739  68.031  1.00  0.00    -0.132 C  
BRANCH  10  11
HETATM   11  C   UNL     1      -7.250  16.827  67.065  1.00  0.00    -0.201 C  
HETATM   12  N   UNL     1      -8.435  17.397  67.509  1.00  0.00    -0.212 N  
HETATM   13  O   UNL     1      -6.614  17.188  66.076  1.00  0.00    -0.149 OA 
HETATM   14  H   UNL     1      -8.769  17.094  68.424  1.00  0.00     0.000 HD 
BRANCH  12  15
HETATM   15  C   UNL     1      -9.232  18.351  66.836  1.00  0.00    -0.287 A  
HETATM   16  C   UNL     1      -8.790  19.668  66.574  1.00  0.00    -0.410 A  
HETATM   17  C   UNL     1      -7.456  20.233  66.974  1.00  0.00    -0.334 C  
HETATM   18  C   UNL     1      -9.620  20.540  65.840  1.00  0.00     0.010 A  
HETATM   19  C   UNL     1     -10.845  20.116  65.333  1.00  0.00    -0.025 A  
HETATM   20  C   UNL     1     -11.276  18.820  65.580  1.00  0.00     0.720 A  
HETATM   21  C   UNL     1     -10.485  17.929  66.324  1.00  0.00    -0.320 A  
HETATM   22  C   UNL     1     -11.058  16.563  66.614  1.00  0.00     0.202 C  
ENDBRANCH  12  15
ENDBRANCH  10  11
ENDBRANCH   4   5
ENDBRANCH   3   4
ENDBRANCH   2   3
TORSDOF 5
ENDMDL
MODEL      261
REMARK 921   NORMALIZED FREE ENERGY PREDICTED BY IDOCK:    0.36 KCAL/MOL
REMARK 922        TOTAL FREE ENERGY PREDICTED BY IDOCK:   -0.48 KCAL/MOL
REMARK 923 INTER-LIGAND FREE ENERGY PREDICTED BY IDOCK:   -1.56 KCAL/MOL
REMARK 924 INTRA-LIGAND FREE ENERGY PREDICTED BY IDOCK:    1.08 KCAL/MOL
REMARK 927      BINDING AFFINITY PREDICTED BY RF-SCORE:    0.00 PKD
ROOT
HETATM    1  C   UNL     1      -7.914  13.274  68.266  1.00  0.00    -0.144 C  
HETATM    2  C   UNL     1      -9.356  12.987  67.873  1.00  0.00    -0.212 C  
ENDROOT
BRANCH   2   3
HETATM    3  C   UNL     1      -9.519  11.573  67.319  1.00  0.00    -0.176 C  
BRANCH   3   4
HETATM    4  C   UNL     1      -9.080  10.491  68.322  1.00  0.00    -0.146 C  
BRANCH   4   5
HETATM    5  N   UNL     1      -9.555  10.710  69.709  1.00  0.00     0.051 NA 
HETATM    6  C   UNL     1     -10.774  11.541  69.755  1.00  0.00     0.222 C  
HETATM    7  C   UNL     1     -12.003  10.866  69.142  1.00  0.00    -0.359 C  
HETATM    8  C   UNL     1     -12.265   9.499  69.772  1.00  0.00     0.562 C  
HETATM    9  C   UNL     1     -11.002   8.640  69.837  1.00  0.00    -0.169 C  
HETATM   10  C   UNL     1      -9.835   9.433  70.443  1.00  0.00    -0.259 C  
BRANCH  10  11
HETATM   11  C   UNL     1      -8.556   8.584  70.644  1.00  0.00    -0.148 C  
HETATM   12  N   UNL     1      -8.652   7.735  71.738  1.00  0.00    -0.112 N  
HETATM   13  O   UNL     1      -7.621   8.613  69.847  1.00  0.00    -0.067 OA 
HETATM   14  H   UNL     1      -9.551   7.719  72.222  1.00  0.00     0.000 HD 
BRANCH  12  15
HETATM   15  C   UNL     1      -7.646   6.891  72.258  1.00  0.00    -0.092 A  
HETATM   16  C   UNL     1      -6.529   7.382  72.971  1.00  0.00    -0.060 A  
HETATM   17  C   UNL     1      -6.249   8.831  73.258  1.00  0.00    -0.048 C  
HETATM   18  C   UNL     1      -5.602   6.469  73.514  1.00  0.00    -0.046 A  
HETATM   19  C   UNL     1      -5.788   5.094  73.397  1.00  0.00    -0.023 A  
HETATM   20  C   UNL     1      -6.890   4.610  72.707  1.00  0.00    -0.065 A  
HETATM   21  C   UNL     1      -7.824   5.489  72.136  1.00  0.00    -0.106 A  
HETATM   22  C   UNL     1      -8.953   4.884  71.336  1.00  0.00    -0.162 C  
ENDBRANCH  12  15
ENDBRANCH  10  11
ENDBRANCH   4   5
ENDBRANCH   3   4
ENDBRANCH   2   3
TORSDOF 5
ENDMDL
MODEL      262
REMARK 921   NORMALIZED FREE ENERGY PREDICTED BY IDOCK:    0.41 KCAL/MOL
REMARK 922        TOTAL FREE ENERGY PREDICTED BY IDOCK:   -0.41 KCAL/MOL
REMARK 923 INTER-LIGAND FREE ENERGY PREDICTED BY IDOCK:   -2.15 KCAL/MOL
REMARK 924 INTRA-LIGAND FREE ENERGY PREDICTED BY IDOCK:    1.74 KCAL/MOL
REMARK 927      BINDING AFFINITY PREDICTED BY RF-SCORE:    0.00 PKD
ROOT
HETATM    1  C   UNL     1     -10.137  18.545  66.486  1.00  0.00    -0.425 C  
HETATM    2  C   UNL     1     -10.628  18.032  67.834  1.00  0.00    -0.387 C  
ENDROOT
BRANCH   2   3
HETATM    3  C   UNL     1     -10.757  16.510  67.843  1.00  0.00    -0.337 C  
BRANCH   3   4
HETATM    4  C   UNL     1     -10.743  15.906  66.428  1.00  0.00    -0.256 C  
BRANCH   4   5
HETATM    5  N   UNL     1     -11.178  14.490  66.360  1.00  0.00    -0.335 NA 
HETATM    6  C   UNL     1     -12.463  14.336  65.650  1.00  0.00    -0.417 C  
HETATM    7  C   UNL     1     -12.387  14.678  64.160  1.00  0.00    -0.294 C  
HETATM    8  C   UNL     1     -11.290  13.881  63.457  1.00  0.00     0.598 C  
HETATM    9  C   UNL     1      -9.963  13.929  64.215  1.00  0.00     0.813 C  
HETATM   10  C   UNL     1     -10.172  13.597  65.699  1.00  0.00    -0.304 C  
BRANCH  10  11
HETATM   11  C   UNL     1      -8.849  13.516  66.501  1.00  0.00     0.027 C  
HETATM   12  N   UNL     1      -8.528  14.719  67.113  1.00  0.00    -0.212 N  
HETATM   13  O   UNL     1      -8.233  12.461  66.638  1.00  0.00    -0.085 OA 
HETATM   14  H   UNL     1      -9.214  15.470  67.026  1.00  0.00     0.000 HD 
BRANCH  12  15
HETATM   15  C   UNL     1      -7.357  15.022  67.844  1.00  0.00    -0.143 A  
HETATM   16  C   UNL     1      -6.552  16.150  67.566  1.00  0.00    -0.200 A  
HETATM   17  C   UNL     1      -6.808  17.153  66.476  1.00  0.00    -0.295 C  
HETATM   18  C   UNL     1      -5.436  16.419  68.384  1.00  0.00    -0.103 A  
HETATM   19  C   UNL     1      -5.135  15.619  69.483  1.00  0.00    -0.098 A  
HETATM   20  C   UNL     1      -5.931  14.517  69.764  1.00  0.00    -0.122 A  
HETATM   21  C   UNL     1      -7.040  14.207  68.961  1.00  0.00    -0.111 A  
HETATM   22  C   UNL     1      -7.808  12.949  69.288  1.00  0.00     0.538 C  
ENDBRANCH  12  15
ENDBRANCH  10  11
ENDBRANCH   4   5
ENDBRANCH   3   4
ENDBRANCH   2   3
TORSDOF 5
ENDMDL
MODEL      263
REMARK 921   NORMALIZED FREE ENERGY PREDICTED BY IDOCK:    0.62 KCAL/MOL
REMARK 922        TOTAL FREE ENERGY PREDICTED BY IDOCK:   -0.14 KCAL/MOL
REMARK 923 INTER-LIGAND FREE ENERGY PREDICTED BY IDOCK:   -3.69 KCAL/MOL
REMARK 924 INTRA-LIGAND FREE ENERGY PREDICTED BY IDOCK:    3.55 KCAL/MOL
REMARK 927      BINDING AFFINITY PREDICTED BY RF-SCORE:    0.00 PKD
ROOT
HETATM    1  C   UNL     1     -12.239  14.660  64.137  1.00  0.00    -0.343 C  
HETATM    2  C   UNL     1     -11.038  14.330  65.013  1.00  0.00    -0.377 C  
ENDROOT
BRANCH   2   3
HETATM    3  C   UNL     1     -11.278  13.074  65.848  1.00  0.00    -0.315 C  
BRANCH   3   4
HETATM    4  C   UNL     1     -10.205  12.870  66.932  1.00  0.00    -0.242 C  
BRANCH   4   5
HETATM    5  N   UNL     1      -9.920  11.452  67.255  1.00  0.00    -0.192 NA 
HETATM    6  C   UNL     1     -10.737  10.522  66.450  1.00  0.00    -0.096 C  
HETATM    7  C   UNL     1     -10.401  10.543  64.957  1.00  0.00    -0.310 C  
HETATM    8  C   UNL     1      -8.914  10.295  64.713  1.00  0.00    -0.232 C  
HETATM    9  C   UNL     1      -8.027  11.166  65.602  1.00  0.00     0.122 C  
HETATM   10  C   UNL     1      -8.479  11.085  67.067  1.00  0.00    -0.141 C  
BRANCH  10  11
HETATM   11  C   UNL     1      -7.550  11.855  68.038  1.00  0.00    -0.122 C  
HETATM   12  N   UNL     1      -7.890  13.197  68.140  1.00  0.00    -0.134 N  
HETATM   13  O   UNL     1      -6.684  11.288  68.701  1.00  0.00    -0.062 OA 
HETATM   14  H   UNL     1      -8.726  13.493  67.637  1.00  0.00     0.000 HD 
BRANCH  12  15
HETATM   15  C   UNL     1      -7.206  14.201  68.863  1.00  0.00    -0.118 A  
HETATM   16  C   UNL     1      -6.235  13.908  69.847  1.00  0.00    -0.136 A  
HETATM   17  C   UNL     1      -5.811  12.527  70.266  1.00  0.00    -0.159 C  
HETATM   18  C   UNL     1      -5.551  14.966  70.478  1.00  0.00    -0.142 A  
HETATM   19  C   UNL     1      -5.784  16.292  70.122  1.00  0.00    -0.178 A  
HETATM   20  C   UNL     1      -6.730  16.582  69.148  1.00  0.00    -0.213 A  
HETATM   21  C   UNL     1      -7.444  15.554  68.511  1.00  0.00    -0.118 A  
HETATM   22  C   UNL     1      -8.509  15.956  67.519  1.00  0.00    -0.181 C  
ENDBRANCH  12  15
ENDBRANCH  10  11
ENDBRANCH   4   5
ENDBRANCH   3   4
ENDBRANCH   2   3
TORSDOF 5
ENDMDL
MODEL      264
REMARK 921   NORMALIZED FREE ENERGY PREDICTED BY IDOCK:    1.93 KCAL/MOL
REMARK 922        TOTAL FREE ENERGY PREDICTED BY IDOCK:    1.55 KCAL/MOL
REMARK 923 INTER-LIGAND FREE ENERGY PREDICTED BY IDOCK:    0.47 KCAL/MOL
REMARK 924 INTRA-LIGAND FREE ENERGY PREDICTED BY IDOCK:    1.09 KCAL/MOL
REMARK 927      BINDING AFFINITY PREDICTED BY RF-SCORE:    0.00 PKD
ROOT
HETATM    1  C   UNL     1      -9.576  12.238  69.133  1.00  0.00     0.483 C  
HETATM    2  C   UNL     1      -8.754  10.970  68.944  1.00  0.00    -0.122 C  
ENDROOT
BRANCH   2   3
HETATM    3  C   UNL     1      -8.593  10.618  67.466  1.00  0.00    -0.122 C  
BRANCH   3   4
HETATM    4  C   UNL     1      -9.373  11.571  66.543  1.00  0.00    -0.197 C  
BRANCH   4   5
HETATM    5  N   UNL     1      -8.545  12.242  65.513  1.00  0.00     0.687 NA 
HETATM    6  C   UNL     1      -8.063  11.300  64.484  1.00  0.00     0.744 C  
HETATM    7  C   UNL     1      -9.178  10.717  63.612  1.00  0.00    -0.268 C  
HETATM    8  C   UNL     1     -10.022  11.817  62.973  1.00  0.00    -0.272 C  
HETATM    9  C   UNL     1     -10.461  12.874  63.987  1.00  0.00    -0.395 C  
HETATM   10  C   UNL     1      -9.265  13.360  64.818  1.00  0.00     1.407 C  
BRANCH  10  11
HETATM   11  C   UNL     1      -9.620  14.515  65.786  1.00  0.00    -0.207 C  
HETATM   12  N   UNL     1      -8.894  15.668  65.521  1.00  0.00     0.082 N  
HETATM   13  O   UNL     1     -10.519  14.416  66.619  1.00  0.00    -0.269 OA 
HETATM   14  H   UNL     1      -8.285  15.642  64.702  1.00  0.00     0.000 HD 
BRANCH  12  15
HETATM   15  C   UNL     1      -8.903  16.875  66.257  1.00  0.00    -0.279 A  
HETATM   16  C   UNL     1      -7.720  17.530  66.665  1.00  0.00    -0.289 A  
HETATM   17  C   UNL     1      -6.321  17.047  66.397  1.00  0.00    -0.149 C  
HETATM   18  C   UNL     1      -7.813  18.764  67.340  1.00  0.00    -0.245 A  
HETATM   19  C   UNL     1      -9.045  19.368  67.575  1.00  0.00    -0.363 A  
HETATM   20  C   UNL     1     -10.208  18.731  67.166  1.00  0.00    -0.433 A  
HETATM   21  C   UNL     1     -10.155  17.492  66.507  1.00  0.00    -0.331 A  
HETATM   22  C   UNL     1     -11.467  16.828  66.163  1.00  0.00     1.005 C  
ENDBRANCH  12  15
ENDBRANCH  10  11
ENDBRANCH   4   5
ENDBRANCH   3   4
ENDBRANCH   2   3
TORSDOF 5
ENDMDL
MODEL      265
REMARK 921   NORMALIZED FREE ENERGY PREDICTED BY IDOCK:    2.34 KCAL/MOL
REMARK 922        TOTAL FREE ENERGY PREDICTED BY IDOCK:    2.07 KCAL/MOL
REMARK 923 INTER-LIGAND FREE ENERGY PREDICTED BY IDOCK:   -2.27 KCAL/MOL
REMARK 924 INTRA-LIGAND FREE ENERGY PREDICTED BY IDOCK:    4.35 KCAL/MOL
REMARK 927      BINDING AFFINITY PREDICTED BY RF-SCORE:    0.00 PKD
ROOT
HETATM    1  C   UNL     1      -7.044  16.955  68.045  1.00  0.00    -0.163 C  
HETATM    2  C   UNL     1      -8.562  16.872  67.951  1.00  0.00    -0.208 C  
ENDROOT
BRANCH   2   3
HETATM    3  C   UNL     1      -9.007  15.818  66.939  1.00  0.00    -0.266 C  
BRANCH   3   4
HETATM    4  C   UNL     1      -8.005  14.656  66.815  1.00  0.00     0.208 C  
BRANCH   4   5
HETATM    5  N   UNL     1      -8.594  13.312  67.026  1.00  0.00    -0.193 NA 
HETATM    6  C   UNL     1      -7.905  12.273  66.236  1.00  0.00     0.601 C  
HETATM    7  C   UNL     1      -6.462  12.019  66.679  1.00  0.00     0.166 C  
HETATM    8  C   UNL     1      -6.381  11.697  68.170  1.00  0.00    -0.050 C  
HETATM    9  C   UNL     1      -7.168  12.694  69.021  1.00  0.00     0.009 C  
HETATM   10  C   UNL     1      -8.585  12.886  68.463  1.00  0.00    -0.042 C  
BRANCH  10  11
HETATM   11  C   UNL     1      -9.473  13.797  69.347  1.00  0.00     0.712 C  
HETATM   12  N   UNL     1     -10.709  13.225  69.619  1.00  0.00    -0.334 N  
HETATM   13  O   UNL     1      -9.060  14.855  69.817  1.00  0.00     0.013 OA 
HETATM   14  H   UNL     1     -10.854  12.275  69.277  1.00  0.00     0.000 HD 
BRANCH  12  15
HETATM   15  C   UNL     1     -11.788  13.812  70.317  1.00  0.00    -0.272 A  
HETATM   16  C   UNL     1     -12.792  13.049  70.955  1.00  0.00    -0.222 A  
HETATM   17  C   UNL     1     -12.864  11.547  70.971  1.00  0.00    -0.358 C  
HETATM   18  C   UNL     1     -13.801  13.709  71.686  1.00  0.00    -0.256 A  
HETATM   19  C   UNL     1     -13.803  15.094  71.826  1.00  0.00    -0.605 A  
HETATM   20  C   UNL     1     -12.812  15.845  71.209  1.00  0.00    -0.319 A  
HETATM   21  C   UNL     1     -11.802  15.223  70.457  1.00  0.00    -0.363 A  
HETATM   22  C   UNL     1     -10.806  16.115  69.755  1.00  0.00    -0.333 C  
ENDBRANCH  12  15
ENDBRANCH  10  11
ENDBRANCH   4   5
ENDBRANCH   3   4
ENDBRANCH   2   3
TORSDOF 5
ENDMDL
MODEL      266
REMARK 921   NORMALIZED FREE ENERGY PREDICTED BY IDOCK:    2.95 KCAL/MOL
REMARK 922        TOTAL FREE ENERGY PREDICTED BY IDOCK:    2.87 KCAL/MOL
REMARK 923 INTER-LIGAND FREE ENERGY PREDICTED BY IDOCK:    2.08 KCAL/MOL
REMARK 924 INTRA-LIGAND FREE ENERGY PREDICTED BY IDOCK:    0.79 KCAL/MOL
REMARK 927      BINDING AFFINITY PREDICTED BY RF-SCORE:    0.00 PKD
ROOT
HETATM    1  C   UNL     1      -8.923  19.153  69.760  1.00  0.00     0.672 C  
HETATM    2  C   UNL     1      -7.615  19.841  70.126  1.00  0.00     0.593 C  
ENDROOT
BRANCH   2   3
HETATM    3  C   UNL     1      -6.487  18.831  70.330  1.00  0.00     0.322 C  
BRANCH   3   4
HETATM    4  C   UNL     1      -6.964  17.374  70.197  1.00  0.00     1.072 C  
BRANCH   4   5
HETATM    5  N   UNL     1      -6.391  16.643  69.042  1.00  0.00    -0.171 NA 
HETATM    6  C   UNL     1      -5.152  15.924  69.397  1.00  0.00    -0.106 C  
HETATM    7  C   UNL     1      -5.370  14.770  70.379  1.00  0.00    -0.120 C  
HETATM    8  C   UNL     1      -6.427  13.793  69.869  1.00  0.00    -0.059 C  
HETATM    9  C   UNL     1      -7.694  14.504  69.394  1.00  0.00    -0.000 C  
HETATM   10  C   UNL     1      -7.345  15.656  68.440  1.00  0.00    -0.116 C  
BRANCH  10  11
HETATM   11  C   UNL     1      -8.591  16.345  67.831  1.00  0.00    -0.175 C  
HETATM   12  N   UNL     1      -8.253  17.365  66.952  1.00  0.00    -0.219 N  
HETATM   13  O   UNL     1      -9.732  15.942  68.048  1.00  0.00    -0.214 OA 
HETATM   14  H   UNL     1      -7.258  17.489  66.762  1.00  0.00     0.000 HD 
BRANCH  12  15
HETATM   15  C   UNL     1      -9.133  18.252  66.290  1.00  0.00    -0.190 A  
HETATM   16  C   UNL     1     -10.344  17.828  65.700  1.00  0.00    -0.098 A  
HETATM   17  C   UNL     1     -10.852  16.413  65.676  1.00  0.00    -0.185 C  
HETATM   18  C   UNL     1     -11.198  18.785  65.115  1.00  0.00     1.440 A  
HETATM   19  C   UNL     1     -10.890  20.143  65.145  1.00  0.00     0.277 A  
HETATM   20  C   UNL     1      -9.706  20.562  65.734  1.00  0.00     0.086 A  
HETATM   21  C   UNL     1      -8.822  19.635  66.310  1.00  0.00    -0.410 A  
HETATM   22  C   UNL     1      -7.519  20.164  66.862  1.00  0.00    -0.320 C  
ENDBRANCH  12  15
ENDBRANCH  10  11
ENDBRANCH   4   5
ENDBRANCH   3   4
ENDBRANCH   2   3
TORSDOF 5
ENDMDL
MODEL      267
REMARK 921   NORMALIZED FREE ENERGY PREDICTED BY IDOCK:    3.88 KCAL/MOL
REMARK 922        TOTAL FREE ENERGY PREDICTED BY IDOCK:    4.07 KCAL/MOL
REMARK 923 INTER-LIGAND FREE ENERGY PREDICTED BY IDOCK:    2.96 KCAL/MOL
REMARK 924 INTRA-LIGAND FREE ENERGY PREDICTED BY IDOCK:    1.11 KCAL/MOL
REMARK 927      BINDING AFFINITY PREDICTED BY RF-SCORE:    0.00 PKD
ROOT
HETATM    1  C   UNL     1      -6.763  11.312  62.557  1.00  0.00     0.388 C  
HETATM    2  C   UNL     1      -7.846  11.672  63.565  1.00  0.00     1.725 C  
ENDROOT
BRANCH   2   3
HETATM    3  C   UNL     1      -7.285  11.774  64.982  1.00  0.00     2.425 C  
BRANCH   3   4
HETATM    4  C   UNL     1      -6.578  10.483  65.433  1.00  0.00    -0.074 C  
BRANCH   4   5
HETATM    5  N   UNL     1      -5.879  10.588  66.735  1.00  0.00    -0.057 NA 
HETATM    6  C   UNL     1      -5.368  11.950  66.985  1.00  0.00    -0.112 C  
HETATM    7  C   UNL     1      -6.471  12.996  67.173  1.00  0.00     0.204 C  
HETATM    8  C   UNL     1      -7.452  12.585  68.269  1.00  0.00    -0.122 C  
HETATM    9  C   UNL     1      -7.930  11.142  68.107  1.00  0.00    -0.125 C  
HETATM   10  C   UNL     1      -6.740  10.194  67.898  1.00  0.00    -0.067 C  
BRANCH  10  11
HETATM   11  C   UNL     1      -7.148   8.701  67.842  1.00  0.00    -0.083 C  
HETATM   12  N   UNL     1      -8.427   8.522  67.335  1.00  0.00    -0.126 N  
HETATM   13  O   UNL     1      -6.363   7.799  68.129  1.00  0.00    -0.046 OA 
HETATM   14  H   UNL     1      -8.905   9.360  67.003  1.00  0.00     0.000 HD 
BRANCH  12  15
HETATM   15  C   UNL     1      -9.144   7.308  67.228  1.00  0.00    -0.123 A  
HETATM   16  C   UNL     1      -8.693   6.221  66.445  1.00  0.00    -0.137 A  
HETATM   17  C   UNL     1      -7.432   6.204  65.626  1.00  0.00    -0.082 C  
HETATM   18  C   UNL     1      -9.432   5.021  66.441  1.00  0.00    -0.157 A  
HETATM   19  C   UNL     1     -10.573   4.872  67.225  1.00  0.00    -0.001 A  
HETATM   20  C   UNL     1     -11.011   5.935  68.002  1.00  0.00    -0.252 A  
HETATM   21  C   UNL     1     -10.311   7.152  68.017  1.00  0.00    -0.238 A  
HETATM   22  C   UNL     1     -10.896   8.284  68.828  1.00  0.00     0.019 C  
ENDBRANCH  12  15
ENDBRANCH  10  11
ENDBRANCH   4   5
ENDBRANCH   3   4
ENDBRANCH   2   3
TORSDOF 5
ENDMDL
MODEL      268
REMARK 921   NORMALIZED FREE ENERGY PREDICTED BY IDOCK:   12.96 KCAL/MOL
REMARK 922        TOTAL FREE ENERGY PREDICTED BY IDOCK:   15.80 KCAL/MOL
REMARK 923 INTER-LIGAND FREE ENERGY PREDICTED BY IDOCK:    9.37 KCAL/MOL
REMARK 924 INTRA-LIGAND FREE ENERGY PREDICTED BY IDOCK:    6.42 KCAL/MOL
REMARK 927      BINDING AFFINITY PREDICTED BY RF-SCORE:    0.00 PKD
ROOT
HETATM    1  C   UNL     1     -12.663  15.562  63.089  1.00  0.00     2.924 C  
HETATM    2  C   UNL     1     -12.123  15.762  64.499  1.00  0.00     0.022 C  
ENDROOT
BRANCH   2   3
HETATM    3  C   UNL     1     -13.217  15.586  65.550  1.00  0.00     2.026 C  
BRANCH   3   4
HETATM    4  C   UNL     1     -12.663  15.123  66.909  1.00  0.00     1.490 C  
BRANCH   4   5
HETATM    5  N   UNL     1     -12.400  13.667  67.001  1.00  0.00    -0.312 NA 
HETATM    6  C   UNL     1     -13.145  12.901  65.983  1.00  0.00     1.302 C  
HETATM    7  C   UNL     1     -12.688  13.178  64.549  1.00  0.00    -0.270 C  
HETATM    8  C   UNL     1     -11.185  12.959  64.387  1.00  0.00    -0.389 C  
HETATM    9  C   UNL     1     -10.377  13.653  65.484  1.00  0.00    -0.319 C  
HETATM   10  C   UNL     1     -10.947  13.323  66.871  1.00  0.00    -0.283 C  
BRANCH  10  11
HETATM   11  C   UNL     1     -10.104  13.902  68.033  1.00  0.00    -0.244 C  
HETATM   12  N   UNL     1      -9.202  14.865  67.603  1.00  0.00    -0.185 N  
HETATM   13  O   UNL     1     -10.307  13.592  69.206  1.00  0.00     0.010 OA 
HETATM   14  H   UNL     1      -9.249  15.121  66.616  1.00  0.00     0.000 HD 
BRANCH  12  15
HETATM   15  C   UNL     1      -8.225  15.532  68.377  1.00  0.00    -0.145 A  
HETATM   16  C   UNL     1      -8.296  15.619  69.786  1.00  0.00     0.069 A  
HETATM   17  C   UNL     1      -9.394  15.047  70.639  1.00  0.00     1.391 C  
HETATM   18  C   UNL     1      -7.248  16.245  70.491  1.00  0.00     1.750 A  
HETATM   19  C   UNL     1      -6.127  16.741  69.831  1.00  0.00    -0.194 A  
HETATM   20  C   UNL     1      -6.051  16.646  68.448  1.00  0.00    -0.128 A  
HETATM   21  C   UNL     1      -7.085  16.046  67.711  1.00  0.00    -0.163 A  
HETATM   22  C   UNL     1      -6.961  16.051  66.206  1.00  0.00     1.023 C  
ENDBRANCH  12  15
ENDBRANCH  10  11
ENDBRANCH   4   5
ENDBRANCH   3   4
ENDBRANCH   2   3
TORSDOF 5
ENDMDL
MODEL      269
REMARK 921   NORMALIZED FREE ENERGY PREDICTED BY IDOCK:   14.70 KCAL/MOL
REMARK 922        TOTAL FREE ENERGY PREDICTED BY IDOCK:   18.05 KCAL/MOL
REMARK 923 INTER-LIGAND FREE ENERGY PREDICTED BY IDOCK:   16.24 KCAL/MOL
REMARK 924 INTRA-LIGAND FREE ENERGY PREDICTED BY IDOCK:    1.81 KCAL/MOL
REMARK 927      BINDING AFFINITY PREDICTED BY RF-SCORE:    0.00 PKD
ROOT
HETATM    1  C   UNL     1     -11.252   6.276  67.666  1.00  0.00    -0.225 C  
HETATM    2  C   UNL     1      -9.860   6.863  67.482  1.00  0.00    -0.173 C  
ENDROOT
BRANCH   2   3
HETATM    3  C   UNL     1      -8.976   6.609  68.702  1.00  0.00    -0.124 C  
BRANCH   3   4
HETATM    4  C   UNL     1      -9.750   5.972  69.871  1.00  0.00    -0.163 C  
BRANCH   4   5
HETATM    5  N   UNL     1     -10.083   6.909  70.970  1.00  0.00    -0.193 NA 
HETATM    6  C   UNL     1     -11.112   6.362  71.875  1.00  0.00    -0.268 C  
HETATM    7  C   UNL     1     -10.642   5.144  72.676  1.00  0.00    -0.280 C  
HETATM    8  C   UNL     1      -9.357   5.442  73.447  1.00  0.00    -0.134 C  
HETATM    9  C   UNL     1      -8.296   6.105  72.569  1.00  0.00    -0.115 C  
HETATM   10  C   UNL     1      -8.891   7.291  71.797  1.00  0.00    -0.116 C  
BRANCH  10  11
HETATM   11  C   UNL     1      -7.840   8.078  70.977  1.00  0.00    -0.090 C  
HETATM   12  N   UNL     1      -8.147   9.428  70.882  1.00  0.00    -0.128 N  
HETATM   13  O   UNL     1      -6.812   7.551  70.556  1.00  0.00    -0.046 OA 
HETATM   14  H   UNL     1      -8.963   9.745  71.407  1.00  0.00     0.000 HD 
BRANCH  12  15
HETATM   15  C   UNL     1      -7.457  10.414  70.141  1.00  0.00     0.021 A  
HETATM   16  C   UNL     1      -6.880  10.155  68.877  1.00  0.00    -0.054 A  
HETATM   17  C   UNL     1      -6.902   8.831  68.166  1.00  0.00    -0.069 C  
HETATM   18  C   UNL     1      -6.264  11.209  68.172  1.00  0.00    -0.049 A  
HETATM   19  C   UNL     1      -6.251  12.506  68.677  1.00  0.00    -0.069 A  
HETATM   20  C   UNL     1      -6.826  12.764  69.913  1.00  0.00     0.375 A  
HETATM   21  C   UNL     1      -7.432  11.736  70.653  1.00  0.00     3.448 A  
HETATM   22  C   UNL     1      -7.967  12.083  72.022  1.00  0.00    14.690 C  
ENDBRANCH  12  15
ENDBRANCH  10  11
ENDBRANCH   4   5
ENDBRANCH   3   4
ENDBRANCH   2   3
TORSDOF 5
ENDMDL
MODEL      270
REMARK 921   NORMALIZED FREE ENERGY PREDICTED BY IDOCK:   20.05 KCAL/MOL
REMARK 922        TOTAL FREE ENERGY PREDICTED BY IDOCK:   24.96 KCAL/MOL
REMARK 923 INTER-LIGAND FREE ENERGY PREDICTED BY IDOCK:   11.55 KCAL/MOL
REMARK 924 INTRA-LIGAND FREE ENERGY PREDICTED BY IDOCK:   13.41 KCAL/MOL
REMARK 927      BINDING AFFINITY PREDICTED BY RF-SCORE:    0.00 PKD
ROOT
HETATM    1  C   UNL     1     -12.747  15.788  62.924  1.00  0.00     4.980 C  
HETATM    2  C   UNL     1     -12.383  15.932  64.396  1.00  0.00     0.334 C  
ENDROOT
BRANCH   2   3
HETATM    3  C   UNL     1     -13.623  15.915  65.287  1.00  0.00     3.631 C  
BRANCH   3   4
HETATM    4  C   UNL     1     -13.504  14.914  66.449  1.00  0.00     3.160 C  
BRANCH   4   5
HETATM    5  N   UNL     1     -12.212  14.189  66.505  1.00  0.00    -0.457 NA 
HETATM    6  C   UNL     1     -11.531  14.163  65.196  1.00  0.00    -0.336 C  
HETATM    7  C   UNL     1     -11.060  15.540  64.720  1.00  0.00    -0.421 C  
HETATM    8  C   UNL     1     -10.181  16.224  65.765  1.00  0.00    -0.390 C  
HETATM    9  C   UNL     1     -10.803  16.184  67.161  1.00  0.00    -0.216 C  
HETATM   10  C   UNL     1     -11.261  14.762  67.513  1.00  0.00    -0.332 C  
BRANCH  10  11
HETATM   11  C   UNL     1     -11.795  14.630  68.960  1.00  0.00    -0.310 C  
HETATM   12  N   UNL     1     -11.791  15.842  69.637  1.00  0.00    -0.321 N  
HETATM   13  O   UNL     1     -12.256  13.575  69.393  1.00  0.00    -0.307 OA 
HETATM   14  H   UNL     1     -11.513  16.662  69.096  1.00  0.00     0.000 HD 
BRANCH  12  15
HETATM   15  C   UNL     1     -12.128  16.068  70.990  1.00  0.00    -0.331 A  
HETATM   16  C   UNL     1     -12.966  15.200  71.725  1.00  0.00    -0.449 A  
HETATM   17  C   UNL     1     -13.614  13.954  71.187  1.00  0.00    -0.140 C  
HETATM   18  C   UNL     1     -13.202  15.460  73.090  1.00  0.00    -0.636 A  
HETATM   19  C   UNL     1     -12.593  16.532  73.737  1.00  0.00    -0.431 A  
HETATM   20  C   UNL     1     -11.761  17.380  73.020  1.00  0.00     0.993 A  
HETATM   21  C   UNL     1     -11.518  17.163  71.654  1.00  0.00     1.077 A  
HETATM   22  C   UNL     1     -10.663  18.174  70.928  1.00  0.00     2.451 C  
ENDBRANCH  12  15
ENDBRANCH  10  11
ENDBRANCH   4   5
ENDBRANCH   3   4
ENDBRANCH   2   3
TORSDOF 5
ENDMDL
MODEL      271
REMARK 921   NORMALIZED FREE ENERGY PREDICTED BY IDOCK:   22.78 KCAL/MOL
REMARK 922        TOTAL FREE ENERGY PREDICTED BY IDOCK:   28.49 KCAL/MOL
REMARK 923 INTER-LIGAND FREE ENERGY PREDICTED BY IDOCK:   25.98 KCAL/MOL
REMARK 924 INTRA-LIGAND FREE ENERGY PREDICTED BY IDOCK:    2.51 KCAL/MOL
REMARK 927      BINDING AFFINITY PREDICTED BY RF-SCORE:    0.00 PKD
ROOT
HETATM    1  C   UNL     1      -6.658  11.716  62.549  1.00  0.00     1.079 C  
HETATM    2  C   UNL     1      -7.584  12.681  63.276  1.00  0.00     7.279 C  
ENDROOT
BRANCH   2   3
HETATM    3  C   UNL     1      -6.989  13.139  64.606  1.00  0.00    12.960 C  
BRANCH   3   4
HETATM    4  C   UNL     1      -6.528  11.963  65.484  1.00  0.00     2.261 C  
BRANCH   4   5
HETATM    5  N   UNL     1      -6.057  12.352  66.835  1.00  0.00    -0.220 NA 
HETATM    6  C   UNL     1      -5.414  13.680  66.839  1.00  0.00     1.485 C  
HETATM    7  C   UNL     1      -6.377  14.831  66.535  1.00  0.00     2.879 C  
HETATM    8  C   UNL     1      -7.581  14.818  67.476  1.00  0.00    -0.215 C  
HETATM    9  C   UNL     1      -8.218  13.432  67.582  1.00  0.00    -0.177 C  
HETATM   10  C   UNL     1      -7.152  12.362  67.859  1.00  0.00    -0.109 C  
BRANCH  10  11
HETATM   11  C   UNL     1      -7.746  10.951  68.092  1.00  0.00    -0.103 C  
HETATM   12  N   UNL     1      -7.295  10.028  67.159  1.00  0.00    -0.090 N  
HETATM   13  O   UNL     1      -8.455  10.694  69.062  1.00  0.00    -0.143 OA 
HETATM   14  H   UNL     1      -6.593  10.359  66.496  1.00  0.00     0.000 HD 
BRANCH  12  15
HETATM   15  C   UNL     1      -7.698   8.680  67.024  1.00  0.00    -0.095 A  
HETATM   16  C   UNL     1      -7.746   7.783  68.115  1.00  0.00    -0.119 A  
HETATM   17  C   UNL     1      -7.374   8.118  69.533  1.00  0.00    -0.081 C  
HETATM   18  C   UNL     1      -8.222   6.472  67.910  1.00  0.00    -0.116 A  
HETATM   19  C   UNL     1      -8.682   6.058  66.663  1.00  0.00    -0.123 A  
HETATM   20  C   UNL     1      -8.645   6.940  65.592  1.00  0.00    -0.119 A  
HETATM   21  C   UNL     1      -8.161   8.248  65.755  1.00  0.00    -0.109 A  
HETATM   22  C   UNL     1      -8.081   9.120  64.525  1.00  0.00    -0.139 C  
ENDBRANCH  12  15
ENDBRANCH  10  11
ENDBRANCH   4   5
ENDBRANCH   3   4
ENDBRANCH   2   3
TORSDOF 5
ENDMDL
MODEL      272
REMARK 921   NORMALIZED FREE ENERGY PREDICTED BY IDOCK:   29.76 KCAL/MOL
REMARK 922        TOTAL FREE ENERGY PREDICTED BY IDOCK:   37.51 KCAL/MOL
REMARK 923 INTER-LIGAND FREE ENERGY PREDICTED BY IDOCK:   -2.80 KCAL/MOL
REMARK 924 INTRA-LIGAND FREE ENERGY PREDICTED BY IDOCK:   40.31 KCAL/MOL
REMARK 927      BINDING AFFINITY PREDICTED BY RF-SCORE:    0.00 PKD
ROOT
HETATM    1  C   UNL     1     -10.099  10.429  68.888  1.00  0.00    -0.213 C  
HETATM    2  C   UNL     1     -10.571  11.228  67.681  1.00  0.00    -0.252 C  
ENDROOT
BRANCH   2   3
HETATM    3  C   UNL     1     -12.065  11.535  67.758  1.00  0.00     0.113 C  
BRANCH   3   4
HETATM    4  C   UNL     1     -12.606  11.488  69.198  1.00  0.00     0.460 C  
BRANCH   4   5
HETATM    5  N   UNL     1     -11.562  11.542  70.248  1.00  0.00    -0.274 NA 
HETATM    6  C   UNL     1     -11.732  10.480  71.258  1.00  0.00    -0.150 C  
HETATM    7  C   UNL     1     -11.507   9.068  70.711  1.00  0.00    -0.331 C  
HETATM    8  C   UNL     1     -10.146   8.942  70.029  1.00  0.00    -0.207 C  
HETATM    9  C   UNL     1      -9.883  10.082  69.045  1.00  0.00    -0.203 C  
HETATM   10  C   UNL     1     -10.170  11.442  69.698  1.00  0.00     0.409 C  
BRANCH  10  11
HETATM   11  C   UNL     1      -9.813  12.645  68.791  1.00  0.00     0.029 C  
HETATM   12  N   UNL     1     -10.384  13.829  69.236  1.00  0.00    -0.433 N  
HETATM   13  O   UNL     1      -9.030  12.542  67.849  1.00  0.00    -0.172 OA 
HETATM   14  H   UNL     1     -10.894  13.783  70.119  1.00  0.00     0.000 HD 
BRANCH  12  15
HETATM   15  C   UNL     1     -10.337  15.093  68.605  1.00  0.00    -0.232 A  
HETATM   16  C   UNL     1     -11.163  16.172  68.992  1.00  0.00    -0.347 A  
HETATM   17  C   UNL     1     -12.191  16.130  70.088  1.00  0.00     0.090 C  
HETATM   18  C   UNL     1     -11.010  17.420  68.355  1.00  0.00    -0.118 A  
HETATM   19  C   UNL     1     -10.034  17.621  67.383  1.00  0.00    -0.321 A  
HETATM   20  C   UNL     1      -9.215  16.565  67.009  1.00  0.00    -0.233 A  
HETATM   21  C   UNL     1      -9.350  15.302  67.608  1.00  0.00    -0.199 A  
HETATM   22  C   UNL     1      -8.473  14.187  67.091  1.00  0.00    -0.214 C  
ENDBRANCH  12  15
ENDBRANCH  10  11
ENDBRANCH   4   5
ENDBRANCH   3   4
ENDBRANCH   2   3
TORSDOF 5
ENDMDL
