MODEL        1
REMARK 921   NORMALIZED FREE ENERGY PREDICTED BY IDOCK:   -6.05 KCAL/MOL
REMARK 922        TOTAL FREE ENERGY PREDICTED BY IDOCK:   -7.04 KCAL/MOL
REMARK 923 INTER-LIGAND FREE ENERGY PREDICTED BY IDOCK:   -6.76 KCAL/MOL
REMARK 924 INTRA-LIGAND FREE ENERGY PREDICTED BY IDOCK:   -0.28 KCAL/MOL
REMARK 927      BINDING AFFINITY PREDICTED BY RF-SCORE:    0.00 PKD
ROOT
HETATM    1  C   UNL     1     -10.247  14.047  67.326  1.00  0.00    -0.260 C  
HETATM    2  C   UNL     1     -11.330  14.967  67.994  1.00  0.00    -0.324 C  
HETATM    3  C   UNL     1     -10.550  12.526  67.370  1.00  0.00    -0.242 C  
HETATM    4  O   UNL     1     -12.575  14.838  67.315  1.00  0.00    -0.379 OA 
HETATM    5  C   UNL     1     -11.560  14.563  69.486  1.00  0.00    -0.350 C  
HETATM    6  C   UNL     1     -11.425  11.969  66.240  1.00  0.00    -0.408 C  
HETATM    7  C   UNL     1     -10.910  16.452  67.948  1.00  0.00    -0.328 C  
HETATM    8  C   UNL     1      -9.819  14.444  65.890  1.00  0.00    -0.336 C  
HETATM    9  H   UNL     1     -13.231  15.394  67.720  1.00  0.00     0.000 HD 
HETATM   10  C   UNL     1     -11.237  12.628  64.903  1.00  0.00    -0.332 C  
HETATM   11  C   UNL     1     -11.870  11.962  63.715  1.00  0.00    -0.558 C  
HETATM   12  C   UNL     1     -10.508  13.745  64.762  1.00  0.00    -0.448 C  
ENDROOT
BRANCH   5  13
HETATM   13  C   UNL     1     -12.529  15.483  70.254  1.00  0.00    -0.403 C  
BRANCH  13  14
HETATM   14  C   UNL     1     -12.116  15.720  71.682  1.00  0.00    -0.522 C  
HETATM   15  C   UNL     1     -12.620  15.051  72.737  1.00  0.00    -0.484 C  
HETATM   16  C   UNL     1     -13.650  13.958  72.628  1.00  0.00    -0.626 C  
HETATM   17  C   UNL     1     -12.178  15.358  74.147  1.00  0.00    -0.759 C  
ENDBRANCH  13  14
ENDBRANCH   5  13
TORSDOF 2
ENDMDL
MODEL        2
REMARK 921   NORMALIZED FREE ENERGY PREDICTED BY IDOCK:   -5.58 KCAL/MOL
REMARK 922        TOTAL FREE ENERGY PREDICTED BY IDOCK:   -6.51 KCAL/MOL
REMARK 923 INTER-LIGAND FREE ENERGY PREDICTED BY IDOCK:   -6.27 KCAL/MOL
REMARK 924 INTRA-LIGAND FREE ENERGY PREDICTED BY IDOCK:   -0.24 KCAL/MOL
REMARK 927      BINDING AFFINITY PREDICTED BY RF-SCORE:    0.00 PKD
ROOT
HETATM    1  C   UNL     1     -10.791  12.287  68.721  1.00  0.00    -0.266 C  
HETATM    2  C   UNL     1     -11.645  11.281  69.571  1.00  0.00    -0.328 C  
HETATM    3  C   UNL     1      -9.988  11.655  67.554  1.00  0.00    -0.202 C  
HETATM    4  O   UNL     1     -12.638  10.665  68.758  1.00  0.00    -0.733 OA 
HETATM    5  C   UNL     1     -10.746  10.147  70.162  1.00  0.00    -0.355 C  
HETATM    6  C   UNL     1     -10.734  11.482  66.225  1.00  0.00    -0.321 C  
HETATM    7  C   UNL     1     -12.358  11.998  70.739  1.00  0.00    -0.403 C  
HETATM    8  C   UNL     1     -11.541  13.542  68.207  1.00  0.00    -0.381 C  
HETATM    9  H   UNL     1     -13.155  10.056  69.272  1.00  0.00     0.000 HD 
HETATM   10  C   UNL     1     -11.736  12.556  65.912  1.00  0.00    -0.480 C  
HETATM   11  C   UNL     1     -12.305  12.580  64.521  1.00  0.00    -0.545 C  
HETATM   12  C   UNL     1     -12.090  13.480  66.817  1.00  0.00    -0.425 C  
ENDROOT
BRANCH   5  13
HETATM   13  C   UNL     1     -11.483   9.173  71.102  1.00  0.00    -0.388 C  
BRANCH  13  14
HETATM   14  C   UNL     1     -10.635   8.705  72.255  1.00  0.00    -0.375 C  
HETATM   15  C   UNL     1     -10.692   7.467  72.783  1.00  0.00    -0.382 C  
HETATM   16  C   UNL     1     -11.599   6.376  72.277  1.00  0.00    -0.341 C  
HETATM   17  C   UNL     1      -9.829   7.073  73.958  1.00  0.00    -0.345 C  
ENDBRANCH  13  14
ENDBRANCH   5  13
TORSDOF 2
ENDMDL
MODEL        3
REMARK 921   NORMALIZED FREE ENERGY PREDICTED BY IDOCK:   -5.55 KCAL/MOL
REMARK 922        TOTAL FREE ENERGY PREDICTED BY IDOCK:   -6.47 KCAL/MOL
REMARK 923 INTER-LIGAND FREE ENERGY PREDICTED BY IDOCK:   -6.25 KCAL/MOL
REMARK 924 INTRA-LIGAND FREE ENERGY PREDICTED BY IDOCK:   -0.23 KCAL/MOL
REMARK 927      BINDING AFFINITY PREDICTED BY RF-SCORE:    0.00 PKD
ROOT
HETATM    1  C   UNL     1     -11.385  12.534  66.280  1.00  0.00    -0.386 C  
HETATM    2  C   UNL     1     -10.465  13.713  66.760  1.00  0.00    -0.270 C  
HETATM    3  C   UNL     1     -12.019  12.717  64.876  1.00  0.00    -0.451 C  
HETATM    4  O   UNL     1      -9.348  13.855  65.888  1.00  0.00    -0.499 OA 
HETATM    5  C   UNL     1     -11.245  15.067  66.755  1.00  0.00    -0.322 C  
HETATM    6  C   UNL     1     -11.170  12.272  63.678  1.00  0.00    -0.539 C  
HETATM    7  C   UNL     1      -9.931  13.461  68.187  1.00  0.00    -0.237 C  
HETATM    8  C   UNL     1     -10.773  11.115  66.385  1.00  0.00    -0.303 C  
HETATM    9  H   UNL     1      -8.791  14.568  66.178  1.00  0.00     0.000 HD 
HETATM   10  C   UNL     1     -10.298  11.073  63.925  1.00  0.00    -0.436 C  
HETATM   11  C   UNL     1      -9.647  10.440  62.728  1.00  0.00    -0.311 C  
HETATM   12  C   UNL     1     -10.130  10.562  65.153  1.00  0.00    -0.383 C  
ENDROOT
BRANCH   5  13
HETATM   13  C   UNL     1     -10.451  16.263  67.316  1.00  0.00    -0.300 C  
BRANCH  13  14
HETATM   14  C   UNL     1     -10.524  17.486  66.441  1.00  0.00    -0.277 C  
HETATM   15  C   UNL     1     -10.361  18.746  66.886  1.00  0.00    -0.456 C  
HETATM   16  C   UNL     1     -10.063  19.101  68.320  1.00  0.00    -0.499 C  
HETATM   17  C   UNL     1     -10.473  19.930  65.956  1.00  0.00    -0.580 C  
ENDBRANCH  13  14
ENDBRANCH   5  13
TORSDOF 2
ENDMDL
MODEL        4
REMARK 921   NORMALIZED FREE ENERGY PREDICTED BY IDOCK:   -5.53 KCAL/MOL
REMARK 922        TOTAL FREE ENERGY PREDICTED BY IDOCK:   -6.45 KCAL/MOL
REMARK 923 INTER-LIGAND FREE ENERGY PREDICTED BY IDOCK:   -6.24 KCAL/MOL
REMARK 924 INTRA-LIGAND FREE ENERGY PREDICTED BY IDOCK:   -0.22 KCAL/MOL
REMARK 927      BINDING AFFINITY PREDICTED BY RF-SCORE:    0.00 PKD
ROOT
HETATM    1  C   UNL     1     -10.603  12.481  67.730  1.00  0.00    -0.235 C  
HETATM    2  C   UNL     1     -11.233  11.430  68.711  1.00  0.00    -0.247 C  
HETATM    3  C   UNL     1      -9.777  11.883  66.560  1.00  0.00    -0.226 C  
HETATM    4  O   UNL     1     -12.160  10.599  68.019  1.00  0.00    -0.755 OA 
HETATM    5  C   UNL     1     -10.132  10.505  69.321  1.00  0.00    -0.244 C  
HETATM    6  C   UNL     1     -10.561  11.482  65.303  1.00  0.00    -0.339 C  
HETATM    7  C   UNL     1     -11.985  12.125  69.869  1.00  0.00    -0.380 C  
HETATM    8  C   UNL     1     -11.574  13.554  67.177  1.00  0.00    -0.393 C  
HETATM    9  H   UNL     1     -12.541   9.963  68.613  1.00  0.00     0.000 HD 
HETATM   10  C   UNL     1     -11.740  12.357  64.981  1.00  0.00    -0.420 C  
HETATM   11  C   UNL     1     -12.383  12.173  63.636  1.00  0.00    -0.673 C  
HETATM   12  C   UNL     1     -12.184  13.288  65.837  1.00  0.00    -0.497 C  
ENDROOT
BRANCH   5  13
HETATM   13  C   UNL     1     -10.646   9.512  70.382  1.00  0.00    -0.333 C  
BRANCH  13  14
HETATM   14  C   UNL     1      -9.583   9.079  71.355  1.00  0.00    -0.356 C  
HETATM   15  C   UNL     1      -9.815   8.317  72.441  1.00  0.00    -0.375 C  
HETATM   16  C   UNL     1     -11.170   7.776  72.817  1.00  0.00    -0.456 C  
HETATM   17  C   UNL     1      -8.703   7.940  73.390  1.00  0.00    -0.309 C  
ENDBRANCH  13  14
ENDBRANCH   5  13
TORSDOF 2
ENDMDL
MODEL        5
REMARK 921   NORMALIZED FREE ENERGY PREDICTED BY IDOCK:   -5.52 KCAL/MOL
REMARK 922        TOTAL FREE ENERGY PREDICTED BY IDOCK:   -6.44 KCAL/MOL
REMARK 923 INTER-LIGAND FREE ENERGY PREDICTED BY IDOCK:   -6.18 KCAL/MOL
REMARK 924 INTRA-LIGAND FREE ENERGY PREDICTED BY IDOCK:   -0.27 KCAL/MOL
REMARK 927      BINDING AFFINITY PREDICTED BY RF-SCORE:    0.00 PKD
ROOT
HETATM    1  C   UNL     1     -10.320  16.987  67.209  1.00  0.00    -0.311 C  
HETATM    2  C   UNL     1     -10.275  15.971  68.406  1.00  0.00    -0.236 C  
HETATM    3  C   UNL     1     -10.659  18.451  67.596  1.00  0.00    -0.437 C  
HETATM    4  O   UNL     1      -9.252  16.335  69.326  1.00  0.00    -0.250 OA 
HETATM    5  C   UNL     1     -11.631  15.963  69.182  1.00  0.00    -0.382 C  
HETATM    6  C   UNL     1      -9.483  19.333  68.035  1.00  0.00    -0.400 C  
HETATM    7  C   UNL     1      -9.986  14.536  67.911  1.00  0.00    -0.226 C  
HETATM    8  C   UNL     1      -9.088  16.977  66.269  1.00  0.00    -0.279 C  
HETATM    9  H   UNL     1      -9.225  15.720  70.050  1.00  0.00     0.000 HD 
HETATM   10  C   UNL     1      -8.181  19.054  67.338  1.00  0.00    -0.297 C  
HETATM   11  C   UNL     1      -7.071  20.046  67.537  1.00  0.00    -0.300 C  
HETATM   12  C   UNL     1      -8.019  17.986  66.543  1.00  0.00    -0.294 C  
ENDROOT
BRANCH   5  13
HETATM   13  C   UNL     1     -11.716  14.914  70.308  1.00  0.00    -0.352 C  
BRANCH  13  14
HETATM   14  C   UNL     1     -11.689  15.519  71.686  1.00  0.00    -0.498 C  
HETATM   15  C   UNL     1     -12.504  15.148  72.692  1.00  0.00    -0.467 C  
HETATM   16  C   UNL     1     -13.540  14.060  72.580  1.00  0.00    -0.670 C  
HETATM   17  C   UNL     1     -12.440  15.817  74.044  1.00  0.00    -0.775 C  
ENDBRANCH  13  14
ENDBRANCH   5  13
TORSDOF 2
ENDMDL
MODEL        6
REMARK 921   NORMALIZED FREE ENERGY PREDICTED BY IDOCK:   -5.50 KCAL/MOL
REMARK 922        TOTAL FREE ENERGY PREDICTED BY IDOCK:   -6.42 KCAL/MOL
REMARK 923 INTER-LIGAND FREE ENERGY PREDICTED BY IDOCK:   -6.09 KCAL/MOL
REMARK 924 INTRA-LIGAND FREE ENERGY PREDICTED BY IDOCK:   -0.33 KCAL/MOL
REMARK 927      BINDING AFFINITY PREDICTED BY RF-SCORE:    0.00 PKD
ROOT
HETATM    1  C   UNL     1     -10.570  14.527  66.606  1.00  0.00    -0.283 C  
HETATM    2  C   UNL     1     -10.120  15.924  66.049  1.00  0.00    -0.337 C  
HETATM    3  C   UNL     1     -12.103  14.297  66.661  1.00  0.00    -0.448 C  
HETATM    4  O   UNL     1     -10.545  16.078  64.699  1.00  0.00    -0.736 OA 
HETATM    5  C   UNL     1     -10.753  17.086  66.881  1.00  0.00    -0.125 C  
HETATM    6  C   UNL     1     -12.763  13.770  65.380  1.00  0.00    -0.513 C  
HETATM    7  C   UNL     1      -8.583  16.075  66.088  1.00  0.00    -0.315 C  
HETATM    8  C   UNL     1      -9.889  13.293  65.962  1.00  0.00    -0.271 C  
HETATM    9  H   UNL     1     -10.273  16.924  64.362  1.00  0.00     0.000 HD 
HETATM   10  C   UNL     1     -11.920  12.825  64.571  1.00  0.00    -0.454 C  
HETATM   11  C   UNL     1     -12.601  12.083  63.456  1.00  0.00    -0.625 C  
HETATM   12  C   UNL     1     -10.625  12.620  64.847  1.00  0.00    -0.332 C  
ENDROOT
BRANCH   5  13
HETATM   13  C   UNL     1     -10.280  18.495  66.473  1.00  0.00    -0.440 C  
BRANCH  13  14
HETATM   14  C   UNL     1      -9.394  19.144  67.502  1.00  0.00    -0.356 C  
HETATM   15  C   UNL     1      -8.179  19.663  67.237  1.00  0.00    -0.331 C  
HETATM   16  C   UNL     1      -7.552  19.682  65.867  1.00  0.00    -0.320 C  
HETATM   17  C   UNL     1      -7.332  20.277  68.324  1.00  0.00    -0.207 C  
ENDBRANCH  13  14
ENDBRANCH   5  13
TORSDOF 2
ENDMDL
MODEL        7
REMARK 921   NORMALIZED FREE ENERGY PREDICTED BY IDOCK:   -5.48 KCAL/MOL
REMARK 922        TOTAL FREE ENERGY PREDICTED BY IDOCK:   -6.40 KCAL/MOL
REMARK 923 INTER-LIGAND FREE ENERGY PREDICTED BY IDOCK:   -6.10 KCAL/MOL
REMARK 924 INTRA-LIGAND FREE ENERGY PREDICTED BY IDOCK:   -0.30 KCAL/MOL
REMARK 927      BINDING AFFINITY PREDICTED BY RF-SCORE:    0.00 PKD
ROOT
HETATM    1  C   UNL     1     -10.685  12.630  67.553  1.00  0.00    -0.247 C  
HETATM    2  C   UNL     1     -11.216  11.577  68.590  1.00  0.00    -0.248 C  
HETATM    3  C   UNL     1      -9.870  12.044  66.371  1.00  0.00    -0.238 C  
HETATM    4  O   UNL     1     -12.118  10.674  67.959  1.00  0.00    -0.755 OA 
HETATM    5  C   UNL     1     -10.041  10.737  69.183  1.00  0.00    -0.224 C  
HETATM    6  C   UNL     1     -10.676  11.559  65.158  1.00  0.00    -0.348 C  
HETATM    7  C   UNL     1     -11.963  12.265  69.754  1.00  0.00    -0.365 C  
HETATM    8  C   UNL     1     -11.737  13.629  67.007  1.00  0.00    -0.419 C  
HETATM    9  H   UNL     1     -12.439  10.036  68.586  1.00  0.00     0.000 HD 
HETATM   10  C   UNL     1     -11.915  12.354  64.856  1.00  0.00    -0.458 C  
HETATM   11  C   UNL     1     -12.596  12.091  63.544  1.00  0.00    -0.625 C  
HETATM   12  C   UNL     1     -12.380  13.286  65.701  1.00  0.00    -0.521 C  
ENDROOT
BRANCH   5  13
HETATM   13  C   UNL     1     -10.457   9.750  70.292  1.00  0.00    -0.345 C  
BRANCH  13  14
HETATM   14  C   UNL     1     -10.346   8.308  69.875  1.00  0.00    -0.218 C  
HETATM   15  C   UNL     1     -11.153   7.327  70.323  1.00  0.00    -0.289 C  
HETATM   16  C   UNL     1     -12.291   7.545  71.285  1.00  0.00    -0.356 C  
HETATM   17  C   UNL     1     -10.969   5.895  69.882  1.00  0.00    -0.444 C  
ENDBRANCH  13  14
ENDBRANCH   5  13
TORSDOF 2
ENDMDL
MODEL        8
REMARK 921   NORMALIZED FREE ENERGY PREDICTED BY IDOCK:   -5.41 KCAL/MOL
REMARK 922        TOTAL FREE ENERGY PREDICTED BY IDOCK:   -6.32 KCAL/MOL
REMARK 923 INTER-LIGAND FREE ENERGY PREDICTED BY IDOCK:   -6.02 KCAL/MOL
REMARK 924 INTRA-LIGAND FREE ENERGY PREDICTED BY IDOCK:   -0.30 KCAL/MOL
REMARK 927      BINDING AFFINITY PREDICTED BY RF-SCORE:    0.00 PKD
ROOT
HETATM    1  C   UNL     1     -10.618  13.353  67.207  1.00  0.00    -0.256 C  
HETATM    2  C   UNL     1      -9.497  14.419  66.937  1.00  0.00    -0.258 C  
HETATM    3  C   UNL     1     -12.059  13.801  66.847  1.00  0.00    -0.454 C  
HETATM    4  O   UNL     1      -9.431  14.725  65.548  1.00  0.00    -0.493 OA 
HETATM    5  C   UNL     1      -9.795  15.748  67.702  1.00  0.00    -0.232 C  
HETATM    6  C   UNL     1     -12.498  13.594  65.392  1.00  0.00    -0.537 C  
HETATM    7  C   UNL     1      -8.112  13.899  67.380  1.00  0.00    -0.190 C  
HETATM    8  C   UNL     1     -10.360  11.940  66.626  1.00  0.00    -0.242 C  
HETATM    9  H   UNL     1      -8.752  15.370  65.384  1.00  0.00     0.000 HD 
HETATM   10  C   UNL     1     -11.935  12.370  64.725  1.00  0.00    -0.462 C  
HETATM   11  C   UNL     1     -12.525  11.979  63.400  1.00  0.00    -0.625 C  
HETATM   12  C   UNL     1     -10.970  11.634  65.296  1.00  0.00    -0.327 C  
ENDROOT
BRANCH   5  13
HETATM   13  C   UNL     1      -8.689  16.815  67.582  1.00  0.00    -0.207 C  
BRANCH  13  14
HETATM   14  C   UNL     1      -9.072  17.970  66.695  1.00  0.00    -0.290 C  
HETATM   15  C   UNL     1      -9.667  19.096  67.132  1.00  0.00    -0.393 C  
HETATM   16  C   UNL     1     -10.011  19.362  68.575  1.00  0.00    -0.520 C  
HETATM   17  C   UNL     1     -10.048  20.205  66.182  1.00  0.00    -0.532 C  
ENDBRANCH  13  14
ENDBRANCH   5  13
TORSDOF 2
ENDMDL
MODEL        9
REMARK 921   NORMALIZED FREE ENERGY PREDICTED BY IDOCK:   -5.31 KCAL/MOL
REMARK 922        TOTAL FREE ENERGY PREDICTED BY IDOCK:   -6.21 KCAL/MOL
REMARK 923 INTER-LIGAND FREE ENERGY PREDICTED BY IDOCK:   -5.91 KCAL/MOL
REMARK 924 INTRA-LIGAND FREE ENERGY PREDICTED BY IDOCK:   -0.30 KCAL/MOL
REMARK 927      BINDING AFFINITY PREDICTED BY RF-SCORE:    0.00 PKD
ROOT
HETATM    1  C   UNL     1      -9.929  10.657  67.605  1.00  0.00    -0.197 C  
HETATM    2  C   UNL     1     -11.182  11.566  67.869  1.00  0.00    -0.279 C  
HETATM    3  C   UNL     1      -9.343   9.957  68.859  1.00  0.00    -0.170 C  
HETATM    4  O   UNL     1     -12.262  10.786  68.370  1.00  0.00    -0.832 OA 
HETATM    5  C   UNL     1     -10.860  12.666  68.930  1.00  0.00    -0.238 C  
HETATM    6  C   UNL     1      -9.977   8.617  69.254  1.00  0.00    -0.195 C  
HETATM    7  C   UNL     1     -11.653  12.261  66.572  1.00  0.00    -0.440 C  
HETATM    8  C   UNL     1     -10.075   9.623  66.460  1.00  0.00    -0.314 C  
HETATM    9  H   UNL     1     -13.021  11.336  68.529  1.00  0.00     0.000 HD 
HETATM   10  C   UNL     1     -10.442   7.768  68.104  1.00  0.00    -0.230 C  
HETATM   11  C   UNL     1     -10.831   6.350  68.412  1.00  0.00    -0.383 C  
HETATM   12  C   UNL     1     -10.479   8.237  66.849  1.00  0.00    -0.365 C  
ENDROOT
BRANCH   5  13
HETATM   13  C   UNL     1     -12.000  13.675  69.172  1.00  0.00    -0.394 C  
BRANCH  13  14
HETATM   14  C   UNL     1     -12.575  13.598  70.561  1.00  0.00    -0.337 C  
HETATM   15  C   UNL     1     -12.456  14.570  71.485  1.00  0.00    -0.424 C  
HETATM   16  C   UNL     1     -11.747  15.878  71.245  1.00  0.00    -0.504 C  
HETATM   17  C   UNL     1     -13.037  14.416  72.869  1.00  0.00    -0.612 C  
ENDBRANCH  13  14
ENDBRANCH   5  13
TORSDOF 2
ENDMDL
MODEL       10
REMARK 921   NORMALIZED FREE ENERGY PREDICTED BY IDOCK:   -5.27 KCAL/MOL
REMARK 922        TOTAL FREE ENERGY PREDICTED BY IDOCK:   -6.17 KCAL/MOL
REMARK 923 INTER-LIGAND FREE ENERGY PREDICTED BY IDOCK:   -5.95 KCAL/MOL
REMARK 924 INTRA-LIGAND FREE ENERGY PREDICTED BY IDOCK:   -0.21 KCAL/MOL
REMARK 927      BINDING AFFINITY PREDICTED BY RF-SCORE:    0.00 PKD
ROOT
HETATM    1  C   UNL     1     -11.711  14.602  67.880  1.00  0.00    -0.379 C  
HETATM    2  C   UNL     1     -11.222  13.199  68.387  1.00  0.00    -0.271 C  
HETATM    3  C   UNL     1     -11.644  15.745  68.927  1.00  0.00    -0.400 C  
HETATM    4  O   UNL     1      -9.847  13.257  68.754  1.00  0.00    -0.398 OA 
HETATM    5  C   UNL     1     -12.030  12.748  69.646  1.00  0.00    -0.354 C  
HETATM    6  C   UNL     1     -10.305  16.484  69.051  1.00  0.00    -0.296 C  
HETATM    7  C   UNL     1     -11.381  12.121  67.292  1.00  0.00    -0.398 C  
HETATM    8  C   UNL     1     -11.092  15.091  66.547  1.00  0.00    -0.329 C  
HETATM    9  H   UNL     1      -9.551  12.407  69.060  1.00  0.00     0.000 HD 
HETATM   10  C   UNL     1      -9.541  16.637  67.766  1.00  0.00    -0.236 C  
HETATM   11  C   UNL     1      -8.360  17.566  67.777  1.00  0.00    -0.220 C  
HETATM   12  C   UNL     1      -9.909  16.002  66.644  1.00  0.00    -0.273 C  
ENDROOT
BRANCH   5  13
HETATM   13  C   UNL     1     -11.691  11.330  70.148  1.00  0.00    -0.429 C  
BRANCH  13  14
HETATM   14  C   UNL     1     -12.815  10.690  70.919  1.00  0.00    -0.473 C  
HETATM   15  C   UNL     1     -12.670   9.612  71.714  1.00  0.00    -0.510 C  
HETATM   16  C   UNL     1     -11.357   8.914  71.955  1.00  0.00    -0.446 C  
HETATM   17  C   UNL     1     -13.846   9.006  72.439  1.00  0.00    -0.540 C  
ENDBRANCH  13  14
ENDBRANCH   5  13
TORSDOF 2
ENDMDL
MODEL       11
REMARK 921   NORMALIZED FREE ENERGY PREDICTED BY IDOCK:   -5.26 KCAL/MOL
REMARK 922        TOTAL FREE ENERGY PREDICTED BY IDOCK:   -6.15 KCAL/MOL
REMARK 923 INTER-LIGAND FREE ENERGY PREDICTED BY IDOCK:   -6.07 KCAL/MOL
REMARK 924 INTRA-LIGAND FREE ENERGY PREDICTED BY IDOCK:   -0.08 KCAL/MOL
REMARK 927      BINDING AFFINITY PREDICTED BY RF-SCORE:    0.00 PKD
ROOT
HETATM    1  C   UNL     1     -10.529  17.694  67.017  1.00  0.00    -0.305 C  
HETATM    2  C   UNL     1     -10.119  16.487  66.100  1.00  0.00    -0.348 C  
HETATM    3  C   UNL     1      -9.817  17.751  68.394  1.00  0.00    -0.347 C  
HETATM    4  O   UNL     1      -8.735  16.560  65.775  1.00  0.00    -0.460 OA 
HETATM    5  C   UNL     1     -10.364  15.126  66.826  1.00  0.00    -0.273 C  
HETATM    6  C   UNL     1      -8.452  18.450  68.432  1.00  0.00    -0.345 C  
HETATM    7  C   UNL     1     -10.922  16.489  64.780  1.00  0.00    -0.192 C  
HETATM    8  C   UNL     1     -10.476  19.094  66.354  1.00  0.00    -0.548 C  
HETATM    9  H   UNL     1      -8.487  15.830  65.220  1.00  0.00     0.000 HD 
HETATM   10  C   UNL     1      -8.308  19.618  67.496  1.00  0.00    -0.337 C  
HETATM   11  C   UNL     1      -7.099  20.492  67.672  1.00  0.00    -0.363 C  
HETATM   12  C   UNL     1      -9.231  19.895  66.564  1.00  0.00    -0.483 C  
ENDROOT
BRANCH   5  13
HETATM   13  C   UNL     1     -10.092  13.881  65.959  1.00  0.00    -0.324 C  
BRANCH  13  14
HETATM   14  C   UNL     1     -11.336  13.313  65.330  1.00  0.00    -0.317 C  
HETATM   15  C   UNL     1     -11.346  12.573  64.204  1.00  0.00    -0.440 C  
HETATM   16  C   UNL     1     -10.107  12.196  63.434  1.00  0.00    -0.383 C  
HETATM   17  C   UNL     1     -12.635  12.057  63.613  1.00  0.00    -0.605 C  
ENDBRANCH  13  14
ENDBRANCH   5  13
TORSDOF 2
ENDMDL
MODEL       12
REMARK 921   NORMALIZED FREE ENERGY PREDICTED BY IDOCK:   -5.20 KCAL/MOL
REMARK 922        TOTAL FREE ENERGY PREDICTED BY IDOCK:   -6.08 KCAL/MOL
REMARK 923 INTER-LIGAND FREE ENERGY PREDICTED BY IDOCK:   -5.84 KCAL/MOL
REMARK 924 INTRA-LIGAND FREE ENERGY PREDICTED BY IDOCK:   -0.24 KCAL/MOL
REMARK 927      BINDING AFFINITY PREDICTED BY RF-SCORE:    0.00 PKD
ROOT
HETATM    1  C   UNL     1     -11.813  13.402  67.403  1.00  0.00    -0.418 C  
HETATM    2  C   UNL     1     -11.326  12.238  68.337  1.00  0.00    -0.292 C  
HETATM    3  C   UNL     1     -11.779  14.818  68.037  1.00  0.00    -0.360 C  
HETATM    4  O   UNL     1      -9.960  12.428  68.694  1.00  0.00    -0.334 OA 
HETATM    5  C   UNL     1     -12.159  12.196  69.658  1.00  0.00    -0.283 C  
HETATM    6  C   UNL     1     -10.448  15.577  67.946  1.00  0.00    -0.266 C  
HETATM    7  C   UNL     1     -11.452  10.867  67.636  1.00  0.00    -0.281 C  
HETATM    8  C   UNL     1     -11.167  13.454  65.996  1.00  0.00    -0.310 C  
HETATM    9  H   UNL     1      -9.665  11.723  69.259  1.00  0.00     0.000 HD 
HETATM   10  C   UNL     1      -9.656  15.327  66.694  1.00  0.00    -0.276 C  
HETATM   11  C   UNL     1      -8.482  16.228  66.434  1.00  0.00    -0.365 C  
HETATM   12  C   UNL     1      -9.994  14.365  65.823  1.00  0.00    -0.354 C  
ENDROOT
BRANCH   5  13
HETATM   13  C   UNL     1     -11.822  11.015  70.589  1.00  0.00    -0.434 C  
BRANCH  13  14
HETATM   14  C   UNL     1     -13.041  10.285  71.087  1.00  0.00    -0.481 C  
HETATM   15  C   UNL     1     -13.001   9.168  71.838  1.00  0.00    -0.473 C  
HETATM   16  C   UNL     1     -11.727   8.509  72.301  1.00  0.00    -0.443 C  
HETATM   17  C   UNL     1     -14.265   8.472  72.281  1.00  0.00    -0.471 C  
ENDBRANCH  13  14
ENDBRANCH   5  13
TORSDOF 2
ENDMDL
MODEL       13
REMARK 921   NORMALIZED FREE ENERGY PREDICTED BY IDOCK:   -5.18 KCAL/MOL
REMARK 922        TOTAL FREE ENERGY PREDICTED BY IDOCK:   -6.06 KCAL/MOL
REMARK 923 INTER-LIGAND FREE ENERGY PREDICTED BY IDOCK:   -5.67 KCAL/MOL
REMARK 924 INTRA-LIGAND FREE ENERGY PREDICTED BY IDOCK:   -0.39 KCAL/MOL
REMARK 927      BINDING AFFINITY PREDICTED BY RF-SCORE:    0.00 PKD
ROOT
HETATM    1  C   UNL     1      -9.918  15.399  68.784  1.00  0.00    -0.208 C  
HETATM    2  C   UNL     1     -11.162  14.452  68.939  1.00  0.00    -0.262 C  
HETATM    3  C   UNL     1      -9.207  15.337  67.406  1.00  0.00    -0.201 C  
HETATM    4  O   UNL     1     -12.176  14.810  68.006  1.00  0.00    -0.581 OA 
HETATM    5  C   UNL     1     -10.769  12.965  68.664  1.00  0.00    -0.273 C  
HETATM    6  C   UNL     1      -9.774  16.239  66.302  1.00  0.00    -0.329 C  
HETATM    7  C   UNL     1     -11.763  14.545  70.359  1.00  0.00    -0.354 C  
HETATM    8  C   UNL     1     -10.144  16.879  69.179  1.00  0.00    -0.269 C  
HETATM    9  H   UNL     1     -12.928  14.238  68.100  1.00  0.00     0.000 HD 
HETATM   10  C   UNL     1     -10.322  17.556  66.773  1.00  0.00    -0.314 C  
HETATM   11  C   UNL     1     -10.651  18.577  65.721  1.00  0.00    -0.265 C  
HETATM   12  C   UNL     1     -10.483  17.830  68.075  1.00  0.00    -0.399 C  
ENDROOT
BRANCH   5  13
HETATM   13  C   UNL     1     -11.904  11.950  68.901  1.00  0.00    -0.366 C  
BRANCH  13  14
HETATM   14  C   UNL     1     -11.463  10.736  69.673  1.00  0.00    -0.376 C  
HETATM   15  C   UNL     1     -11.943  10.394  70.884  1.00  0.00    -0.478 C  
HETATM   16  C   UNL     1     -13.003  11.170  71.621  1.00  0.00    -0.548 C  
HETATM   17  C   UNL     1     -11.436   9.174  71.615  1.00  0.00    -0.451 C  
ENDBRANCH  13  14
ENDBRANCH   5  13
TORSDOF 2
ENDMDL
MODEL       14
REMARK 921   NORMALIZED FREE ENERGY PREDICTED BY IDOCK:   -5.16 KCAL/MOL
REMARK 922        TOTAL FREE ENERGY PREDICTED BY IDOCK:   -6.04 KCAL/MOL
REMARK 923 INTER-LIGAND FREE ENERGY PREDICTED BY IDOCK:   -5.81 KCAL/MOL
REMARK 924 INTRA-LIGAND FREE ENERGY PREDICTED BY IDOCK:   -0.23 KCAL/MOL
REMARK 927      BINDING AFFINITY PREDICTED BY RF-SCORE:    0.00 PKD
ROOT
HETATM    1  C   UNL     1      -9.959  12.421  67.120  1.00  0.00    -0.211 C  
HETATM    2  C   UNL     1     -11.310  12.832  67.807  1.00  0.00    -0.294 C  
HETATM    3  C   UNL     1      -9.031  11.515  67.971  1.00  0.00    -0.170 C  
HETATM    4  O   UNL     1     -12.100  11.678  68.075  1.00  0.00    -0.597 OA 
HETATM    5  C   UNL     1     -11.047  13.553  69.168  1.00  0.00    -0.271 C  
HETATM    6  C   UNL     1      -9.293  10.005  67.896  1.00  0.00    -0.151 C  
HETATM    7  C   UNL     1     -12.133  13.778  66.904  1.00  0.00    -0.454 C  
HETATM    8  C   UNL     1     -10.080  11.834  65.691  1.00  0.00    -0.278 C  
HETATM    9  H   UNL     1     -12.917  11.927  68.491  1.00  0.00     0.000 HD 
HETATM   10  C   UNL     1      -9.761   9.505  66.558  1.00  0.00    -0.284 C  
HETATM   11  C   UNL     1      -9.785   8.017  66.352  1.00  0.00    -0.255 C  
HETATM   12  C   UNL     1     -10.112  10.344  65.573  1.00  0.00    -0.352 C  
ENDROOT
BRANCH   5  13
HETATM   13  C   UNL     1     -12.314  14.090  69.862  1.00  0.00    -0.367 C  
BRANCH  13  14
HETATM   14  C   UNL     1     -12.019  14.874  71.113  1.00  0.00    -0.389 C  
HETATM   15  C   UNL     1     -12.664  14.706  72.282  1.00  0.00    -0.413 C  
HETATM   16  C   UNL     1     -13.757  13.692  72.503  1.00  0.00    -0.663 C  
HETATM   17  C   UNL     1     -12.334  15.546  73.492  1.00  0.00    -0.664 C  
ENDBRANCH  13  14
ENDBRANCH   5  13
TORSDOF 2
ENDMDL
MODEL       15
REMARK 921   NORMALIZED FREE ENERGY PREDICTED BY IDOCK:   -5.13 KCAL/MOL
REMARK 922        TOTAL FREE ENERGY PREDICTED BY IDOCK:   -6.01 KCAL/MOL
REMARK 923 INTER-LIGAND FREE ENERGY PREDICTED BY IDOCK:   -5.69 KCAL/MOL
REMARK 924 INTRA-LIGAND FREE ENERGY PREDICTED BY IDOCK:   -0.33 KCAL/MOL
REMARK 927      BINDING AFFINITY PREDICTED BY RF-SCORE:    0.00 PKD
ROOT
HETATM    1  C   UNL     1     -10.396  17.942  66.978  1.00  0.00    -0.366 C  
HETATM    2  C   UNL     1      -9.924  16.697  66.145  1.00  0.00    -0.337 C  
HETATM    3  C   UNL     1      -9.629  18.181  68.305  1.00  0.00    -0.324 C  
HETATM    4  O   UNL     1      -8.568  16.858  65.740  1.00  0.00    -0.505 OA 
HETATM    5  C   UNL     1     -10.011  15.390  66.997  1.00  0.00    -0.239 C  
HETATM    6  C   UNL     1      -8.332  18.995  68.208  1.00  0.00    -0.369 C  
HETATM    7  C   UNL     1     -10.785  16.513  64.876  1.00  0.00    -0.168 C  
HETATM    8  C   UNL     1     -10.500  19.276  66.197  1.00  0.00    -0.577 C  
HETATM    9  H   UNL     1      -8.282  16.105  65.236  1.00  0.00     0.000 HD 
HETATM   10  C   UNL     1      -8.337  20.082  67.171  1.00  0.00    -0.381 C  
HETATM   11  C   UNL     1      -7.204  21.068  67.205  1.00  0.00    -0.363 C  
HETATM   12  C   UNL     1      -9.324  20.196  66.270  1.00  0.00    -0.419 C  
ENDROOT
BRANCH   5  13
HETATM   13  C   UNL     1      -9.670  14.100  66.225  1.00  0.00    -0.315 C  
BRANCH  13  14
HETATM   14  C   UNL     1     -10.049  12.847  66.967  1.00  0.00    -0.245 C  
HETATM   15  C   UNL     1     -11.209  12.185  66.793  1.00  0.00    -0.375 C  
HETATM   16  C   UNL     1     -12.276  12.599  65.815  1.00  0.00    -0.427 C  
HETATM   17  C   UNL     1     -11.535  10.946  67.591  1.00  0.00    -0.281 C  
ENDBRANCH  13  14
ENDBRANCH   5  13
TORSDOF 2
ENDMDL
MODEL       16
REMARK 921   NORMALIZED FREE ENERGY PREDICTED BY IDOCK:   -5.06 KCAL/MOL
REMARK 922        TOTAL FREE ENERGY PREDICTED BY IDOCK:   -5.93 KCAL/MOL
REMARK 923 INTER-LIGAND FREE ENERGY PREDICTED BY IDOCK:   -5.63 KCAL/MOL
REMARK 924 INTRA-LIGAND FREE ENERGY PREDICTED BY IDOCK:   -0.30 KCAL/MOL
REMARK 927      BINDING AFFINITY PREDICTED BY RF-SCORE:    0.00 PKD
ROOT
HETATM    1  C   UNL     1     -10.986  10.815  70.323  1.00  0.00    -0.160 C  
HETATM    2  C   UNL     1     -11.230  11.198  68.820  1.00  0.00    -0.253 C  
HETATM    3  C   UNL     1     -12.202  11.020  71.265  1.00  0.00    -0.365 C  
HETATM    4  O   UNL     1     -12.248  10.377  68.259  1.00  0.00    -0.621 OA 
HETATM    5  C   UNL     1     -11.694  12.685  68.691  1.00  0.00    -0.364 C  
HETATM    6  C   UNL     1     -13.208   9.865  71.345  1.00  0.00    -0.487 C  
HETATM    7  C   UNL     1      -9.947  11.012  67.980  1.00  0.00    -0.188 C  
HETATM    8  C   UNL     1     -10.376   9.413  70.571  1.00  0.00    -0.341 C  
HETATM    9  H   UNL     1     -12.396  10.609  67.349  1.00  0.00     0.000 HD 
HETATM   10  C   UNL     1     -12.612   8.491  71.226  1.00  0.00    -0.248 C  
HETATM   11  C   UNL     1     -13.503   7.326  71.553  1.00  0.00    -0.439 C  
HETATM   12  C   UNL     1     -11.332   8.303  70.876  1.00  0.00    -0.292 C  
ENDROOT
BRANCH   5  13
HETATM   13  C   UNL     1     -11.852  13.181  67.241  1.00  0.00    -0.420 C  
BRANCH  13  14
HETATM   14  C   UNL     1     -11.362  14.591  67.040  1.00  0.00    -0.359 C  
HETATM   15  C   UNL     1     -10.664  15.003  65.965  1.00  0.00    -0.329 C  
HETATM   16  C   UNL     1     -10.296  14.113  64.806  1.00  0.00    -0.387 C  
HETATM   17  C   UNL     1     -10.181  16.428  65.840  1.00  0.00    -0.379 C  
ENDBRANCH  13  14
ENDBRANCH   5  13
TORSDOF 2
ENDMDL
MODEL       17
REMARK 921   NORMALIZED FREE ENERGY PREDICTED BY IDOCK:   -5.06 KCAL/MOL
REMARK 922        TOTAL FREE ENERGY PREDICTED BY IDOCK:   -5.93 KCAL/MOL
REMARK 923 INTER-LIGAND FREE ENERGY PREDICTED BY IDOCK:   -5.72 KCAL/MOL
REMARK 924 INTRA-LIGAND FREE ENERGY PREDICTED BY IDOCK:   -0.21 KCAL/MOL
REMARK 927      BINDING AFFINITY PREDICTED BY RF-SCORE:    0.00 PKD
ROOT
HETATM    1  C   UNL     1     -11.867  12.861  67.352  1.00  0.00    -0.418 C  
HETATM    2  C   UNL     1     -10.962  14.006  67.931  1.00  0.00    -0.247 C  
HETATM    3  C   UNL     1     -11.879  12.744  65.805  1.00  0.00    -0.484 C  
HETATM    4  O   UNL     1      -9.599  13.780  67.588  1.00  0.00    -0.209 OA 
HETATM    5  C   UNL     1     -11.375  15.394  67.345  1.00  0.00    -0.243 C  
HETATM    6  C   UNL     1     -10.762  11.902  65.174  1.00  0.00    -0.339 C  
HETATM    7  C   UNL     1     -11.063  14.075  69.471  1.00  0.00    -0.200 C  
HETATM    8  C   UNL     1     -11.656  11.456  67.972  1.00  0.00    -0.357 C  
HETATM    9  H   UNL     1      -9.051  14.473  67.938  1.00  0.00     0.000 HD 
HETATM   10  C   UNL     1     -10.323  10.715  65.984  1.00  0.00    -0.290 C  
HETATM   11  C   UNL     1      -9.425   9.718  65.308  1.00  0.00    -0.343 C  
HETATM   12  C   UNL     1     -10.736  10.528  67.245  1.00  0.00    -0.333 C  
ENDROOT
BRANCH   5  13
HETATM   13  C   UNL     1     -10.611  16.592  67.941  1.00  0.00    -0.342 C  
BRANCH  13  14
HETATM   14  C   UNL     1     -10.410  17.715  66.960  1.00  0.00    -0.330 C  
HETATM   15  C   UNL     1     -10.191  18.997  67.310  1.00  0.00    -0.476 C  
HETATM   16  C   UNL     1     -10.097  19.477  68.735  1.00  0.00    -0.519 C  
HETATM   17  C   UNL     1     -10.024  20.079  66.271  1.00  0.00    -0.597 C  
ENDBRANCH  13  14
ENDBRANCH   5  13
TORSDOF 2
ENDMDL
MODEL       18
REMARK 921   NORMALIZED FREE ENERGY PREDICTED BY IDOCK:   -5.06 KCAL/MOL
REMARK 922        TOTAL FREE ENERGY PREDICTED BY IDOCK:   -5.93 KCAL/MOL
REMARK 923 INTER-LIGAND FREE ENERGY PREDICTED BY IDOCK:   -5.72 KCAL/MOL
REMARK 924 INTRA-LIGAND FREE ENERGY PREDICTED BY IDOCK:   -0.20 KCAL/MOL
REMARK 927      BINDING AFFINITY PREDICTED BY RF-SCORE:    0.00 PKD
ROOT
HETATM    1  C   UNL     1     -12.026  13.281  68.911  1.00  0.00    -0.336 C  
HETATM    2  C   UNL     1     -11.013  14.454  69.165  1.00  0.00    -0.265 C  
HETATM    3  C   UNL     1     -11.972  12.655  67.493  1.00  0.00    -0.314 C  
HETATM    4  O   UNL     1      -9.674  13.986  69.041  1.00  0.00    -0.401 OA 
HETATM    5  C   UNL     1     -11.214  15.600  68.123  1.00  0.00    -0.345 C  
HETATM    6  C   UNL     1     -10.942  11.539  67.276  1.00  0.00    -0.323 C  
HETATM    7  C   UNL     1     -11.185  15.045  70.582  1.00  0.00    -0.280 C  
HETATM    8  C   UNL     1     -12.031  12.152  69.971  1.00  0.00    -0.391 C  
HETATM    9  H   UNL     1      -9.061  14.696  69.195  1.00  0.00     0.000 HD 
HETATM   10  C   UNL     1     -10.701  10.653  68.466  1.00  0.00    -0.252 C  
HETATM   11  C   UNL     1      -9.905   9.400  68.238  1.00  0.00    -0.180 C  
HETATM   12  C   UNL     1     -11.200  10.943  69.676  1.00  0.00    -0.348 C  
ENDROOT
BRANCH   5  13
HETATM   13  C   UNL     1     -10.334  16.843  68.363  1.00  0.00    -0.338 C  
BRANCH  13  14
HETATM   14  C   UNL     1     -10.339  17.806  67.207  1.00  0.00    -0.364 C  
HETATM   15  C   UNL     1     -10.295  19.146  67.336  1.00  0.00    -0.522 C  
HETATM   16  C   UNL     1     -10.212  19.862  68.659  1.00  0.00    -0.494 C  
HETATM   17  C   UNL     1     -10.329  20.055  66.132  1.00  0.00    -0.570 C  
ENDBRANCH  13  14
ENDBRANCH   5  13
TORSDOF 2
ENDMDL
MODEL       19
REMARK 921   NORMALIZED FREE ENERGY PREDICTED BY IDOCK:   -5.02 KCAL/MOL
REMARK 922        TOTAL FREE ENERGY PREDICTED BY IDOCK:   -5.89 KCAL/MOL
REMARK 923 INTER-LIGAND FREE ENERGY PREDICTED BY IDOCK:   -5.60 KCAL/MOL
REMARK 924 INTRA-LIGAND FREE ENERGY PREDICTED BY IDOCK:   -0.29 KCAL/MOL
REMARK 927      BINDING AFFINITY PREDICTED BY RF-SCORE:    0.00 PKD
ROOT
HETATM    1  C   UNL     1     -11.793  12.907  65.584  1.00  0.00    -0.464 C  
HETATM    2  C   UNL     1     -10.605  11.884  65.484  1.00  0.00    -0.269 C  
HETATM    3  C   UNL     1     -11.899  13.669  66.931  1.00  0.00    -0.451 C  
HETATM    4  O   UNL     1      -9.358  12.561  65.601  1.00  0.00    -0.444 OA 
HETATM    5  C   UNL     1     -10.681  10.827  66.632  1.00  0.00    -0.268 C  
HETATM    6  C   UNL     1     -11.057  14.945  67.064  1.00  0.00    -0.338 C  
HETATM    7  C   UNL     1     -10.621  11.138  64.131  1.00  0.00    -0.436 C  
HETATM    8  C   UNL     1     -11.916  13.914  64.413  1.00  0.00    -0.480 C  
HETATM    9  H   UNL     1      -8.640  11.942  65.541  1.00  0.00     0.000 HD 
HETATM   10  C   UNL     1     -10.896  15.737  65.797  1.00  0.00    -0.286 C  
HETATM   11  C   UNL     1     -10.307  17.114  65.919  1.00  0.00    -0.294 C  
HETATM   12  C   UNL     1     -11.290  15.258  64.608  1.00  0.00    -0.364 C  
ENDROOT
BRANCH   5  13
HETATM   13  C   UNL     1      -9.616   9.716  66.550  1.00  0.00    -0.252 C  
BRANCH  13  14
HETATM   14  C   UNL     1     -10.200   8.329  66.587  1.00  0.00    -0.333 C  
HETATM   15  C   UNL     1     -10.392   7.619  67.715  1.00  0.00    -0.282 C  
HETATM   16  C   UNL     1     -10.067   8.126  69.096  1.00  0.00    -0.204 C  
HETATM   17  C   UNL     1     -10.960   6.221  67.677  1.00  0.00    -0.438 C  
ENDBRANCH  13  14
ENDBRANCH   5  13
TORSDOF 2
ENDMDL
MODEL       20
REMARK 921   NORMALIZED FREE ENERGY PREDICTED BY IDOCK:   -4.97 KCAL/MOL
REMARK 922        TOTAL FREE ENERGY PREDICTED BY IDOCK:   -5.83 KCAL/MOL
REMARK 923 INTER-LIGAND FREE ENERGY PREDICTED BY IDOCK:   -5.49 KCAL/MOL
REMARK 924 INTRA-LIGAND FREE ENERGY PREDICTED BY IDOCK:   -0.35 KCAL/MOL
REMARK 927      BINDING AFFINITY PREDICTED BY RF-SCORE:    0.00 PKD
ROOT
HETATM    1  C   UNL     1      -9.929  15.349  68.104  1.00  0.00    -0.221 C  
HETATM    2  C   UNL     1     -10.834  14.261  67.424  1.00  0.00    -0.285 C  
HETATM    3  C   UNL     1      -8.740  15.852  67.244  1.00  0.00    -0.206 C  
HETATM    4  O   UNL     1     -11.449  14.789  66.254  1.00  0.00    -0.350 OA 
HETATM    5  C   UNL     1      -9.988  13.019  66.995  1.00  0.00    -0.242 C  
HETATM    6  C   UNL     1      -9.037  17.001  66.271  1.00  0.00    -0.279 C  
HETATM    7  C   UNL     1     -11.951  13.785  68.380  1.00  0.00    -0.395 C  
HETATM    8  C   UNL     1     -10.674  16.563  68.711  1.00  0.00    -0.339 C  
HETATM    9  H   UNL     1     -11.997  14.131  65.843  1.00  0.00     0.000 HD 
HETATM   10  C   UNL     1     -10.053  17.998  66.752  1.00  0.00    -0.357 C  
HETATM   11  C   UNL     1     -10.193  19.269  65.964  1.00  0.00    -0.512 C  
HETATM   12  C   UNL     1     -10.783  17.786  67.856  1.00  0.00    -0.327 C  
ENDROOT
BRANCH   5  13
HETATM   13  C   UNL     1     -10.813  11.853  66.417  1.00  0.00    -0.318 C  
BRANCH  13  14
HETATM   14  C   UNL     1     -10.138  11.163  65.262  1.00  0.00    -0.329 C  
HETATM   15  C   UNL     1     -10.428  11.395  63.967  1.00  0.00    -0.435 C  
HETATM   16  C   UNL     1     -11.454  12.393  63.499  1.00  0.00    -0.561 C  
HETATM   17  C   UNL     1      -9.728  10.647  62.859  1.00  0.00    -0.329 C  
ENDBRANCH  13  14
ENDBRANCH   5  13
TORSDOF 2
ENDMDL
MODEL       21
REMARK 921   NORMALIZED FREE ENERGY PREDICTED BY IDOCK:   -4.97 KCAL/MOL
REMARK 922        TOTAL FREE ENERGY PREDICTED BY IDOCK:   -5.83 KCAL/MOL
REMARK 923 INTER-LIGAND FREE ENERGY PREDICTED BY IDOCK:   -5.60 KCAL/MOL
REMARK 924 INTRA-LIGAND FREE ENERGY PREDICTED BY IDOCK:   -0.23 KCAL/MOL
REMARK 927      BINDING AFFINITY PREDICTED BY RF-SCORE:    0.00 PKD
ROOT
HETATM    1  C   UNL     1     -12.028  13.359  68.558  1.00  0.00    -0.363 C  
HETATM    2  C   UNL     1     -11.044  12.143  68.690  1.00  0.00    -0.251 C  
HETATM    3  C   UNL     1     -12.137  14.264  69.813  1.00  0.00    -0.401 C  
HETATM    4  O   UNL     1      -9.714  12.604  68.904  1.00  0.00    -0.408 OA 
HETATM    5  C   UNL     1     -11.433  11.240  69.904  1.00  0.00    -0.373 C  
HETATM    6  C   UNL     1     -11.096  15.383  69.942  1.00  0.00    -0.304 C  
HETATM    7  C   UNL     1     -11.050  11.275  67.413  1.00  0.00    -0.358 C  
HETATM    8  C   UNL     1     -11.840  14.245  67.301  1.00  0.00    -0.444 C  
HETATM    9  H   UNL     1      -9.118  11.868  68.984  1.00  0.00     0.000 HD 
HETATM   10  C   UNL     1     -10.658  16.000  68.644  1.00  0.00    -0.266 C  
HETATM   11  C   UNL     1      -9.845  17.261  68.723  1.00  0.00    -0.306 C  
HETATM   12  C   UNL     1     -11.004  15.475  67.459  1.00  0.00    -0.316 C  
ENDROOT
BRANCH   5  13
HETATM   13  C   UNL     1     -10.585   9.960  70.046  1.00  0.00    -0.335 C  
BRANCH  13  14
HETATM   14  C   UNL     1     -10.669   9.342  71.416  1.00  0.00    -0.432 C  
HETATM   15  C   UNL     1     -11.118   8.095  71.658  1.00  0.00    -0.310 C  
HETATM   16  C   UNL     1     -11.576   7.142  70.586  1.00  0.00    -0.354 C  
HETATM   17  C   UNL     1     -11.199   7.547  73.062  1.00  0.00    -0.373 C  
ENDBRANCH  13  14
ENDBRANCH   5  13
TORSDOF 2
ENDMDL
MODEL       22
REMARK 921   NORMALIZED FREE ENERGY PREDICTED BY IDOCK:   -4.94 KCAL/MOL
REMARK 922        TOTAL FREE ENERGY PREDICTED BY IDOCK:   -5.80 KCAL/MOL
REMARK 923 INTER-LIGAND FREE ENERGY PREDICTED BY IDOCK:   -5.57 KCAL/MOL
REMARK 924 INTRA-LIGAND FREE ENERGY PREDICTED BY IDOCK:   -0.24 KCAL/MOL
REMARK 927      BINDING AFFINITY PREDICTED BY RF-SCORE:    0.00 PKD
ROOT
HETATM    1  C   UNL     1     -11.793  13.172  65.667  1.00  0.00    -0.430 C  
HETATM    2  C   UNL     1     -10.678  12.066  65.627  1.00  0.00    -0.272 C  
HETATM    3  C   UNL     1     -11.957  13.898  67.027  1.00  0.00    -0.459 C  
HETATM    4  O   UNL     1      -9.400  12.644  65.872  1.00  0.00    -0.426 OA 
HETATM    5  C   UNL     1     -10.927  10.983  66.726  1.00  0.00    -0.279 C  
HETATM    6  C   UNL     1     -11.041  15.103  67.276  1.00  0.00    -0.332 C  
HETATM    7  C   UNL     1     -10.632  11.366  64.251  1.00  0.00    -0.416 C  
HETATM    8  C   UNL     1     -11.743  14.220  64.527  1.00  0.00    -0.431 C  
HETATM    9  H   UNL     1      -8.725  11.975  65.848  1.00  0.00     0.000 HD 
HETATM   10  C   UNL     1     -10.716  15.919  66.057  1.00  0.00    -0.289 C  
HETATM   11  C   UNL     1     -10.042  17.243  66.278  1.00  0.00    -0.323 C  
HETATM   12  C   UNL     1     -11.040  15.507  64.823  1.00  0.00    -0.421 C  
ENDROOT
BRANCH   5  13
HETATM   13  C   UNL     1      -9.941   9.799  66.690  1.00  0.00    -0.292 C  
BRANCH  13  14
HETATM   14  C   UNL     1     -10.532   8.519  67.216  1.00  0.00    -0.366 C  
HETATM   15  C   UNL     1     -10.022   7.295  66.980  1.00  0.00    -0.293 C  
HETATM   16  C   UNL     1      -8.775   7.045  66.173  1.00  0.00    -0.155 C  
HETATM   17  C   UNL     1     -10.682   6.050  67.518  1.00  0.00    -0.383 C  
ENDBRANCH  13  14
ENDBRANCH   5  13
TORSDOF 2
ENDMDL
MODEL       23
REMARK 921   NORMALIZED FREE ENERGY PREDICTED BY IDOCK:   -4.94 KCAL/MOL
REMARK 922        TOTAL FREE ENERGY PREDICTED BY IDOCK:   -5.80 KCAL/MOL
REMARK 923 INTER-LIGAND FREE ENERGY PREDICTED BY IDOCK:   -5.56 KCAL/MOL
REMARK 924 INTRA-LIGAND FREE ENERGY PREDICTED BY IDOCK:   -0.24 KCAL/MOL
REMARK 927      BINDING AFFINITY PREDICTED BY RF-SCORE:    0.00 PKD
ROOT
HETATM    1  C   UNL     1     -10.008  13.218  66.079  1.00  0.00    -0.297 C  
HETATM    2  C   UNL     1     -11.248  12.968  67.010  1.00  0.00    -0.289 C  
HETATM    3  C   UNL     1      -8.845  12.204  66.238  1.00  0.00    -0.040 C  
HETATM    4  O   UNL     1     -11.841  11.708  66.715  1.00  0.00    -0.557 OA 
HETATM    5  C   UNL     1     -10.823  12.952  68.513  1.00  0.00    -0.283 C  
HETATM    6  C   UNL     1      -8.944  10.913  65.415  1.00  0.00    -0.209 C  
HETATM    7  C   UNL     1     -12.323  14.061  66.816  1.00  0.00    -0.368 C  
HETATM    8  C   UNL     1     -10.321  13.408  64.574  1.00  0.00    -0.394 C  
HETATM    9  H   UNL     1     -12.591  11.556  67.278  1.00  0.00     0.000 HD 
HETATM   10  C   UNL     1      -9.590  11.065  64.067  1.00  0.00    -0.310 C  
HETATM   11  C   UNL     1      -9.484   9.903  63.121  1.00  0.00    -0.118 C  
HETATM   12  C   UNL     1     -10.207  12.198  63.702  1.00  0.00    -0.459 C  
ENDROOT
BRANCH   5  13
HETATM   13  C   UNL     1     -11.994  12.821  69.506  1.00  0.00    -0.338 C  
BRANCH  13  14
HETATM   14  C   UNL     1     -12.092  11.456  70.132  1.00  0.00    -0.439 C  
HETATM   15  C   UNL     1     -12.739  11.195  71.284  1.00  0.00    -0.531 C  
HETATM   16  C   UNL     1     -13.472  12.234  72.092  1.00  0.00    -0.431 C  
HETATM   17  C   UNL     1     -12.775   9.804  71.868  1.00  0.00    -0.501 C  
ENDBRANCH  13  14
ENDBRANCH   5  13
TORSDOF 2
ENDMDL
MODEL       24
REMARK 921   NORMALIZED FREE ENERGY PREDICTED BY IDOCK:   -4.93 KCAL/MOL
REMARK 922        TOTAL FREE ENERGY PREDICTED BY IDOCK:   -5.79 KCAL/MOL
REMARK 923 INTER-LIGAND FREE ENERGY PREDICTED BY IDOCK:   -5.56 KCAL/MOL
REMARK 924 INTRA-LIGAND FREE ENERGY PREDICTED BY IDOCK:   -0.23 KCAL/MOL
REMARK 927      BINDING AFFINITY PREDICTED BY RF-SCORE:    0.00 PKD
ROOT
HETATM    1  C   UNL     1      -7.956  17.257  67.476  1.00  0.00    -0.194 C  
HETATM    2  C   UNL     1      -9.330  17.011  66.756  1.00  0.00    -0.252 C  
HETATM    3  C   UNL     1      -6.720  17.324  66.541  1.00  0.00    -0.286 C  
HETATM    4  O   UNL     1      -9.622  18.085  65.868  1.00  0.00    -0.520 OA 
HETATM    5  C   UNL     1      -9.291  15.697  65.913  1.00  0.00    -0.357 C  
HETATM    6  C   UNL     1      -6.406  18.690  65.918  1.00  0.00    -0.268 C  
HETATM    7  C   UNL     1     -10.485  16.905  67.775  1.00  0.00    -0.340 C  
HETATM    8  C   UNL     1      -7.917  18.449  68.465  1.00  0.00    -0.333 C  
HETATM    9  H   UNL     1     -10.453  17.937  65.432  1.00  0.00     0.000 HD 
HETATM   10  C   UNL     1      -6.716  19.874  66.790  1.00  0.00    -0.220 C  
HETATM   11  C   UNL     1      -6.195  21.210  66.342  1.00  0.00    -0.333 C  
HETATM   12  C   UNL     1      -7.398  19.748  67.937  1.00  0.00    -0.319 C  
ENDROOT
BRANCH   5  13
HETATM   13  C   UNL     1     -10.633  15.318  65.257  1.00  0.00    -0.438 C  
BRANCH  13  14
HETATM   14  C   UNL     1     -10.566  14.043  64.459  1.00  0.00    -0.332 C  
HETATM   15  C   UNL     1     -11.513  13.086  64.479  1.00  0.00    -0.389 C  
HETATM   16  C   UNL     1     -12.780  13.172  65.288  1.00  0.00    -0.457 C  
HETATM   17  C   UNL     1     -11.367  11.819  63.672  1.00  0.00    -0.525 C  
ENDBRANCH  13  14
ENDBRANCH   5  13
TORSDOF 2
ENDMDL
MODEL       25
REMARK 921   NORMALIZED FREE ENERGY PREDICTED BY IDOCK:   -4.88 KCAL/MOL
REMARK 922        TOTAL FREE ENERGY PREDICTED BY IDOCK:   -5.73 KCAL/MOL
REMARK 923 INTER-LIGAND FREE ENERGY PREDICTED BY IDOCK:   -5.46 KCAL/MOL
REMARK 924 INTRA-LIGAND FREE ENERGY PREDICTED BY IDOCK:   -0.26 KCAL/MOL
REMARK 927      BINDING AFFINITY PREDICTED BY RF-SCORE:    0.00 PKD
ROOT
HETATM    1  C   UNL     1     -10.764  10.452  70.347  1.00  0.00    -0.186 C  
HETATM    2  C   UNL     1     -10.483  10.293  68.811  1.00  0.00    -0.203 C  
HETATM    3  C   UNL     1     -12.091  11.170  70.707  1.00  0.00    -0.458 C  
HETATM    4  O   UNL     1     -11.491   9.490  68.204  1.00  0.00    -0.444 OA 
HETATM    5  C   UNL     1     -10.490  11.682  68.095  1.00  0.00    -0.217 C  
HETATM    6  C   UNL     1     -13.348  10.293  70.777  1.00  0.00    -0.164 C  
HETATM    7  C   UNL     1      -9.116   9.619  68.558  1.00  0.00    -0.131 C  
HETATM    8  C   UNL     1     -10.633   9.161  71.194  1.00  0.00    -0.379 C  
HETATM    9  H   UNL     1     -11.321   9.393  67.275  1.00  0.00     0.000 HD 
HETATM   10  C   UNL     1     -13.123   8.896  71.283  1.00  0.00    -0.241 C  
HETATM   11  C   UNL     1     -14.342   8.082  71.614  1.00  0.00    -0.581 C  
HETATM   12  C   UNL     1     -11.891   8.400  71.467  1.00  0.00    -0.345 C  
ENDROOT
BRANCH   5  13
HETATM   13  C   UNL     1     -10.115  11.632  66.601  1.00  0.00    -0.238 C  
BRANCH  13  14
HETATM   14  C   UNL     1     -11.218  12.113  65.696  1.00  0.00    -0.381 C  
HETATM   15  C   UNL     1     -11.252  11.902  64.366  1.00  0.00    -0.401 C  
HETATM   16  C   UNL     1     -10.200  11.137  63.607  1.00  0.00    -0.444 C  
HETATM   17  C   UNL     1     -12.378  12.436  63.514  1.00  0.00    -0.648 C  
ENDBRANCH  13  14
ENDBRANCH   5  13
TORSDOF 2
ENDMDL
MODEL       26
REMARK 921   NORMALIZED FREE ENERGY PREDICTED BY IDOCK:   -4.87 KCAL/MOL
REMARK 922        TOTAL FREE ENERGY PREDICTED BY IDOCK:   -5.72 KCAL/MOL
REMARK 923 INTER-LIGAND FREE ENERGY PREDICTED BY IDOCK:   -5.38 KCAL/MOL
REMARK 924 INTRA-LIGAND FREE ENERGY PREDICTED BY IDOCK:   -0.34 KCAL/MOL
REMARK 927      BINDING AFFINITY PREDICTED BY RF-SCORE:    0.00 PKD
ROOT
HETATM    1  C   UNL     1      -9.871  10.429  67.823  1.00  0.00    -0.193 C  
HETATM    2  C   UNL     1     -11.098  11.408  67.778  1.00  0.00    -0.265 C  
HETATM    3  C   UNL     1      -9.482   9.919  69.236  1.00  0.00    -0.218 C  
HETATM    4  O   UNL     1     -12.271  10.751  68.248  1.00  0.00    -0.815 OA 
HETATM    5  C   UNL     1     -10.853  12.652  68.691  1.00  0.00    -0.281 C  
HETATM    6  C   UNL     1     -10.228   8.679  69.746  1.00  0.00    -0.206 C  
HETATM    7  C   UNL     1     -11.369  11.901  66.340  1.00  0.00    -0.400 C  
HETATM    8  C   UNL     1      -9.927   9.231  66.842  1.00  0.00    -0.298 C  
HETATM    9  H   UNL     1     -13.014  11.343  68.221  1.00  0.00     0.000 HD 
HETATM   10  C   UNL     1     -10.591   7.674  68.690  1.00  0.00    -0.161 C  
HETATM   11  C   UNL     1     -11.087   6.336  69.159  1.00  0.00    -0.457 C  
HETATM   12  C   UNL     1     -10.448   7.938  67.383  1.00  0.00    -0.360 C  
ENDROOT
BRANCH   5  13
HETATM   13  C   UNL     1     -11.961  13.721  68.624  1.00  0.00    -0.401 C  
BRANCH  13  14
HETATM   14  C   UNL     1     -11.463  15.112  68.914  1.00  0.00    -0.337 C  
HETATM   15  C   UNL     1     -10.880  15.913  68.002  1.00  0.00    -0.317 C  
HETATM   16  C   UNL     1     -10.668  15.533  66.560  1.00  0.00    -0.304 C  
HETATM   17  C   UNL     1     -10.380  17.289  68.369  1.00  0.00    -0.366 C  
ENDBRANCH  13  14
ENDBRANCH   5  13
TORSDOF 2
ENDMDL
MODEL       27
REMARK 921   NORMALIZED FREE ENERGY PREDICTED BY IDOCK:   -4.87 KCAL/MOL
REMARK 922        TOTAL FREE ENERGY PREDICTED BY IDOCK:   -5.72 KCAL/MOL
REMARK 923 INTER-LIGAND FREE ENERGY PREDICTED BY IDOCK:   -5.46 KCAL/MOL
REMARK 924 INTRA-LIGAND FREE ENERGY PREDICTED BY IDOCK:   -0.26 KCAL/MOL
REMARK 927      BINDING AFFINITY PREDICTED BY RF-SCORE:    0.00 PKD
ROOT
HETATM    1  C   UNL     1      -9.842   8.117  71.020  1.00  0.00    -0.212 C  
HETATM    2  C   UNL     1     -11.003   8.826  70.236  1.00  0.00    -0.235 C  
HETATM    3  C   UNL     1      -9.948   8.186  72.566  1.00  0.00    -0.372 C  
HETATM    4  O   UNL     1     -12.250   8.204  70.528  1.00  0.00    -0.491 OA 
HETATM    5  C   UNL     1     -11.115  10.330  70.645  1.00  0.00    -0.358 C  
HETATM    6  C   UNL     1     -10.795   7.100  73.244  1.00  0.00    -0.378 C  
HETATM    7  C   UNL     1     -10.775   8.750  68.710  1.00  0.00    -0.111 C  
HETATM    8  C   UNL     1      -9.530   6.661  70.592  1.00  0.00    -0.174 C  
HETATM    9  H   UNL     1     -12.952   8.634  70.053  1.00  0.00     0.000 HD 
HETATM   10  C   UNL     1     -10.749   5.752  72.583  1.00  0.00    -0.280 C  
HETATM   11  C   UNL     1     -11.344   4.597  73.339  1.00  0.00    -0.394 C  
HETATM   12  C   UNL     1     -10.173   5.569  71.386  1.00  0.00    -0.275 C  
ENDROOT
BRANCH   5  13
HETATM   13  C   UNL     1     -12.158  11.134  69.845  1.00  0.00    -0.418 C  
BRANCH  13  14
HETATM   14  C   UNL     1     -11.958  12.623  69.936  1.00  0.00    -0.365 C  
HETATM   15  C   UNL     1     -12.526  13.408  70.871  1.00  0.00    -0.439 C  
HETATM   16  C   UNL     1     -13.424  12.896  71.967  1.00  0.00    -0.568 C  
HETATM   17  C   UNL     1     -12.302  14.900  70.888  1.00  0.00    -0.392 C  
ENDBRANCH  13  14
ENDBRANCH   5  13
TORSDOF 2
ENDMDL
MODEL       28
REMARK 921   NORMALIZED FREE ENERGY PREDICTED BY IDOCK:   -4.86 KCAL/MOL
REMARK 922        TOTAL FREE ENERGY PREDICTED BY IDOCK:   -5.71 KCAL/MOL
REMARK 923 INTER-LIGAND FREE ENERGY PREDICTED BY IDOCK:   -5.27 KCAL/MOL
REMARK 924 INTRA-LIGAND FREE ENERGY PREDICTED BY IDOCK:   -0.44 KCAL/MOL
REMARK 927      BINDING AFFINITY PREDICTED BY RF-SCORE:    0.00 PKD
ROOT
HETATM    1  C   UNL     1     -10.533  16.450  66.961  1.00  0.00    -0.291 C  
HETATM    2  C   UNL     1     -10.738  15.261  65.956  1.00  0.00    -0.320 C  
HETATM    3  C   UNL     1      -9.997  16.049  68.361  1.00  0.00    -0.220 C  
HETATM    4  O   UNL     1      -9.495  14.623  65.685  1.00  0.00    -0.511 OA 
HETATM    5  C   UNL     1     -11.703  14.187  66.552  1.00  0.00    -0.414 C  
HETATM    6  C   UNL     1      -8.474  15.934  68.504  1.00  0.00    -0.184 C  
HETATM    7  C   UNL     1     -11.325  15.756  64.616  1.00  0.00    -0.343 C  
HETATM    8  C   UNL     1      -9.717  17.654  66.425  1.00  0.00    -0.303 C  
HETATM    9  H   UNL     1      -9.619  13.903  65.076  1.00  0.00     0.000 HD 
HETATM   10  C   UNL     1      -7.680  16.908  67.680  1.00  0.00    -0.179 C  
HETATM   11  C   UNL     1      -6.210  17.014  67.971  1.00  0.00    -0.142 C  
HETATM   12  C   UNL     1      -8.257  17.678  66.745  1.00  0.00    -0.270 C  
ENDROOT
BRANCH   5  13
HETATM   13  C   UNL     1     -12.049  13.034  65.589  1.00  0.00    -0.507 C  
BRANCH  13  14
HETATM   14  C   UNL     1     -11.243  11.788  65.842  1.00  0.00    -0.345 C  
HETATM   15  C   UNL     1     -10.423  11.220  64.938  1.00  0.00    -0.375 C  
HETATM   16  C   UNL     1     -10.183  11.770  63.556  1.00  0.00    -0.483 C  
HETATM   17  C   UNL     1      -9.664   9.953  65.250  1.00  0.00    -0.383 C  
ENDBRANCH  13  14
ENDBRANCH   5  13
TORSDOF 2
ENDMDL
MODEL       29
REMARK 921   NORMALIZED FREE ENERGY PREDICTED BY IDOCK:   -4.86 KCAL/MOL
REMARK 922        TOTAL FREE ENERGY PREDICTED BY IDOCK:   -5.71 KCAL/MOL
REMARK 923 INTER-LIGAND FREE ENERGY PREDICTED BY IDOCK:   -5.50 KCAL/MOL
REMARK 924 INTRA-LIGAND FREE ENERGY PREDICTED BY IDOCK:   -0.21 KCAL/MOL
REMARK 927      BINDING AFFINITY PREDICTED BY RF-SCORE:    0.00 PKD
ROOT
HETATM    1  C   UNL     1     -10.626   9.684  71.216  1.00  0.00    -0.269 C  
HETATM    2  C   UNL     1     -10.479   9.765  69.654  1.00  0.00    -0.242 C  
HETATM    3  C   UNL     1     -12.053   9.360  71.731  1.00  0.00    -0.454 C  
HETATM    4  O   UNL     1     -10.786   8.507  69.063  1.00  0.00    -0.402 OA 
HETATM    5  C   UNL     1     -11.461  10.823  69.056  1.00  0.00    -0.368 C  
HETATM    6  C   UNL     1     -12.426   7.874  71.824  1.00  0.00    -0.352 C  
HETATM    7  C   UNL     1      -9.040  10.148  69.246  1.00  0.00    -0.208 C  
HETATM    8  C   UNL     1      -9.599   8.781  71.944  1.00  0.00    -0.372 C  
HETATM    9  H   UNL     1     -10.698   8.556  68.118  1.00  0.00     0.000 HD 
HETATM   10  C   UNL     1     -11.297   6.955  72.197  1.00  0.00    -0.302 C  
HETATM   11  C   UNL     1     -11.655   5.540  72.552  1.00  0.00    -0.272 C  
HETATM   12  C   UNL     1     -10.027   7.380  72.248  1.00  0.00    -0.206 C  
ENDROOT
BRANCH   5  13
HETATM   13  C   UNL     1     -11.310  11.049  67.539  1.00  0.00    -0.332 C  
BRANCH  13  14
HETATM   14  C   UNL     1     -11.784  12.405  67.090  1.00  0.00    -0.415 C  
HETATM   15  C   UNL     1     -11.849  12.797  65.804  1.00  0.00    -0.484 C  
HETATM   16  C   UNL     1     -11.476  11.922  64.636  1.00  0.00    -0.345 C  
HETATM   17  C   UNL     1     -12.311  14.184  65.426  1.00  0.00    -0.475 C  
ENDBRANCH  13  14
ENDBRANCH   5  13
TORSDOF 2
ENDMDL
MODEL       30
REMARK 921   NORMALIZED FREE ENERGY PREDICTED BY IDOCK:   -4.84 KCAL/MOL
REMARK 922        TOTAL FREE ENERGY PREDICTED BY IDOCK:   -5.68 KCAL/MOL
REMARK 923 INTER-LIGAND FREE ENERGY PREDICTED BY IDOCK:   -5.36 KCAL/MOL
REMARK 924 INTRA-LIGAND FREE ENERGY PREDICTED BY IDOCK:   -0.33 KCAL/MOL
REMARK 927      BINDING AFFINITY PREDICTED BY RF-SCORE:    0.00 PKD
ROOT
HETATM    1  C   UNL     1      -9.344  17.271  66.297  1.00  0.00    -0.248 C  
HETATM    2  C   UNL     1     -10.094  15.908  66.512  1.00  0.00    -0.282 C  
HETATM    3  C   UNL     1     -10.257  18.492  66.012  1.00  0.00    -0.371 C  
HETATM    4  O   UNL     1     -10.940  15.985  67.655  1.00  0.00    -0.325 OA 
HETATM    5  C   UNL     1     -10.991  15.564  65.280  1.00  0.00    -0.391 C  
HETATM    6  C   UNL     1     -10.817  19.228  67.236  1.00  0.00    -0.554 C  
HETATM    7  C   UNL     1      -9.097  14.748  66.731  1.00  0.00    -0.291 C  
HETATM    8  C   UNL     1      -8.305  17.648  67.383  1.00  0.00    -0.217 C  
HETATM    9  H   UNL     1     -11.394  15.160  67.785  1.00  0.00     0.000 HD 
HETATM   10  C   UNL     1      -9.901  19.273  68.427  1.00  0.00    -0.492 C  
HETATM   11  C   UNL     1     -10.284  20.192  69.553  1.00  0.00     0.025 C  
HETATM   12  C   UNL     1      -8.770  18.555  68.477  1.00  0.00    -0.352 C  
ENDROOT
BRANCH   5  13
HETATM   13  C   UNL     1     -11.682  14.188  65.357  1.00  0.00    -0.347 C  
BRANCH  13  14
HETATM   14  C   UNL     1     -11.124  13.189  64.380  1.00  0.00    -0.407 C  
HETATM   15  C   UNL     1     -10.695  11.957  64.717  1.00  0.00    -0.356 C  
HETATM   16  C   UNL     1     -10.738  11.405  66.118  1.00  0.00    -0.320 C  
HETATM   17  C   UNL     1     -10.122  11.014  63.688  1.00  0.00    -0.428 C  
ENDBRANCH  13  14
ENDBRANCH   5  13
TORSDOF 2
ENDMDL
MODEL       31
REMARK 921   NORMALIZED FREE ENERGY PREDICTED BY IDOCK:   -4.84 KCAL/MOL
REMARK 922        TOTAL FREE ENERGY PREDICTED BY IDOCK:   -5.68 KCAL/MOL
REMARK 923 INTER-LIGAND FREE ENERGY PREDICTED BY IDOCK:   -5.45 KCAL/MOL
REMARK 924 INTRA-LIGAND FREE ENERGY PREDICTED BY IDOCK:   -0.23 KCAL/MOL
REMARK 927      BINDING AFFINITY PREDICTED BY RF-SCORE:    0.00 PKD
ROOT
HETATM    1  C   UNL     1     -11.393   9.126  70.141  1.00  0.00    -0.164 C  
HETATM    2  C   UNL     1     -11.086  10.537  69.525  1.00  0.00    -0.268 C  
HETATM    3  C   UNL     1     -10.560   7.953  69.561  1.00  0.00    -0.220 C  
HETATM    4  O   UNL     1      -9.735  10.907  69.784  1.00  0.00    -0.400 OA 
HETATM    5  C   UNL     1     -11.285  10.524  67.975  1.00  0.00    -0.361 C  
HETATM    6  C   UNL     1      -9.187   7.707  70.199  1.00  0.00    -0.154 C  
HETATM    7  C   UNL     1     -12.004  11.624  70.127  1.00  0.00    -0.441 C  
HETATM    8  C   UNL     1     -11.379   9.049  71.689  1.00  0.00    -0.430 C  
HETATM    9  H   UNL     1      -9.549  11.760  69.410  1.00  0.00     0.000 HD 
HETATM   10  C   UNL     1      -9.110   7.986  71.674  1.00  0.00    -0.194 C  
HETATM   11  C   UNL     1      -7.877   7.522  72.396  1.00  0.00    -0.112 C  
HETATM   12  C   UNL     1     -10.109   8.592  72.332  1.00  0.00    -0.365 C  
ENDROOT
BRANCH   5  13
HETATM   13  C   UNL     1     -11.111  11.897  67.297  1.00  0.00    -0.344 C  
BRANCH  13  14
HETATM   14  C   UNL     1     -11.257  11.842  65.800  1.00  0.00    -0.365 C  
HETATM   15  C   UNL     1     -11.955  12.736  65.074  1.00  0.00    -0.456 C  
HETATM   16  C   UNL     1     -12.669  13.926  65.662  1.00  0.00    -0.534 C  
HETATM   17  C   UNL     1     -12.082  12.606  63.575  1.00  0.00    -0.648 C  
ENDBRANCH  13  14
ENDBRANCH   5  13
TORSDOF 2
ENDMDL
MODEL       32
REMARK 921   NORMALIZED FREE ENERGY PREDICTED BY IDOCK:   -4.80 KCAL/MOL
REMARK 922        TOTAL FREE ENERGY PREDICTED BY IDOCK:   -5.64 KCAL/MOL
REMARK 923 INTER-LIGAND FREE ENERGY PREDICTED BY IDOCK:   -5.53 KCAL/MOL
REMARK 924 INTRA-LIGAND FREE ENERGY PREDICTED BY IDOCK:   -0.12 KCAL/MOL
REMARK 927      BINDING AFFINITY PREDICTED BY RF-SCORE:    0.00 PKD
ROOT
HETATM    1  C   UNL     1     -11.218  12.776  66.810  1.00  0.00    -0.338 C  
HETATM    2  C   UNL     1     -10.512  12.051  68.011  1.00  0.00    -0.207 C  
HETATM    3  C   UNL     1     -12.197  13.912  67.206  1.00  0.00    -0.324 C  
HETATM    4  O   UNL     1      -9.704  12.970  68.738  1.00  0.00    -0.404 OA 
HETATM    5  C   UNL     1     -11.564  11.458  69.001  1.00  0.00    -0.383 C  
HETATM    6  C   UNL     1     -11.584  15.302  67.419  1.00  0.00    -0.196 C  
HETATM    7  C   UNL     1      -9.604  10.903  67.516  1.00  0.00    -0.171 C  
HETATM    8  C   UNL     1     -10.283  13.275  65.680  1.00  0.00    -0.295 C  
HETATM    9  H   UNL     1      -9.277  12.531  69.465  1.00  0.00     0.000 HD 
HETATM   10  C   UNL     1     -10.422  15.630  66.524  1.00  0.00    -0.303 C  
HETATM   11  C   UNL     1      -9.950  17.056  66.508  1.00  0.00    -0.318 C  
HETATM   12  C   UNL     1      -9.846  14.704  65.744  1.00  0.00    -0.359 C  
ENDROOT
BRANCH   5  13
HETATM   13  C   UNL     1     -10.962  10.632  70.155  1.00  0.00    -0.292 C  
BRANCH  13  14
HETATM   14  C   UNL     1     -11.950   9.691  70.790  1.00  0.00    -0.356 C  
HETATM   15  C   UNL     1     -12.963  10.081  71.587  1.00  0.00    -0.554 C  
HETATM   16  C   UNL     1     -13.257  11.517  71.934  1.00  0.00    -0.479 C  
HETATM   17  C   UNL     1     -13.902   9.078  72.213  1.00  0.00    -0.547 C  
ENDBRANCH  13  14
ENDBRANCH   5  13
TORSDOF 2
ENDMDL
MODEL       33
REMARK 921   NORMALIZED FREE ENERGY PREDICTED BY IDOCK:   -4.80 KCAL/MOL
REMARK 922        TOTAL FREE ENERGY PREDICTED BY IDOCK:   -5.64 KCAL/MOL
REMARK 923 INTER-LIGAND FREE ENERGY PREDICTED BY IDOCK:   -5.45 KCAL/MOL
REMARK 924 INTRA-LIGAND FREE ENERGY PREDICTED BY IDOCK:   -0.19 KCAL/MOL
REMARK 927      BINDING AFFINITY PREDICTED BY RF-SCORE:    0.00 PKD
ROOT
HETATM    1  C   UNL     1     -10.971  13.729  66.767  1.00  0.00    -0.307 C  
HETATM    2  C   UNL     1     -10.508  12.634  67.793  1.00  0.00    -0.221 C  
HETATM    3  C   UNL     1     -11.828  14.876  67.365  1.00  0.00    -0.245 C  
HETATM    4  O   UNL     1      -9.672  13.212  68.790  1.00  0.00    -0.402 OA 
HETATM    5  C   UNL     1     -11.735  11.993  68.517  1.00  0.00    -0.387 C  
HETATM    6  C   UNL     1     -11.062  16.059  67.971  1.00  0.00    -0.334 C  
HETATM    7  C   UNL     1      -9.712  11.511  67.091  1.00  0.00    -0.199 C  
HETATM    8  C   UNL     1      -9.857  14.332  65.875  1.00  0.00    -0.322 C  
HETATM    9  H   UNL     1      -9.391  12.549  69.410  1.00  0.00     0.000 HD 
HETATM   10  C   UNL     1      -9.774  16.406  67.279  1.00  0.00    -0.239 C  
HETATM   11  C   UNL     1      -9.117  17.701  67.663  1.00  0.00    -0.241 C  
HETATM   12  C   UNL     1      -9.243  15.616  66.335  1.00  0.00    -0.346 C  
ENDROOT
BRANCH   5  13
HETATM   13  C   UNL     1     -11.382  10.829  69.464  1.00  0.00    -0.355 C  
BRANCH  13  14
HETATM   14  C   UNL     1     -12.459  10.539  70.475  1.00  0.00    -0.433 C  
HETATM   15  C   UNL     1     -12.332   9.657  71.484  1.00  0.00    -0.477 C  
HETATM   16  C   UNL     1     -11.084   8.856  71.752  1.00  0.00    -0.433 C  
HETATM   17  C   UNL     1     -13.464   9.395  72.448  1.00  0.00    -0.506 C  
ENDBRANCH  13  14
ENDBRANCH   5  13
TORSDOF 2
ENDMDL
MODEL       34
REMARK 921   NORMALIZED FREE ENERGY PREDICTED BY IDOCK:   -4.79 KCAL/MOL
REMARK 922        TOTAL FREE ENERGY PREDICTED BY IDOCK:   -5.62 KCAL/MOL
REMARK 923 INTER-LIGAND FREE ENERGY PREDICTED BY IDOCK:   -5.24 KCAL/MOL
REMARK 924 INTRA-LIGAND FREE ENERGY PREDICTED BY IDOCK:   -0.39 KCAL/MOL
REMARK 927      BINDING AFFINITY PREDICTED BY RF-SCORE:    0.00 PKD
ROOT
HETATM    1  C   UNL     1      -9.358  16.317  66.458  1.00  0.00    -0.298 C  
HETATM    2  C   UNL     1      -9.539  15.630  67.858  1.00  0.00    -0.206 C  
HETATM    3  C   UNL     1     -10.532  17.226  66.009  1.00  0.00    -0.285 C  
HETATM    4  O   UNL     1      -9.630  16.613  68.884  1.00  0.00    -0.240 OA 
HETATM    5  C   UNL     1     -10.849  14.780  67.898  1.00  0.00    -0.269 C  
HETATM    6  C   UNL     1     -10.498  18.679  66.499  1.00  0.00    -0.465 C  
HETATM    7  C   UNL     1      -8.346  14.705  68.186  1.00  0.00    -0.144 C  
HETATM    8  C   UNL     1      -8.018  17.064  66.241  1.00  0.00    -0.343 C  
HETATM    9  H   UNL     1      -9.739  16.198  69.731  1.00  0.00     0.000 HD 
HETATM   10  C   UNL     1      -9.126  19.280  66.619  1.00  0.00    -0.374 C  
HETATM   11  C   UNL     1      -9.043  20.763  66.842  1.00  0.00    -0.208 C  
HETATM   12  C   UNL     1      -8.016  18.537  66.499  1.00  0.00    -0.295 C  
ENDROOT
BRANCH   5  13
HETATM   13  C   UNL     1     -11.053  13.981  69.200  1.00  0.00    -0.294 C  
BRANCH  13  14
HETATM   14  C   UNL     1     -12.420  14.168  69.804  1.00  0.00    -0.266 C  
HETATM   15  C   UNL     1     -12.665  14.889  70.914  1.00  0.00    -0.420 C  
HETATM   16  C   UNL     1     -11.605  15.625  71.692  1.00  0.00    -0.519 C  
HETATM   17  C   UNL     1     -14.058  15.013  71.480  1.00  0.00    -0.613 C  
ENDBRANCH  13  14
ENDBRANCH   5  13
TORSDOF 2
ENDMDL
MODEL       35
REMARK 921   NORMALIZED FREE ENERGY PREDICTED BY IDOCK:   -4.77 KCAL/MOL
REMARK 922        TOTAL FREE ENERGY PREDICTED BY IDOCK:   -5.61 KCAL/MOL
REMARK 923 INTER-LIGAND FREE ENERGY PREDICTED BY IDOCK:   -5.40 KCAL/MOL
REMARK 924 INTRA-LIGAND FREE ENERGY PREDICTED BY IDOCK:   -0.21 KCAL/MOL
REMARK 927      BINDING AFFINITY PREDICTED BY RF-SCORE:    0.00 PKD
ROOT
HETATM    1  C   UNL     1     -10.240   9.986  70.091  1.00  0.00    -0.297 C  
HETATM    2  C   UNL     1     -10.106   9.113  68.793  1.00  0.00    -0.197 C  
HETATM    3  C   UNL     1     -11.455  10.950  70.119  1.00  0.00    -0.405 C  
HETATM    4  O   UNL     1     -11.234   8.256  68.654  1.00  0.00    -0.321 OA 
HETATM    5  C   UNL     1     -10.036  10.015  67.519  1.00  0.00    -0.232 C  
HETATM    6  C   UNL     1     -12.782  10.365  70.621  1.00  0.00    -0.417 C  
HETATM    7  C   UNL     1      -8.838   8.232  68.839  1.00  0.00    -0.140 C  
HETATM    8  C   UNL     1     -10.165   9.215  71.433  1.00  0.00    -0.402 C  
HETATM    9  H   UNL     1     -11.153   7.728  67.869  1.00  0.00     0.000 HD 
HETATM   10  C   UNL     1     -12.654   9.334  71.707  1.00  0.00    -0.461 C  
HETATM   11  C   UNL     1     -13.914   8.919  72.411  1.00  0.00    -0.516 C  
HETATM   12  C   UNL     1     -11.465   8.825  72.062  1.00  0.00    -0.441 C  
ENDROOT
BRANCH   5  13
HETATM   13  C   UNL     1      -9.794   9.247  66.205  1.00  0.00    -0.361 C  
BRANCH  13  14
HETATM   14  C   UNL     1      -9.888  10.119  64.982  1.00  0.00    -0.392 C  
HETATM   15  C   UNL     1      -9.116   9.975  63.888  1.00  0.00    -0.296 C  
HETATM   16  C   UNL     1      -8.066   8.907  63.732  1.00  0.00    -0.163 C  
HETATM   17  C   UNL     1      -9.247  10.904  62.705  1.00  0.00    -0.357 C  
ENDBRANCH  13  14
ENDBRANCH   5  13
TORSDOF 2
ENDMDL
MODEL       36
REMARK 921   NORMALIZED FREE ENERGY PREDICTED BY IDOCK:   -4.76 KCAL/MOL
REMARK 922        TOTAL FREE ENERGY PREDICTED BY IDOCK:   -5.59 KCAL/MOL
REMARK 923 INTER-LIGAND FREE ENERGY PREDICTED BY IDOCK:   -5.30 KCAL/MOL
REMARK 924 INTRA-LIGAND FREE ENERGY PREDICTED BY IDOCK:   -0.29 KCAL/MOL
REMARK 927      BINDING AFFINITY PREDICTED BY RF-SCORE:    0.00 PKD
ROOT
HETATM    1  C   UNL     1     -10.142  13.391  65.810  1.00  0.00    -0.297 C  
HETATM    2  C   UNL     1     -10.931  14.749  65.818  1.00  0.00    -0.334 C  
HETATM    3  C   UNL     1      -9.211  13.158  67.029  1.00  0.00    -0.233 C  
HETATM    4  O   UNL     1     -11.805  14.806  66.941  1.00  0.00    -0.354 OA 
HETATM    5  C   UNL     1      -9.952  15.962  65.917  1.00  0.00    -0.377 C  
HETATM    6  C   UNL     1      -9.858  12.540  68.276  1.00  0.00    -0.227 C  
HETATM    7  C   UNL     1     -11.782  14.909  64.539  1.00  0.00    -0.388 C  
HETATM    8  C   UNL     1     -10.991  12.119  65.562  1.00  0.00    -0.343 C  
HETATM    9  H   UNL     1     -12.283  15.628  66.946  1.00  0.00     0.000 HD 
HETATM   10  C   UNL     1     -10.949  11.545  68.001  1.00  0.00    -0.284 C  
HETATM   11  C   UNL     1     -11.437  10.724  69.161  1.00  0.00    -0.368 C  
HETATM   12  C   UNL     1     -11.450  11.366  66.770  1.00  0.00    -0.157 C  
ENDROOT
BRANCH   5  13
HETATM   13  C   UNL     1     -10.633  17.341  65.821  1.00  0.00    -0.198 C  
BRANCH  13  14
HETATM   14  C   UNL     1     -10.643  18.090  67.127  1.00  0.00    -0.337 C  
HETATM   15  C   UNL     1     -10.015  19.264  67.332  1.00  0.00    -0.462 C  
HETATM   16  C   UNL     1      -9.235  19.998  66.273  1.00  0.00    -0.426 C  
HETATM   17  C   UNL     1     -10.045  19.948  68.677  1.00  0.00    -0.518 C  
ENDBRANCH  13  14
ENDBRANCH   5  13
TORSDOF 2
ENDMDL
MODEL       37
REMARK 921   NORMALIZED FREE ENERGY PREDICTED BY IDOCK:   -4.73 KCAL/MOL
REMARK 922        TOTAL FREE ENERGY PREDICTED BY IDOCK:   -5.56 KCAL/MOL
REMARK 923 INTER-LIGAND FREE ENERGY PREDICTED BY IDOCK:   -5.28 KCAL/MOL
REMARK 924 INTRA-LIGAND FREE ENERGY PREDICTED BY IDOCK:   -0.28 KCAL/MOL
REMARK 927      BINDING AFFINITY PREDICTED BY RF-SCORE:    0.00 PKD
ROOT
HETATM    1  C   UNL     1      -9.865   6.769  72.449  1.00  0.00    -0.169 C  
HETATM    2  C   UNL     1     -10.891   7.452  71.476  1.00  0.00    -0.224 C  
HETATM    3  C   UNL     1     -10.473   6.189  73.753  1.00  0.00    -0.295 C  
HETATM    4  O   UNL     1     -11.850   6.503  71.022  1.00  0.00    -0.349 OA 
HETATM    5  C   UNL     1     -11.666   8.600  72.199  1.00  0.00    -0.442 C  
HETATM    6  C   UNL     1     -11.035   4.764  73.672  1.00  0.00    -0.391 C  
HETATM    7  C   UNL     1     -10.181   8.045  70.239  1.00  0.00    -0.200 C  
HETATM    8  C   UNL     1      -8.927   5.716  71.807  1.00  0.00    -0.142 C  
HETATM    9  H   UNL     1     -12.471   6.916  70.434  1.00  0.00     0.000 HD 
HETATM   10  C   UNL     1     -10.295   3.839  72.747  1.00  0.00    -0.238 C  
HETATM   11  C   UNL     1     -10.637   2.378  72.822  1.00  0.00    -0.205 C  
HETATM   12  C   UNL     1      -9.346   4.284  71.912  1.00  0.00    -0.186 C  
ENDROOT
BRANCH   5  13
HETATM   13  C   UNL     1     -12.618   9.400  71.289  1.00  0.00    -0.403 C  
BRANCH  13  14
HETATM   14  C   UNL     1     -13.154  10.647  71.941  1.00  0.00    -0.563 C  
HETATM   15  C   UNL     1     -12.911  11.896  71.500  1.00  0.00    -0.427 C  
HETATM   16  C   UNL     1     -12.087  12.214  70.280  1.00  0.00    -0.385 C  
HETATM   17  C   UNL     1     -13.460  13.105  72.219  1.00  0.00    -0.665 C  
ENDBRANCH  13  14
ENDBRANCH   5  13
TORSDOF 2
ENDMDL
MODEL       38
REMARK 921   NORMALIZED FREE ENERGY PREDICTED BY IDOCK:   -4.71 KCAL/MOL
REMARK 922        TOTAL FREE ENERGY PREDICTED BY IDOCK:   -5.54 KCAL/MOL
REMARK 923 INTER-LIGAND FREE ENERGY PREDICTED BY IDOCK:   -5.18 KCAL/MOL
REMARK 924 INTRA-LIGAND FREE ENERGY PREDICTED BY IDOCK:   -0.36 KCAL/MOL
REMARK 927      BINDING AFFINITY PREDICTED BY RF-SCORE:    0.00 PKD
ROOT
HETATM    1  C   UNL     1      -7.911  17.445  67.472  1.00  0.00    -0.209 C  
HETATM    2  C   UNL     1      -9.303  17.033  66.875  1.00  0.00    -0.251 C  
HETATM    3  C   UNL     1      -6.696  17.224  66.532  1.00  0.00    -0.286 C  
HETATM    4  O   UNL     1      -9.602  17.821  65.727  1.00  0.00    -0.519 OA 
HETATM    5  C   UNL     1      -9.300  15.535  66.433  1.00  0.00    -0.330 C  
HETATM    6  C   UNL     1      -6.378  18.356  65.547  1.00  0.00    -0.310 C  
HETATM    7  C   UNL     1     -10.437  17.237  67.904  1.00  0.00    -0.382 C  
HETATM    8  C   UNL     1      -7.833  18.865  68.087  1.00  0.00    -0.327 C  
HETATM    9  H   UNL     1     -10.445  17.573  65.366  1.00  0.00     0.000 HD 
HETATM   10  C   UNL     1      -6.653  19.742  66.057  1.00  0.00    -0.242 C  
HETATM   11  C   UNL     1      -6.126  20.890  65.244  1.00  0.00    -0.278 C  
HETATM   12  C   UNL     1      -7.311  19.955  67.206  1.00  0.00    -0.292 C  
ENDROOT
BRANCH   5  13
HETATM   13  C   UNL     1     -10.662  15.013  65.934  1.00  0.00    -0.337 C  
BRANCH  13  14
HETATM   14  C   UNL     1     -10.883  13.553  66.230  1.00  0.00    -0.291 C  
HETATM   15  C   UNL     1     -11.431  13.085  67.368  1.00  0.00    -0.380 C  
HETATM   16  C   UNL     1     -11.918  13.963  68.491  1.00  0.00    -0.394 C  
HETATM   17  C   UNL     1     -11.599  11.605  67.609  1.00  0.00    -0.349 C  
ENDBRANCH  13  14
ENDBRANCH   5  13
TORSDOF 2
ENDMDL
MODEL       39
REMARK 921   NORMALIZED FREE ENERGY PREDICTED BY IDOCK:   -4.66 KCAL/MOL
REMARK 922        TOTAL FREE ENERGY PREDICTED BY IDOCK:   -5.49 KCAL/MOL
REMARK 923 INTER-LIGAND FREE ENERGY PREDICTED BY IDOCK:   -5.16 KCAL/MOL
REMARK 924 INTRA-LIGAND FREE ENERGY PREDICTED BY IDOCK:   -0.33 KCAL/MOL
REMARK 927      BINDING AFFINITY PREDICTED BY RF-SCORE:    0.00 PKD
ROOT
HETATM    1  C   UNL     1     -10.011   8.580  70.259  1.00  0.00    -0.196 C  
HETATM    2  C   UNL     1     -10.043   9.273  68.850  1.00  0.00    -0.195 C  
HETATM    3  C   UNL     1     -10.736   9.353  71.393  1.00  0.00    -0.407 C  
HETATM    4  O   UNL     1     -11.384   9.394  68.388  1.00  0.00    -0.479 OA 
HETATM    5  C   UNL     1      -9.434  10.710  68.921  1.00  0.00    -0.199 C  
HETATM    6  C   UNL     1     -12.244   9.108  71.533  1.00  0.00    -0.422 C  
HETATM    7  C   UNL     1      -9.249   8.456  67.807  1.00  0.00    -0.142 C  
HETATM    8  C   UNL     1     -10.447   7.094  70.290  1.00  0.00    -0.232 C  
HETATM    9  H   UNL     1     -11.404   9.813  67.536  1.00  0.00     0.000 HD 
HETATM   10  C   UNL     1     -12.696   7.712  71.207  1.00  0.00    -0.306 C  
HETATM   11  C   UNL     1     -14.107   7.346  71.571  1.00  0.00    -0.541 C  
HETATM   12  C   UNL     1     -11.873   6.815  70.647  1.00  0.00    -0.442 C  
ENDROOT
BRANCH   5  13
HETATM   13  C   UNL     1      -9.324  11.425  67.560  1.00  0.00    -0.166 C  
BRANCH  13  14
HETATM   14  C   UNL     1     -10.435  12.411  67.316  1.00  0.00    -0.237 C  
HETATM   15  C   UNL     1     -11.094  12.537  66.148  1.00  0.00    -0.336 C  
HETATM   16  C   UNL     1     -10.822  11.689  64.933  1.00  0.00    -0.359 C  
HETATM   17  C   UNL     1     -12.181  13.567  65.965  1.00  0.00    -0.493 C  
ENDBRANCH  13  14
ENDBRANCH   5  13
TORSDOF 2
ENDMDL
MODEL       40
REMARK 921   NORMALIZED FREE ENERGY PREDICTED BY IDOCK:   -4.66 KCAL/MOL
REMARK 922        TOTAL FREE ENERGY PREDICTED BY IDOCK:   -5.48 KCAL/MOL
REMARK 923 INTER-LIGAND FREE ENERGY PREDICTED BY IDOCK:   -5.11 KCAL/MOL
REMARK 924 INTRA-LIGAND FREE ENERGY PREDICTED BY IDOCK:   -0.37 KCAL/MOL
REMARK 927      BINDING AFFINITY PREDICTED BY RF-SCORE:    0.00 PKD
ROOT
HETATM    1  C   UNL     1      -9.739   8.354  70.974  1.00  0.00    -0.218 C  
HETATM    2  C   UNL     1     -10.860   8.950  70.050  1.00  0.00    -0.227 C  
HETATM    3  C   UNL     1     -10.019   8.443  72.498  1.00  0.00    -0.356 C  
HETATM    4  O   UNL     1     -12.077   8.233  70.224  1.00  0.00    -0.434 OA 
HETATM    5  C   UNL     1     -11.137  10.447  70.403  1.00  0.00    -0.371 C  
HETATM    6  C   UNL     1     -10.845   7.304  73.110  1.00  0.00    -0.401 C  
HETATM    7  C   UNL     1     -10.461   8.865  68.560  1.00  0.00    -0.218 C  
HETATM    8  C   UNL     1      -9.265   6.921  70.623  1.00  0.00    -0.158 C  
HETATM    9  H   UNL     1     -12.755   8.593  69.664  1.00  0.00     0.000 HD 
HETATM   10  C   UNL     1     -10.619   5.952  72.496  1.00  0.00    -0.256 C  
HETATM   11  C   UNL     1     -11.198   4.767  73.215  1.00  0.00    -0.421 C  
HETATM   12  C   UNL     1      -9.902   5.795  71.373  1.00  0.00    -0.213 C  
ENDROOT
BRANCH   5  13
HETATM   13  C   UNL     1     -12.147  11.146  69.473  1.00  0.00    -0.396 C  
BRANCH  13  14
HETATM   14  C   UNL     1     -11.743  12.549  69.105  1.00  0.00    -0.375 C  
HETATM   15  C   UNL     1     -11.482  12.957  67.849  1.00  0.00    -0.362 C  
HETATM   16  C   UNL     1     -11.580  12.068  66.637  1.00  0.00    -0.389 C  
HETATM   17  C   UNL     1     -11.056  14.375  67.555  1.00  0.00    -0.312 C  
ENDBRANCH  13  14
ENDBRANCH   5  13
TORSDOF 2
ENDMDL
MODEL       41
REMARK 921   NORMALIZED FREE ENERGY PREDICTED BY IDOCK:   -4.64 KCAL/MOL
REMARK 922        TOTAL FREE ENERGY PREDICTED BY IDOCK:   -5.46 KCAL/MOL
REMARK 923 INTER-LIGAND FREE ENERGY PREDICTED BY IDOCK:   -5.12 KCAL/MOL
REMARK 924 INTRA-LIGAND FREE ENERGY PREDICTED BY IDOCK:   -0.35 KCAL/MOL
REMARK 927      BINDING AFFINITY PREDICTED BY RF-SCORE:    0.00 PKD
ROOT
HETATM    1  C   UNL     1     -10.849  14.479  66.820  1.00  0.00    -0.305 C  
HETATM    2  C   UNL     1     -10.213  15.253  68.029  1.00  0.00    -0.230 C  
HETATM    3  C   UNL     1      -9.855  13.646  65.969  1.00  0.00    -0.290 C  
HETATM    4  O   UNL     1      -9.641  14.337  68.957  1.00  0.00    -0.367 OA 
HETATM    5  C   UNL     1      -9.075  16.208  67.543  1.00  0.00    -0.207 C  
HETATM    6  C   UNL     1      -9.558  12.223  66.459  1.00  0.00    -0.242 C  
HETATM    7  C   UNL     1     -11.272  16.093  68.776  1.00  0.00    -0.365 C  
HETATM    8  C   UNL     1     -12.091  13.613  67.152  1.00  0.00    -0.404 C  
HETATM    9  H   UNL     1      -9.255  14.805  69.688  1.00  0.00     0.000 HD 
HETATM   10  C   UNL     1     -10.715  11.520  67.112  1.00  0.00    -0.294 C  
HETATM   11  C   UNL     1     -10.562  10.049  67.377  1.00  0.00    -0.330 C  
HETATM   12  C   UNL     1     -11.852  12.161  67.417  1.00  0.00    -0.297 C  
ENDROOT
BRANCH   5  13
HETATM   13  C   UNL     1      -8.466  17.090  68.650  1.00  0.00    -0.262 C  
BRANCH  13  14
HETATM   14  C   UNL     1      -7.721  18.284  68.115  1.00  0.00    -0.288 C  
HETATM   15  C   UNL     1      -8.279  19.491  67.901  1.00  0.00    -0.345 C  
HETATM   16  C   UNL     1      -9.721  19.815  68.189  1.00  0.00    -0.506 C  
HETATM   17  C   UNL     1      -7.478  20.639  67.336  1.00  0.00    -0.384 C  
ENDBRANCH  13  14
ENDBRANCH   5  13
TORSDOF 2
ENDMDL
MODEL       42
REMARK 921   NORMALIZED FREE ENERGY PREDICTED BY IDOCK:   -4.63 KCAL/MOL
REMARK 922        TOTAL FREE ENERGY PREDICTED BY IDOCK:   -5.45 KCAL/MOL
REMARK 923 INTER-LIGAND FREE ENERGY PREDICTED BY IDOCK:   -5.20 KCAL/MOL
REMARK 924 INTRA-LIGAND FREE ENERGY PREDICTED BY IDOCK:   -0.25 KCAL/MOL
REMARK 927      BINDING AFFINITY PREDICTED BY RF-SCORE:    0.00 PKD
ROOT
HETATM    1  C   UNL     1      -9.954  15.620  68.584  1.00  0.00    -0.208 C  
HETATM    2  C   UNL     1     -11.108  14.563  68.455  1.00  0.00    -0.256 C  
HETATM    3  C   UNL     1      -9.073  15.796  67.320  1.00  0.00    -0.219 C  
HETATM    4  O   UNL     1     -12.027  14.956  67.441  1.00  0.00    -0.427 OA 
HETATM    5  C   UNL     1     -10.541  13.161  68.063  1.00  0.00    -0.246 C  
HETATM    6  C   UNL     1      -9.582  16.784  66.263  1.00  0.00    -0.313 C  
HETATM    7  C   UNL     1     -11.889  14.422  69.781  1.00  0.00    -0.375 C  
HETATM    8  C   UNL     1     -10.371  17.013  69.118  1.00  0.00    -0.313 C  
HETATM    9  H   UNL     1     -12.726  14.317  67.363  1.00  0.00     0.000 HD 
HETATM   10  C   UNL     1     -10.311  17.980  66.806  1.00  0.00    -0.373 C  
HETATM   11  C   UNL     1     -10.603  19.100  65.848  1.00  0.00    -0.495 C  
HETATM   12  C   UNL     1     -10.660  18.069  68.098  1.00  0.00    -0.334 C  
ENDROOT
BRANCH   5  13
HETATM   13  C   UNL     1     -11.592  12.036  68.020  1.00  0.00    -0.407 C  
BRANCH  13  14
HETATM   14  C   UNL     1     -11.160  10.851  67.198  1.00  0.00    -0.308 C  
HETATM   15  C   UNL     1     -10.691   9.700  67.716  1.00  0.00    -0.316 C  
HETATM   16  C   UNL     1     -10.554   9.435  69.193  1.00  0.00    -0.234 C  
HETATM   17  C   UNL     1     -10.250   8.560  66.830  1.00  0.00    -0.375 C  
ENDBRANCH  13  14
ENDBRANCH   5  13
TORSDOF 2
ENDMDL
MODEL       43
REMARK 921   NORMALIZED FREE ENERGY PREDICTED BY IDOCK:   -4.61 KCAL/MOL
REMARK 922        TOTAL FREE ENERGY PREDICTED BY IDOCK:   -5.43 KCAL/MOL
REMARK 923 INTER-LIGAND FREE ENERGY PREDICTED BY IDOCK:   -5.17 KCAL/MOL
REMARK 924 INTRA-LIGAND FREE ENERGY PREDICTED BY IDOCK:   -0.26 KCAL/MOL
REMARK 927      BINDING AFFINITY PREDICTED BY RF-SCORE:    0.00 PKD
ROOT
HETATM    1  C   UNL     1     -11.395  15.067  69.213  1.00  0.00    -0.311 C  
HETATM    2  C   UNL     1     -10.975  13.618  68.779  1.00  0.00    -0.264 C  
HETATM    3  C   UNL     1     -12.907  15.262  69.499  1.00  0.00     0.250 C  
HETATM    4  O   UNL     1     -11.255  12.689  69.821  1.00  0.00    -0.474 OA 
HETATM    5  C   UNL     1     -11.768  13.163  67.512  1.00  0.00    -0.414 C  
HETATM    6  C   UNL     1     -13.385  14.919  70.916  1.00  0.00    -0.393 C  
HETATM    7  C   UNL     1      -9.465  13.543  68.463  1.00  0.00    -0.131 C  
HETATM    8  C   UNL     1     -10.570  15.692  70.366  1.00  0.00    -0.287 C  
HETATM    9  H   UNL     1     -11.001  11.812  69.558  1.00  0.00     0.000 HD 
HETATM   10  C   UNL     1     -12.400  15.216  72.011  1.00  0.00    -0.429 C  
HETATM   11  C   UNL     1     -12.903  15.144  73.425  1.00  0.00    -0.661 C  
HETATM   12  C   UNL     1     -11.132  15.564  71.746  1.00  0.00    -0.237 C  
ENDROOT
BRANCH   5  13
HETATM   13  C   UNL     1     -11.342  11.793  66.949  1.00  0.00    -0.386 C  
BRANCH  13  14
HETATM   14  C   UNL     1     -10.915  11.851  65.507  1.00  0.00    -0.347 C  
HETATM   15  C   UNL     1     -10.236  10.872  64.879  1.00  0.00    -0.381 C  
HETATM   16  C   UNL     1      -9.831   9.575  65.530  1.00  0.00    -0.304 C  
HETATM   17  C   UNL     1      -9.816  11.008  63.435  1.00  0.00    -0.404 C  
ENDBRANCH  13  14
ENDBRANCH   5  13
TORSDOF 2
ENDMDL
MODEL       44
REMARK 921   NORMALIZED FREE ENERGY PREDICTED BY IDOCK:   -4.60 KCAL/MOL
REMARK 922        TOTAL FREE ENERGY PREDICTED BY IDOCK:   -5.42 KCAL/MOL
REMARK 923 INTER-LIGAND FREE ENERGY PREDICTED BY IDOCK:   -5.10 KCAL/MOL
REMARK 924 INTRA-LIGAND FREE ENERGY PREDICTED BY IDOCK:   -0.31 KCAL/MOL
REMARK 927      BINDING AFFINITY PREDICTED BY RF-SCORE:    0.00 PKD
ROOT
HETATM    1  C   UNL     1      -9.181  15.857  66.688  1.00  0.00    -0.280 C  
HETATM    2  C   UNL     1     -10.092  14.837  67.460  1.00  0.00    -0.224 C  
HETATM    3  C   UNL     1      -9.928  16.811  65.720  1.00  0.00    -0.242 C  
HETATM    4  O   UNL     1     -11.013  15.531  68.296  1.00  0.00    -0.278 OA 
HETATM    5  C   UNL     1     -10.920  13.964  66.465  1.00  0.00    -0.300 C  
HETATM    6  C   UNL     1     -10.498  18.098  66.331  1.00  0.00    -0.364 C  
HETATM    7  C   UNL     1      -9.250  13.898  68.352  1.00  0.00    -0.194 C  
HETATM    8  C   UNL     1      -8.197  16.676  67.560  1.00  0.00    -0.180 C  
HETATM    9  H   UNL     1     -11.564  14.914  68.763  1.00  0.00     0.000 HD 
HETATM   10  C   UNL     1      -9.681  18.692  67.443  1.00  0.00    -0.330 C  
HETATM   11  C   UNL     1     -10.049  20.075  67.901  1.00  0.00    -0.559 C  
HETATM   12  C   UNL     1      -8.644  18.038  67.987  1.00  0.00    -0.267 C  
ENDROOT
BRANCH   5  13
HETATM   13  C   UNL     1     -11.763  12.859  67.132  1.00  0.00    -0.437 C  
BRANCH  13  14
HETATM   14  C   UNL     1     -11.242  11.472  66.866  1.00  0.00    -0.363 C  
HETATM   15  C   UNL     1     -11.089  10.526  67.811  1.00  0.00    -0.382 C  
HETATM   16  C   UNL     1     -11.441  10.721  69.263  1.00  0.00    -0.369 C  
HETATM   17  C   UNL     1     -10.535   9.162  67.478  1.00  0.00    -0.335 C  
ENDBRANCH  13  14
ENDBRANCH   5  13
TORSDOF 2
ENDMDL
MODEL       45
REMARK 921   NORMALIZED FREE ENERGY PREDICTED BY IDOCK:   -4.60 KCAL/MOL
REMARK 922        TOTAL FREE ENERGY PREDICTED BY IDOCK:   -5.42 KCAL/MOL
REMARK 923 INTER-LIGAND FREE ENERGY PREDICTED BY IDOCK:   -5.18 KCAL/MOL
REMARK 924 INTRA-LIGAND FREE ENERGY PREDICTED BY IDOCK:   -0.24 KCAL/MOL
REMARK 927      BINDING AFFINITY PREDICTED BY RF-SCORE:    0.00 PKD
ROOT
HETATM    1  C   UNL     1      -9.589  17.872  68.094  1.00  0.00    -0.306 C  
HETATM    2  C   UNL     1      -9.700  17.430  66.592  1.00  0.00    -0.290 C  
HETATM    3  C   UNL     1      -9.025  16.798  69.062  1.00  0.00    -0.188 C  
HETATM    4  O   UNL     1      -8.411  17.130  66.068  1.00  0.00    -0.482 OA 
HETATM    5  C   UNL     1     -10.579  16.145  66.453  1.00  0.00    -0.269 C  
HETATM    6  C   UNL     1      -7.498  16.721  69.183  1.00  0.00    -0.196 C  
HETATM    7  C   UNL     1     -10.323  18.545  65.724  1.00  0.00    -0.224 C  
HETATM    8  C   UNL     1      -8.869  19.221  68.348  1.00  0.00    -0.395 C  
HETATM    9  H   UNL     1      -8.479  16.862  65.158  1.00  0.00     0.000 HD 
HETATM   10  C   UNL     1      -6.781  18.037  69.070  1.00  0.00    -0.252 C  
HETATM   11  C   UNL     1      -5.324  18.058  69.435  1.00  0.00    -0.198 C  
HETATM   12  C   UNL     1      -7.415  19.156  68.692  1.00  0.00    -0.370 C  
ENDROOT
BRANCH   5  13
HETATM   13  C   UNL     1     -10.834  15.700  64.999  1.00  0.00    -0.468 C  
BRANCH  13  14
HETATM   14  C   UNL     1     -10.377  14.294  64.721  1.00  0.00    -0.373 C  
HETATM   15  C   UNL     1     -11.068  13.190  65.065  1.00  0.00    -0.322 C  
HETATM   16  C   UNL     1     -12.405  13.216  65.759  1.00  0.00    -0.496 C  
HETATM   17  C   UNL     1     -10.536  11.807  64.777  1.00  0.00    -0.351 C  
ENDBRANCH  13  14
ENDBRANCH   5  13
TORSDOF 2
ENDMDL
MODEL       46
REMARK 921   NORMALIZED FREE ENERGY PREDICTED BY IDOCK:   -4.60 KCAL/MOL
REMARK 922        TOTAL FREE ENERGY PREDICTED BY IDOCK:   -5.41 KCAL/MOL
REMARK 923 INTER-LIGAND FREE ENERGY PREDICTED BY IDOCK:   -5.02 KCAL/MOL
REMARK 924 INTRA-LIGAND FREE ENERGY PREDICTED BY IDOCK:   -0.39 KCAL/MOL
REMARK 927      BINDING AFFINITY PREDICTED BY RF-SCORE:    0.00 PKD
ROOT
HETATM    1  C   UNL     1      -9.325  16.803  68.692  1.00  0.00    -0.252 C  
HETATM    2  C   UNL     1     -10.302  15.785  68.004  1.00  0.00    -0.252 C  
HETATM    3  C   UNL     1      -7.872  16.798  68.149  1.00  0.00    -0.182 C  
HETATM    4  O   UNL     1     -10.445  16.094  66.621  1.00  0.00    -0.301 OA 
HETATM    5  C   UNL     1      -9.753  14.326  68.110  1.00  0.00    -0.226 C  
HETATM    6  C   UNL     1      -7.596  17.676  66.922  1.00  0.00    -0.244 C  
HETATM    7  C   UNL     1     -11.704  15.828  68.651  1.00  0.00    -0.353 C  
HETATM    8  C   UNL     1      -9.832  18.265  68.788  1.00  0.00    -0.377 C  
HETATM    9  H   UNL     1     -11.036  15.477  66.204  1.00  0.00     0.000 HD 
HETATM   10  C   UNL     1      -8.384  18.955  66.863  1.00  0.00    -0.289 C  
HETATM   11  C   UNL     1      -7.973  19.966  65.831  1.00  0.00    -0.288 C  
HETATM   12  C   UNL     1      -9.390  19.206  67.713  1.00  0.00    -0.360 C  
ENDROOT
BRANCH   5  13
HETATM   13  C   UNL     1     -10.701  13.245  67.556  1.00  0.00    -0.259 C  
BRANCH  13  14
HETATM   14  C   UNL     1     -10.355  12.813  66.156  1.00  0.00    -0.283 C  
HETATM   15  C   UNL     1     -11.223  12.819  65.125  1.00  0.00    -0.327 C  
HETATM   16  C   UNL     1     -12.652  13.281  65.231  1.00  0.00    -0.528 C  
HETATM   17  C   UNL     1     -10.815  12.347  63.751  1.00  0.00    -0.500 C  
ENDBRANCH  13  14
ENDBRANCH   5  13
TORSDOF 2
ENDMDL
MODEL       47
REMARK 921   NORMALIZED FREE ENERGY PREDICTED BY IDOCK:   -4.58 KCAL/MOL
REMARK 922        TOTAL FREE ENERGY PREDICTED BY IDOCK:   -5.40 KCAL/MOL
REMARK 923 INTER-LIGAND FREE ENERGY PREDICTED BY IDOCK:   -5.17 KCAL/MOL
REMARK 924 INTRA-LIGAND FREE ENERGY PREDICTED BY IDOCK:   -0.23 KCAL/MOL
REMARK 927      BINDING AFFINITY PREDICTED BY RF-SCORE:    0.00 PKD
ROOT
HETATM    1  C   UNL     1     -11.175  10.739  67.526  1.00  0.00    -0.346 C  
HETATM    2  C   UNL     1     -10.858  11.538  68.841  1.00  0.00    -0.218 C  
HETATM    3  C   UNL     1     -11.008  11.539  66.208  1.00  0.00    -0.328 C  
HETATM    4  O   UNL     1      -9.495  11.950  68.853  1.00  0.00    -0.400 OA 
HETATM    5  C   UNL     1     -11.743  12.821  68.940  1.00  0.00    -0.370 C  
HETATM    6  C   UNL     1      -9.598  11.576  65.603  1.00  0.00    -0.256 C  
HETATM    7  C   UNL     1     -11.108  10.673  70.096  1.00  0.00    -0.341 C  
HETATM    8  C   UNL     1     -10.471   9.366  67.386  1.00  0.00    -0.343 C  
HETATM    9  H   UNL     1      -9.304  12.434  69.648  1.00  0.00     0.000 HD 
HETATM   10  C   UNL     1      -8.789  10.325  65.795  1.00  0.00    -0.179 C  
HETATM   11  C   UNL     1      -7.513  10.206  65.011  1.00  0.00    -0.140 C  
HETATM   12  C   UNL     1      -9.197   9.335  66.602  1.00  0.00    -0.190 C  
ENDROOT
BRANCH   5  13
HETATM   13  C   UNL     1     -11.578  13.611  70.253  1.00  0.00    -0.162 C  
BRANCH  13  14
HETATM   14  C   UNL     1     -12.857  14.246  70.729  1.00  0.00    -0.404 C  
HETATM   15  C   UNL     1     -12.969  14.966  71.861  1.00  0.00    -0.414 C  
HETATM   16  C   UNL     1     -11.823  15.253  72.795  1.00  0.00    -0.521 C  
HETATM   17  C   UNL     1     -14.291  15.554  72.292  1.00  0.00    -0.556 C  
ENDBRANCH  13  14
ENDBRANCH   5  13
TORSDOF 2
ENDMDL
MODEL       48
REMARK 921   NORMALIZED FREE ENERGY PREDICTED BY IDOCK:   -4.57 KCAL/MOL
REMARK 922        TOTAL FREE ENERGY PREDICTED BY IDOCK:   -5.38 KCAL/MOL
REMARK 923 INTER-LIGAND FREE ENERGY PREDICTED BY IDOCK:   -5.15 KCAL/MOL
REMARK 924 INTRA-LIGAND FREE ENERGY PREDICTED BY IDOCK:   -0.23 KCAL/MOL
REMARK 927      BINDING AFFINITY PREDICTED BY RF-SCORE:    0.00 PKD
ROOT
HETATM    1  C   UNL     1     -11.643  12.219  65.945  1.00  0.00    -0.450 C  
HETATM    2  C   UNL     1     -10.558  11.198  66.441  1.00  0.00    -0.261 C  
HETATM    3  C   UNL     1     -12.156  13.215  67.018  1.00  0.00    -0.366 C  
HETATM    4  O   UNL     1      -9.388  11.887  66.867  1.00  0.00    -0.186 OA 
HETATM    5  C   UNL     1     -11.088  10.368  67.655  1.00  0.00    -0.361 C  
HETATM    6  C   UNL     1     -11.334  14.495  67.214  1.00  0.00    -0.363 C  
HETATM    7  C   UNL     1     -10.155  10.218  65.317  1.00  0.00    -0.359 C  
HETATM    8  C   UNL     1     -11.295  12.996  64.649  1.00  0.00    -0.361 C  
HETATM    9  H   UNL     1      -8.731  11.269  67.168  1.00  0.00     0.000 HD 
HETATM   10  C   UNL     1     -10.700  15.043  65.967  1.00  0.00    -0.329 C  
HETATM   11  C   UNL     1     -10.105  16.420  66.048  1.00  0.00    -0.373 C  
HETATM   12  C   UNL     1     -10.691  14.354  64.817  1.00  0.00    -0.423 C  
ENDROOT
BRANCH   5  13
HETATM   13  C   UNL     1     -10.129   9.263  68.140  1.00  0.00    -0.222 C  
BRANCH  13  14
HETATM   14  C   UNL     1     -10.532   8.667  69.462  1.00  0.00    -0.222 C  
HETATM   15  C   UNL     1     -10.725   7.350  69.672  1.00  0.00    -0.245 C  
HETATM   16  C   UNL     1     -10.543   6.293  68.614  1.00  0.00    -0.314 C  
HETATM   17  C   UNL     1     -11.155   6.823  71.019  1.00  0.00    -0.317 C  
ENDBRANCH  13  14
ENDBRANCH   5  13
TORSDOF 2
ENDMDL
MODEL       49
REMARK 921   NORMALIZED FREE ENERGY PREDICTED BY IDOCK:   -4.55 KCAL/MOL
REMARK 922        TOTAL FREE ENERGY PREDICTED BY IDOCK:   -5.36 KCAL/MOL
REMARK 923 INTER-LIGAND FREE ENERGY PREDICTED BY IDOCK:   -4.98 KCAL/MOL
REMARK 924 INTRA-LIGAND FREE ENERGY PREDICTED BY IDOCK:   -0.38 KCAL/MOL
REMARK 927      BINDING AFFINITY PREDICTED BY RF-SCORE:    0.00 PKD
ROOT
HETATM    1  C   UNL     1     -10.980   8.620  71.685  1.00  0.00    -0.378 C  
HETATM    2  C   UNL     1     -11.254   7.172  71.142  1.00  0.00    -0.262 C  
HETATM    3  C   UNL     1      -9.821   9.380  70.989  1.00  0.00    -0.317 C  
HETATM    4  O   UNL     1     -11.641   7.222  69.773  1.00  0.00    -0.500 OA 
HETATM    5  C   UNL     1      -9.969   6.287  71.239  1.00  0.00    -0.207 C  
HETATM    6  C   UNL     1     -10.176  10.148  69.709  1.00  0.00    -0.286 C  
HETATM    7  C   UNL     1     -12.385   6.481  71.935  1.00  0.00    -0.339 C  
HETATM    8  C   UNL     1     -12.217   9.548  71.783  1.00  0.00    -0.465 C  
HETATM    9  H   UNL     1     -11.807   6.346  69.444  1.00  0.00     0.000 HD 
HETATM   10  C   UNL     1     -11.551  10.754  69.690  1.00  0.00    -0.388 C  
HETATM   11  C   UNL     1     -11.857  11.725  68.585  1.00  0.00    -0.369 C  
HETATM   12  C   UNL     1     -12.460  10.474  70.635  1.00  0.00    -0.456 C  
ENDROOT
BRANCH   5  13
HETATM   13  C   UNL     1     -10.175   4.816  70.829  1.00  0.00    -0.246 C  
BRANCH  13  14
HETATM   14  C   UNL     1      -9.298   3.859  71.593  1.00  0.00    -0.202 C  
HETATM   15  C   UNL     1      -9.672   3.224  72.719  1.00  0.00    -0.187 C  
HETATM   16  C   UNL     1     -11.029   3.368  73.357  1.00  0.00    -0.306 C  
HETATM   17  C   UNL     1      -8.731   2.296  73.449  1.00  0.00    -0.070 C  
ENDBRANCH  13  14
ENDBRANCH   5  13
TORSDOF 2
ENDMDL
MODEL       50
REMARK 921   NORMALIZED FREE ENERGY PREDICTED BY IDOCK:   -4.52 KCAL/MOL
REMARK 922        TOTAL FREE ENERGY PREDICTED BY IDOCK:   -5.33 KCAL/MOL
REMARK 923 INTER-LIGAND FREE ENERGY PREDICTED BY IDOCK:   -4.97 KCAL/MOL
REMARK 924 INTRA-LIGAND FREE ENERGY PREDICTED BY IDOCK:   -0.36 KCAL/MOL
REMARK 927      BINDING AFFINITY PREDICTED BY RF-SCORE:    0.00 PKD
ROOT
HETATM    1  C   UNL     1      -9.161  15.384  67.388  1.00  0.00    -0.206 C  
HETATM    2  C   UNL     1     -10.266  14.278  67.242  1.00  0.00    -0.252 C  
HETATM    3  C   UNL     1      -8.991  16.318  66.161  1.00  0.00    -0.374 C  
HETATM    4  O   UNL     1     -11.547  14.878  67.081  1.00  0.00    -0.362 OA 
HETATM    5  C   UNL     1     -10.000  13.385  65.989  1.00  0.00    -0.300 C  
HETATM    6  C   UNL     1      -9.916  17.540  66.098  1.00  0.00    -0.280 C  
HETATM    7  C   UNL     1     -10.317  13.369  68.490  1.00  0.00    -0.240 C  
HETATM    8  C   UNL     1      -9.228  16.239  68.679  1.00  0.00    -0.227 C  
HETATM    9  H   UNL     1     -12.217  14.210  66.993  1.00  0.00     0.000 HD 
HETATM   10  C   UNL     1     -10.257  18.151  67.428  1.00  0.00    -0.383 C  
HETATM   11  C   UNL     1     -10.941  19.489  67.414  1.00  0.00    -0.427 C  
HETATM   12  C   UNL     1      -9.939  17.551  68.584  1.00  0.00    -0.347 C  
ENDROOT
BRANCH   5  13
HETATM   13  C   UNL     1     -10.976  12.203  65.828  1.00  0.00    -0.338 C  
BRANCH  13  14
HETATM   14  C   UNL     1     -10.285  10.899  65.528  1.00  0.00    -0.332 C  
HETATM   15  C   UNL     1     -10.169   9.885  66.406  1.00  0.00    -0.292 C  
HETATM   16  C   UNL     1     -10.734   9.910  67.802  1.00  0.00    -0.332 C  
HETATM   17  C   UNL     1      -9.439   8.613  66.047  1.00  0.00    -0.278 C  
ENDBRANCH  13  14
ENDBRANCH   5  13
TORSDOF 2
ENDMDL
MODEL       51
REMARK 921   NORMALIZED FREE ENERGY PREDICTED BY IDOCK:   -4.52 KCAL/MOL
REMARK 922        TOTAL FREE ENERGY PREDICTED BY IDOCK:   -5.33 KCAL/MOL
REMARK 923 INTER-LIGAND FREE ENERGY PREDICTED BY IDOCK:   -5.08 KCAL/MOL
REMARK 924 INTRA-LIGAND FREE ENERGY PREDICTED BY IDOCK:   -0.25 KCAL/MOL
REMARK 927      BINDING AFFINITY PREDICTED BY RF-SCORE:    0.00 PKD
ROOT
HETATM    1  C   UNL     1     -10.877  15.553  67.957  1.00  0.00    -0.300 C  
HETATM    2  C   UNL     1     -10.949  13.994  67.775  1.00  0.00    -0.258 C  
HETATM    3  C   UNL     1      -9.815  16.053  68.972  1.00  0.00    -0.239 C  
HETATM    4  O   UNL     1      -9.716  13.498  67.264  1.00  0.00    -0.225 OA 
HETATM    5  C   UNL     1     -11.216  13.285  69.141  1.00  0.00    -0.305 C  
HETATM    6  C   UNL     1      -8.394  16.255  68.432  1.00  0.00    -0.190 C  
HETATM    7  C   UNL     1     -12.071  13.597  66.790  1.00  0.00    -0.445 C  
HETATM    8  C   UNL     1     -10.768  16.379  66.651  1.00  0.00    -0.173 C  
HETATM    9  H   UNL     1      -9.760  12.555  67.154  1.00  0.00     0.000 HD 
HETATM   10  C   UNL     1      -8.313  16.732  67.010  1.00  0.00    -0.219 C  
HETATM   11  C   UNL     1      -6.971  17.191  66.515  1.00  0.00    -0.296 C  
HETATM   12  C   UNL     1      -9.394  16.784  66.219  1.00  0.00    -0.310 C  
ENDROOT
BRANCH   5  13
HETATM   13  C   UNL     1     -11.411  11.760  69.042  1.00  0.00    -0.338 C  
BRANCH  13  14
HETATM   14  C   UNL     1     -12.275  11.199  70.140  1.00  0.00    -0.417 C  
HETATM   15  C   UNL     1     -11.893  10.215  70.976  1.00  0.00    -0.475 C  
HETATM   16  C   UNL     1     -10.539   9.556  70.940  1.00  0.00    -0.395 C  
HETATM   17  C   UNL     1     -12.822   9.682  72.040  1.00  0.00    -0.497 C  
ENDBRANCH  13  14
ENDBRANCH   5  13
TORSDOF 2
ENDMDL
MODEL       52
REMARK 921   NORMALIZED FREE ENERGY PREDICTED BY IDOCK:   -4.51 KCAL/MOL
REMARK 922        TOTAL FREE ENERGY PREDICTED BY IDOCK:   -5.32 KCAL/MOL
REMARK 923 INTER-LIGAND FREE ENERGY PREDICTED BY IDOCK:   -4.95 KCAL/MOL
REMARK 924 INTRA-LIGAND FREE ENERGY PREDICTED BY IDOCK:   -0.37 KCAL/MOL
REMARK 927      BINDING AFFINITY PREDICTED BY RF-SCORE:    0.00 PKD
ROOT
HETATM    1  C   UNL     1     -11.703   7.089  70.589  1.00  0.00    -0.384 C  
HETATM    2  C   UNL     1     -10.912   8.446  70.611  1.00  0.00    -0.243 C  
HETATM    3  C   UNL     1     -11.112   5.992  69.666  1.00  0.00    -0.474 C  
HETATM    4  O   UNL     1      -9.595   8.241  71.111  1.00  0.00    -0.152 OA 
HETATM    5  C   UNL     1     -10.786   9.041  69.172  1.00  0.00    -0.176 C  
HETATM    6  C   UNL     1     -10.015   5.106  70.271  1.00  0.00    -0.320 C  
HETATM    7  C   UNL     1     -11.611   9.487  71.512  1.00  0.00    -0.465 C  
HETATM    8  C   UNL     1     -12.028   6.475  71.974  1.00  0.00    -0.372 C  
HETATM    9  H   UNL     1      -9.116   9.062  71.125  1.00  0.00     0.000 HD 
HETATM   10  C   UNL     1     -10.170   4.810  71.736  1.00  0.00    -0.258 C  
HETATM   11  C   UNL     1      -9.280   3.750  72.319  1.00  0.00    -0.163 C  
HETATM   12  C   UNL     1     -11.084   5.436  72.491  1.00  0.00    -0.310 C  
ENDROOT
BRANCH   5  13
HETATM   13  C   UNL     1     -10.117  10.429  69.112  1.00  0.00    -0.236 C  
BRANCH  13  14
HETATM   14  C   UNL     1     -10.642  11.292  67.996  1.00  0.00    -0.230 C  
HETATM   15  C   UNL     1     -11.438  12.363  68.177  1.00  0.00    -0.370 C  
HETATM   16  C   UNL     1     -11.894  12.855  69.525  1.00  0.00    -0.383 C  
HETATM   17  C   UNL     1     -11.949  13.170  67.008  1.00  0.00    -0.412 C  
ENDBRANCH  13  14
ENDBRANCH   5  13
TORSDOF 2
ENDMDL
MODEL       53
REMARK 921   NORMALIZED FREE ENERGY PREDICTED BY IDOCK:   -4.51 KCAL/MOL
REMARK 922        TOTAL FREE ENERGY PREDICTED BY IDOCK:   -5.31 KCAL/MOL
REMARK 923 INTER-LIGAND FREE ENERGY PREDICTED BY IDOCK:   -5.12 KCAL/MOL
REMARK 924 INTRA-LIGAND FREE ENERGY PREDICTED BY IDOCK:   -0.20 KCAL/MOL
REMARK 927      BINDING AFFINITY PREDICTED BY RF-SCORE:    0.00 PKD
ROOT
HETATM    1  C   UNL     1     -11.600   7.763  70.311  1.00  0.00    -0.049 C  
HETATM    2  C   UNL     1     -11.945   8.932  71.301  1.00  0.00    -0.307 C  
HETATM    3  C   UNL     1     -10.393   8.024  69.373  1.00  0.00    -0.217 C  
HETATM    4  O   UNL     1     -10.857   9.166  72.189  1.00  0.00    -0.297 OA 
HETATM    5  C   UNL     1     -12.216  10.260  70.524  1.00  0.00    -0.390 C  
HETATM    6  C   UNL     1      -9.005   7.687  69.933  1.00  0.00    -0.144 C  
HETATM    7  C   UNL     1     -13.193   8.598  72.149  1.00  0.00    -0.420 C  
HETATM    8  C   UNL     1     -11.460   6.358  70.949  1.00  0.00    -0.406 C  
HETATM    9  H   UNL     1     -11.066   9.873  72.788  1.00  0.00     0.000 HD 
HETATM   10  C   UNL     1      -8.960   6.500  70.853  1.00  0.00    -0.147 C  
HETATM   11  C   UNL     1      -7.604   5.970  71.223  1.00  0.00    -0.094 C  
HETATM   12  C   UNL     1     -10.077   5.911  71.303  1.00  0.00    -0.245 C  
ENDROOT
BRANCH   5  13
HETATM   13  C   UNL     1     -12.670  11.437  71.409  1.00  0.00    -0.489 C  
BRANCH  13  14
HETATM   14  C   UNL     1     -12.357  12.783  70.812  1.00  0.00    -0.375 C  
HETATM   15  C   UNL     1     -12.888  13.944  71.243  1.00  0.00    -0.435 C  
HETATM   16  C   UNL     1     -13.851  14.054  72.396  1.00  0.00    -0.653 C  
HETATM   17  C   UNL     1     -12.549  15.257  70.580  1.00  0.00    -0.450 C  
ENDBRANCH  13  14
ENDBRANCH   5  13
TORSDOF 2
ENDMDL
MODEL       54
REMARK 921   NORMALIZED FREE ENERGY PREDICTED BY IDOCK:   -4.46 KCAL/MOL
REMARK 922        TOTAL FREE ENERGY PREDICTED BY IDOCK:   -5.26 KCAL/MOL
REMARK 923 INTER-LIGAND FREE ENERGY PREDICTED BY IDOCK:   -4.81 KCAL/MOL
REMARK 924 INTRA-LIGAND FREE ENERGY PREDICTED BY IDOCK:   -0.45 KCAL/MOL
REMARK 927      BINDING AFFINITY PREDICTED BY RF-SCORE:    0.00 PKD
ROOT
HETATM    1  C   UNL     1     -11.515  10.726  68.870  1.00  0.00    -0.362 C  
HETATM    2  C   UNL     1     -11.333  12.285  68.827  1.00  0.00    -0.289 C  
HETATM    3  C   UNL     1     -10.832   9.947  67.715  1.00  0.00    -0.321 C  
HETATM    4  O   UNL     1      -9.956  12.626  68.942  1.00  0.00    -0.417 OA 
HETATM    5  C   UNL     1     -11.856  12.870  67.476  1.00  0.00    -0.407 C  
HETATM    6  C   UNL     1      -9.358   9.576  67.916  1.00  0.00    -0.145 C  
HETATM    7  C   UNL     1     -12.095  12.970  69.983  1.00  0.00    -0.367 C  
HETATM    8  C   UNL     1     -11.175  10.045  70.220  1.00  0.00    -0.379 C  
HETATM    9  H   UNL     1      -9.846  13.570  68.915  1.00  0.00     0.000 HD 
HETATM   10  C   UNL     1      -8.968   9.255  69.332  1.00  0.00    -0.147 C  
HETATM   11  C   UNL     1      -7.614   8.641  69.548  1.00  0.00    -0.088 C  
HETATM   12  C   UNL     1      -9.801   9.471  70.361  1.00  0.00    -0.329 C  
ENDROOT
BRANCH   5  13
HETATM   13  C   UNL     1     -11.818  14.408  67.388  1.00  0.00    -0.430 C  
BRANCH  13  14
HETATM   14  C   UNL     1     -10.657  14.929  66.583  1.00  0.00    -0.305 C  
HETATM   15  C   UNL     1      -9.682  15.714  67.080  1.00  0.00    -0.234 C  
HETATM   16  C   UNL     1      -9.610  16.160  68.517  1.00  0.00    -0.215 C  
HETATM   17  C   UNL     1      -8.560  16.221  66.208  1.00  0.00    -0.374 C  
ENDBRANCH  13  14
ENDBRANCH   5  13
TORSDOF 2
ENDMDL
MODEL       55
REMARK 921   NORMALIZED FREE ENERGY PREDICTED BY IDOCK:   -4.46 KCAL/MOL
REMARK 922        TOTAL FREE ENERGY PREDICTED BY IDOCK:   -5.26 KCAL/MOL
REMARK 923 INTER-LIGAND FREE ENERGY PREDICTED BY IDOCK:   -5.04 KCAL/MOL
REMARK 924 INTRA-LIGAND FREE ENERGY PREDICTED BY IDOCK:   -0.22 KCAL/MOL
REMARK 927      BINDING AFFINITY PREDICTED BY RF-SCORE:    0.00 PKD
ROOT
HETATM    1  C   UNL     1     -10.974   8.595  71.648  1.00  0.00    -0.378 C  
HETATM    2  C   UNL     1     -11.296   7.164  71.088  1.00  0.00    -0.275 C  
HETATM    3  C   UNL     1      -9.814   9.339  70.936  1.00  0.00    -0.363 C  
HETATM    4  O   UNL     1     -11.716   7.247  69.730  1.00  0.00    -0.509 OA 
HETATM    5  C   UNL     1     -10.032   6.247  71.138  1.00  0.00    -0.210 C  
HETATM    6  C   UNL     1     -10.182  10.137  69.679  1.00  0.00    -0.272 C  
HETATM    7  C   UNL     1     -12.424   6.486  71.898  1.00  0.00    -0.291 C  
HETATM    8  C   UNL     1     -12.185   9.551  71.793  1.00  0.00    -0.465 C  
HETATM    9  H   UNL     1     -11.911   6.381  69.391  1.00  0.00     0.000 HD 
HETATM   10  C   UNL     1     -11.542  10.777  69.705  1.00  0.00    -0.388 C  
HETATM   11  C   UNL     1     -11.851  11.773  68.624  1.00  0.00    -0.369 C  
HETATM   12  C   UNL     1     -12.434  10.502  70.667  1.00  0.00    -0.456 C  
ENDROOT
BRANCH   5  13
HETATM   13  C   UNL     1     -10.282   4.789  70.709  1.00  0.00    -0.246 C  
BRANCH  13  14
HETATM   14  C   UNL     1      -9.837   4.499  69.300  1.00  0.00    -0.241 C  
HETATM   15  C   UNL     1      -9.400   3.298  68.876  1.00  0.00    -0.232 C  
HETATM   16  C   UNL     1      -9.319   2.074  69.750  1.00  0.00    -0.158 C  
HETATM   17  C   UNL     1      -8.943   3.085  67.453  1.00  0.00    -0.187 C  
ENDBRANCH  13  14
ENDBRANCH   5  13
TORSDOF 2
ENDMDL
MODEL       56
REMARK 921   NORMALIZED FREE ENERGY PREDICTED BY IDOCK:   -4.45 KCAL/MOL
REMARK 922        TOTAL FREE ENERGY PREDICTED BY IDOCK:   -5.25 KCAL/MOL
REMARK 923 INTER-LIGAND FREE ENERGY PREDICTED BY IDOCK:   -4.86 KCAL/MOL
REMARK 924 INTRA-LIGAND FREE ENERGY PREDICTED BY IDOCK:   -0.39 KCAL/MOL
REMARK 927      BINDING AFFINITY PREDICTED BY RF-SCORE:    0.00 PKD
ROOT
HETATM    1  C   UNL     1     -11.195  10.816  67.809  1.00  0.00    -0.385 C  
HETATM    2  C   UNL     1     -10.319  10.180  68.947  1.00  0.00    -0.206 C  
HETATM    3  C   UNL     1     -11.860  12.171  68.164  1.00  0.00    -0.362 C  
HETATM    4  O   UNL     1      -9.225  11.033  69.263  1.00  0.00    -0.389 OA 
HETATM    5  C   UNL     1     -11.157   9.980  70.250  1.00  0.00    -0.381 C  
HETATM    6  C   UNL     1     -11.014  13.430  67.935  1.00  0.00    -0.276 C  
HETATM    7  C   UNL     1      -9.750   8.810  68.516  1.00  0.00    -0.173 C  
HETATM    8  C   UNL     1     -10.520  10.923  66.418  1.00  0.00    -0.307 C  
HETATM    9  H   UNL     1      -8.695  10.648  69.952  1.00  0.00     0.000 HD 
HETATM   10  C   UNL     1     -10.086  13.368  66.754  1.00  0.00    -0.260 C  
HETATM   11  C   UNL     1      -9.428  14.651  66.331  1.00  0.00    -0.325 C  
HETATM   12  C   UNL     1      -9.875  12.229  66.080  1.00  0.00    -0.263 C  
ENDROOT
BRANCH   5  13
HETATM   13  C   UNL     1     -10.407   9.260  71.387  1.00  0.00    -0.392 C  
BRANCH  13  14
HETATM   14  C   UNL     1     -11.184   8.113  71.978  1.00  0.00    -0.372 C  
HETATM   15  C   UNL     1     -10.815   6.821  71.885  1.00  0.00    -0.261 C  
HETATM   16  C   UNL     1      -9.562   6.350  71.196  1.00  0.00    -0.187 C  
HETATM   17  C   UNL     1     -11.657   5.718  72.480  1.00  0.00    -0.321 C  
ENDBRANCH  13  14
ENDBRANCH   5  13
TORSDOF 2
ENDMDL
MODEL       57
REMARK 921   NORMALIZED FREE ENERGY PREDICTED BY IDOCK:   -4.41 KCAL/MOL
REMARK 922        TOTAL FREE ENERGY PREDICTED BY IDOCK:   -5.21 KCAL/MOL
REMARK 923 INTER-LIGAND FREE ENERGY PREDICTED BY IDOCK:   -4.94 KCAL/MOL
REMARK 924 INTRA-LIGAND FREE ENERGY PREDICTED BY IDOCK:   -0.26 KCAL/MOL
REMARK 927      BINDING AFFINITY PREDICTED BY RF-SCORE:    0.00 PKD
ROOT
HETATM    1  C   UNL     1     -10.897  12.762  66.612  1.00  0.00    -0.288 C  
HETATM    2  C   UNL     1     -10.198  11.705  67.539  1.00  0.00    -0.195 C  
HETATM    3  C   UNL     1     -12.102  13.506  67.247  1.00  0.00    -0.367 C  
HETATM    4  O   UNL     1      -9.650  12.340  68.689  1.00  0.00    -0.354 OA 
HETATM    5  C   UNL     1     -11.221  10.633  68.033  1.00  0.00    -0.373 C  
HETATM    6  C   UNL     1     -11.776  14.753  68.079  1.00  0.00    -0.360 C  
HETATM    7  C   UNL     1      -9.051  10.982  66.798  1.00  0.00    -0.172 C  
HETATM    8  C   UNL     1      -9.957  13.791  65.935  1.00  0.00    -0.308 C  
HETATM    9  H   UNL     1      -9.227  11.701  69.250  1.00  0.00     0.000 HD 
HETATM   10  C   UNL     1     -10.607  15.560  67.588  1.00  0.00    -0.291 C  
HETATM   11  C   UNL     1     -10.403  16.915  68.202  1.00  0.00    -0.336 C  
HETATM   12  C   UNL     1      -9.796  15.112  66.618  1.00  0.00    -0.265 C  
ENDROOT
BRANCH   5  13
HETATM   13  C   UNL     1     -10.601   9.491  68.861  1.00  0.00    -0.239 C  
BRANCH  13  14
HETATM   14  C   UNL     1     -11.161   9.396  70.255  1.00  0.00    -0.286 C  
HETATM   15  C   UNL     1     -11.507   8.241  70.856  1.00  0.00    -0.296 C  
HETATM   16  C   UNL     1     -11.358   6.884  70.220  1.00  0.00    -0.373 C  
HETATM   17  C   UNL     1     -12.088   8.222  72.248  1.00  0.00    -0.439 C  
ENDBRANCH  13  14
ENDBRANCH   5  13
TORSDOF 2
ENDMDL
MODEL       58
REMARK 921   NORMALIZED FREE ENERGY PREDICTED BY IDOCK:   -4.41 KCAL/MOL
REMARK 922        TOTAL FREE ENERGY PREDICTED BY IDOCK:   -5.20 KCAL/MOL
REMARK 923 INTER-LIGAND FREE ENERGY PREDICTED BY IDOCK:   -4.88 KCAL/MOL
REMARK 924 INTRA-LIGAND FREE ENERGY PREDICTED BY IDOCK:   -0.32 KCAL/MOL
REMARK 927      BINDING AFFINITY PREDICTED BY RF-SCORE:    0.00 PKD
ROOT
HETATM    1  C   UNL     1      -7.374  17.378  66.211  1.00  0.00    -0.347 C  
HETATM    2  C   UNL     1      -8.458  16.470  66.894  1.00  0.00    -0.212 C  
HETATM    3  C   UNL     1      -7.773  18.866  66.033  1.00  0.00    -0.239 C  
HETATM    4  O   UNL     1      -8.719  16.923  68.219  1.00  0.00    -0.218 OA 
HETATM    5  C   UNL     1      -9.804  16.517  66.103  1.00  0.00    -0.355 C  
HETATM    6  C   UNL     1      -7.505  19.794  67.224  1.00  0.00    -0.285 C  
HETATM    7  C   UNL     1      -7.989  15.000  66.974  1.00  0.00    -0.197 C  
HETATM    8  C   UNL     1      -5.949  17.297  66.814  1.00  0.00    -0.232 C  
HETATM    9  H   UNL     1      -9.375  16.373  68.632  1.00  0.00     0.000 HD 
HETATM   10  C   UNL     1      -6.274  19.468  68.023  1.00  0.00    -0.242 C  
HETATM   11  C   UNL     1      -5.823  20.484  69.033  1.00  0.00    -0.387 C  
HETATM   12  C   UNL     1      -5.583  18.337  67.825  1.00  0.00    -0.155 C  
ENDROOT
BRANCH   5  13
HETATM   13  C   UNL     1     -10.895  15.570  66.641  1.00  0.00    -0.285 C  
BRANCH  13  14
HETATM   14  C   UNL     1     -11.509  14.706  65.572  1.00  0.00    -0.341 C  
HETATM   15  C   UNL     1     -11.874  13.422  65.753  1.00  0.00    -0.412 C  
HETATM   16  C   UNL     1     -11.736  12.683  67.058  1.00  0.00    -0.438 C  
HETATM   17  C   UNL     1     -12.462  12.605  64.628  1.00  0.00    -0.538 C  
ENDBRANCH  13  14
ENDBRANCH   5  13
TORSDOF 2
ENDMDL
MODEL       59
REMARK 921   NORMALIZED FREE ENERGY PREDICTED BY IDOCK:   -4.36 KCAL/MOL
REMARK 922        TOTAL FREE ENERGY PREDICTED BY IDOCK:   -5.15 KCAL/MOL
REMARK 923 INTER-LIGAND FREE ENERGY PREDICTED BY IDOCK:   -4.95 KCAL/MOL
REMARK 924 INTRA-LIGAND FREE ENERGY PREDICTED BY IDOCK:   -0.20 KCAL/MOL
REMARK 927      BINDING AFFINITY PREDICTED BY RF-SCORE:    0.00 PKD
ROOT
HETATM    1  C   UNL     1     -11.128  13.734  67.355  1.00  0.00    -0.312 C  
HETATM    2  C   UNL     1      -9.648  14.250  67.258  1.00  0.00    -0.232 C  
HETATM    3  C   UNL     1     -12.168  14.547  66.541  1.00  0.00    -0.268 C  
HETATM    4  O   UNL     1      -9.182  14.167  65.915  1.00  0.00    -0.512 OA 
HETATM    5  C   UNL     1      -9.548  15.744  67.704  1.00  0.00    -0.220 C  
HETATM    6  C   UNL     1     -12.344  14.155  65.069  1.00  0.00    -0.452 C  
HETATM    7  C   UNL     1      -8.702  13.410  68.145  1.00  0.00    -0.179 C  
HETATM    8  C   UNL     1     -11.334  12.222  67.086  1.00  0.00    -0.398 C  
HETATM    9  H   UNL     1      -8.287  14.480  65.856  1.00  0.00     0.000 HD 
HETATM   10  C   UNL     1     -12.184  12.690  64.775  1.00  0.00    -0.528 C  
HETATM   11  C   UNL     1     -12.596  12.215  63.411  1.00  0.00    -0.584 C  
HETATM   12  C   UNL     1     -11.728  11.830  65.697  1.00  0.00    -0.099 C  
ENDROOT
BRANCH   5  13
HETATM   13  C   UNL     1      -8.112  16.303  67.745  1.00  0.00    -0.160 C  
BRANCH  13  14
HETATM   14  C   UNL     1      -8.063  17.803  67.873  1.00  0.00    -0.235 C  
HETATM   15  C   UNL     1      -7.009  18.487  68.355  1.00  0.00    -0.278 C  
HETATM   16  C   UNL     1      -5.725  17.845  68.812  1.00  0.00    -0.184 C  
HETATM   17  C   UNL     1      -7.038  19.991  68.480  1.00  0.00    -0.309 C  
ENDBRANCH  13  14
ENDBRANCH   5  13
TORSDOF 2
ENDMDL
MODEL       60
REMARK 921   NORMALIZED FREE ENERGY PREDICTED BY IDOCK:   -4.35 KCAL/MOL
REMARK 922        TOTAL FREE ENERGY PREDICTED BY IDOCK:   -5.14 KCAL/MOL
REMARK 923 INTER-LIGAND FREE ENERGY PREDICTED BY IDOCK:   -4.85 KCAL/MOL
REMARK 924 INTRA-LIGAND FREE ENERGY PREDICTED BY IDOCK:   -0.28 KCAL/MOL
REMARK 927      BINDING AFFINITY PREDICTED BY RF-SCORE:    0.00 PKD
ROOT
HETATM    1  C   UNL     1      -9.626  10.939  66.812  1.00  0.00    -0.210 C  
HETATM    2  C   UNL     1     -10.793  11.974  66.634  1.00  0.00    -0.272 C  
HETATM    3  C   UNL     1      -9.010  10.873  68.235  1.00  0.00    -0.150 C  
HETATM    4  O   UNL     1     -11.891  11.632  67.474  1.00  0.00    -0.591 OA 
HETATM    5  C   UNL     1     -10.327  13.413  67.026  1.00  0.00    -0.247 C  
HETATM    6  C   UNL     1      -9.710   9.950  69.241  1.00  0.00    -0.218 C  
HETATM    7  C   UNL     1     -11.298  12.004  65.174  1.00  0.00    -0.359 C  
HETATM    8  C   UNL     1      -9.917   9.502  66.312  1.00  0.00    -0.344 C  
HETATM    9  H   UNL     1     -12.597  12.259  67.366  1.00  0.00     0.000 HD 
HETATM   10  C   UNL     1     -10.306   8.702  68.655  1.00  0.00    -0.219 C  
HETATM   11  C   UNL     1     -10.772   7.646  69.617  1.00  0.00    -0.230 C  
HETATM   12  C   UNL     1     -10.392   8.514  67.330  1.00  0.00    -0.372 C  
ENDROOT
BRANCH   5  13
HETATM   13  C   UNL     1     -11.376  14.514  66.778  1.00  0.00    -0.358 C  
BRANCH  13  14
HETATM   14  C   UNL     1     -10.782  15.792  66.248  1.00  0.00    -0.282 C  
HETATM   15  C   UNL     1     -10.471  16.856  67.012  1.00  0.00    -0.281 C  
HETATM   16  C   UNL     1     -10.655  16.903  68.506  1.00  0.00    -0.367 C  
HETATM   17  C   UNL     1      -9.901  18.117  66.409  1.00  0.00    -0.353 C  
ENDBRANCH  13  14
ENDBRANCH   5  13
TORSDOF 2
ENDMDL
MODEL       61
REMARK 921   NORMALIZED FREE ENERGY PREDICTED BY IDOCK:   -4.33 KCAL/MOL
REMARK 922        TOTAL FREE ENERGY PREDICTED BY IDOCK:   -5.11 KCAL/MOL
REMARK 923 INTER-LIGAND FREE ENERGY PREDICTED BY IDOCK:   -4.84 KCAL/MOL
REMARK 924 INTRA-LIGAND FREE ENERGY PREDICTED BY IDOCK:   -0.27 KCAL/MOL
REMARK 927      BINDING AFFINITY PREDICTED BY RF-SCORE:    0.00 PKD
ROOT
HETATM    1  C   UNL     1      -9.801   8.503  69.692  1.00  0.00    -0.183 C  
HETATM    2  C   UNL     1     -10.581   9.806  69.292  1.00  0.00    -0.221 C  
HETATM    3  C   UNL     1     -10.687   7.263  69.984  1.00  0.00    -0.261 C  
HETATM    4  O   UNL     1     -11.301   9.599  68.081  1.00  0.00    -0.520 OA 
HETATM    5  C   UNL     1     -11.613  10.199  70.396  1.00  0.00    -0.396 C  
HETATM    6  C   UNL     1     -11.086   6.408  68.775  1.00  0.00    -0.404 C  
HETATM    7  C   UNL     1      -9.616  10.993  69.079  1.00  0.00    -0.136 C  
HETATM    8  C   UNL     1      -8.641   8.095  68.750  1.00  0.00    -0.127 C  
HETATM    9  H   UNL     1     -11.773  10.387  67.839  1.00  0.00     0.000 HD 
HETATM   10  C   UNL     1     -10.052   6.316  67.689  1.00  0.00    -0.179 C  
HETATM   11  C   UNL     1     -10.278   5.295  66.610  1.00  0.00    -0.291 C  
HETATM   12  C   UNL     1      -8.953   7.084  67.692  1.00  0.00    -0.117 C  
ENDROOT
BRANCH   5  13
HETATM   13  C   UNL     1     -12.349  11.529  70.138  1.00  0.00    -0.323 C  
BRANCH  13  14
HETATM   14  C   UNL     1     -12.635  12.303  71.397  1.00  0.00    -0.303 C  
HETATM   15  C   UNL     1     -12.672  13.648  71.468  1.00  0.00    -0.420 C  
HETATM   16  C   UNL     1     -12.452  14.559  70.289  1.00  0.00    -0.405 C  
HETATM   17  C   UNL     1     -12.939  14.360  72.771  1.00  0.00    -0.555 C  
ENDBRANCH  13  14
ENDBRANCH   5  13
TORSDOF 2
ENDMDL
MODEL       62
REMARK 921   NORMALIZED FREE ENERGY PREDICTED BY IDOCK:   -4.32 KCAL/MOL
REMARK 922        TOTAL FREE ENERGY PREDICTED BY IDOCK:   -5.10 KCAL/MOL
REMARK 923 INTER-LIGAND FREE ENERGY PREDICTED BY IDOCK:   -4.71 KCAL/MOL
REMARK 924 INTRA-LIGAND FREE ENERGY PREDICTED BY IDOCK:   -0.39 KCAL/MOL
REMARK 927      BINDING AFFINITY PREDICTED BY RF-SCORE:    0.00 PKD
ROOT
HETATM    1  C   UNL     1     -11.755  12.120  68.440  1.00  0.00    -0.388 C  
HETATM    2  C   UNL     1     -10.507  11.196  68.671  1.00  0.00    -0.197 C  
HETATM    3  C   UNL     1     -12.137  13.030  69.637  1.00  0.00    -0.304 C  
HETATM    4  O   UNL     1      -9.343  11.985  68.895  1.00  0.00    -0.397 OA 
HETATM    5  C   UNL     1     -10.711  10.286  69.924  1.00  0.00    -0.344 C  
HETATM    6  C   UNL     1     -11.412  14.379  69.730  1.00  0.00    -0.328 C  
HETATM    7  C   UNL     1     -10.245  10.292  67.446  1.00  0.00    -0.265 C  
HETATM    8  C   UNL     1     -11.740  12.963  67.139  1.00  0.00    -0.437 C  
HETATM    9  H   UNL     1      -8.587  11.426  69.035  1.00  0.00     0.000 HD 
HETATM   10  C   UNL     1     -11.087  15.021  68.411  1.00  0.00    -0.284 C  
HETATM   11  C   UNL     1     -10.614  16.447  68.440  1.00  0.00    -0.311 C  
HETATM   12  C   UNL     1     -11.241  14.368  67.250  1.00  0.00    -0.334 C  
ENDROOT
BRANCH   5  13
HETATM   13  C   UNL     1      -9.580   9.266  70.164  1.00  0.00    -0.254 C  
BRANCH  13  14
HETATM   14  C   UNL     1     -10.084   7.895  70.525  1.00  0.00    -0.192 C  
HETATM   15  C   UNL     1      -9.936   6.804  69.749  1.00  0.00    -0.189 C  
HETATM   16  C   UNL     1      -9.224   6.806  68.421  1.00  0.00    -0.123 C  
HETATM   17  C   UNL     1     -10.490   5.463  70.162  1.00  0.00    -0.361 C  
ENDBRANCH  13  14
ENDBRANCH   5  13
TORSDOF 2
ENDMDL
MODEL       63
REMARK 921   NORMALIZED FREE ENERGY PREDICTED BY IDOCK:   -4.28 KCAL/MOL
REMARK 922        TOTAL FREE ENERGY PREDICTED BY IDOCK:   -5.05 KCAL/MOL
REMARK 923 INTER-LIGAND FREE ENERGY PREDICTED BY IDOCK:   -4.98 KCAL/MOL
REMARK 924 INTRA-LIGAND FREE ENERGY PREDICTED BY IDOCK:   -0.08 KCAL/MOL
REMARK 927      BINDING AFFINITY PREDICTED BY RF-SCORE:    0.00 PKD
ROOT
HETATM    1  C   UNL     1      -9.870  16.286  66.985  1.00  0.00    -0.247 C  
HETATM    2  C   UNL     1     -10.362  15.033  66.177  1.00  0.00    -0.299 C  
HETATM    3  C   UNL     1      -9.191  15.972  68.345  1.00  0.00    -0.196 C  
HETATM    4  O   UNL     1      -9.259  14.201  65.832  1.00  0.00    -0.512 OA 
HETATM    5  C   UNL     1     -11.355  14.176  67.025  1.00  0.00    -0.346 C  
HETATM    6  C   UNL     1      -7.689  15.662  68.305  1.00  0.00    -0.130 C  
HETATM    7  C   UNL     1     -11.072  15.453  64.870  1.00  0.00    -0.435 C  
HETATM    8  C   UNL     1      -8.999  17.297  66.198  1.00  0.00    -0.189 C  
HETATM    9  H   UNL     1      -9.557  13.443  65.343  1.00  0.00     0.000 HD 
HETATM   10  C   UNL     1      -6.910  16.418  67.267  1.00  0.00    -0.222 C  
HETATM   11  C   UNL     1      -5.411  16.351  67.350  1.00  0.00    -0.165 C  
HETATM   12  C   UNL     1      -7.516  17.153  66.323  1.00  0.00    -0.344 C  
ENDROOT
BRANCH   5  13
HETATM   13  C   UNL     1     -11.976  12.983  66.272  1.00  0.00    -0.477 C  
BRANCH  13  14
HETATM   14  C   UNL     1     -11.166  11.720  66.391  1.00  0.00    -0.382 C  
HETATM   15  C   UNL     1     -11.083  10.976  67.510  1.00  0.00    -0.366 C  
HETATM   16  C   UNL     1     -11.810  11.296  68.790  1.00  0.00    -0.396 C  
HETATM   17  C   UNL     1     -10.230   9.732  67.567  1.00  0.00    -0.271 C  
ENDBRANCH  13  14
ENDBRANCH   5  13
TORSDOF 2
ENDMDL
MODEL       64
REMARK 921   NORMALIZED FREE ENERGY PREDICTED BY IDOCK:   -4.26 KCAL/MOL
REMARK 922        TOTAL FREE ENERGY PREDICTED BY IDOCK:   -5.04 KCAL/MOL
REMARK 923 INTER-LIGAND FREE ENERGY PREDICTED BY IDOCK:   -4.67 KCAL/MOL
REMARK 924 INTRA-LIGAND FREE ENERGY PREDICTED BY IDOCK:   -0.37 KCAL/MOL
REMARK 927      BINDING AFFINITY PREDICTED BY RF-SCORE:    0.00 PKD
ROOT
HETATM    1  C   UNL     1     -11.402   8.141  70.612  1.00  0.00    -0.256 C  
HETATM    2  C   UNL     1     -10.141   8.574  69.783  1.00  0.00    -0.197 C  
HETATM    3  C   UNL     1     -11.804   6.649  70.476  1.00  0.00    -0.430 C  
HETATM    4  O   UNL     1      -8.990   7.861  70.223  1.00  0.00    -0.148 OA 
HETATM    5  C   UNL     1     -10.338   8.264  68.264  1.00  0.00    -0.242 C  
HETATM    6  C   UNL     1     -11.100   5.661  71.415  1.00  0.00    -0.221 C  
HETATM    7  C   UNL     1      -9.858  10.084  69.941  1.00  0.00    -0.266 C  
HETATM    8  C   UNL     1     -11.391   8.535  72.111  1.00  0.00    -0.442 C  
HETATM    9  H   UNL     1      -8.227   8.123  69.721  1.00  0.00     0.000 HD 
HETATM   10  C   UNL     1     -10.777   6.200  72.781  1.00  0.00    -0.268 C  
HETATM   11  C   UNL     1     -10.326   5.211  73.818  1.00  0.00    -0.275 C  
HETATM   12  C   UNL     1     -10.914   7.499  73.079  1.00  0.00    -0.443 C  
ENDROOT
BRANCH   5  13
HETATM   13  C   UNL     1      -9.194   8.756  67.358  1.00  0.00    -0.158 C  
BRANCH  13  14
HETATM   14  C   UNL     1      -9.664   9.213  66.002  1.00  0.00    -0.358 C  
HETATM   15  C   UNL     1      -9.996  10.483  65.704  1.00  0.00    -0.332 C  
HETATM   16  C   UNL     1      -9.919  11.626  66.683  1.00  0.00    -0.230 C  
HETATM   17  C   UNL     1     -10.486  10.867  64.329  1.00  0.00    -0.405 C  
ENDBRANCH  13  14
ENDBRANCH   5  13
TORSDOF 2
ENDMDL
MODEL       65
REMARK 921   NORMALIZED FREE ENERGY PREDICTED BY IDOCK:   -4.25 KCAL/MOL
REMARK 922        TOTAL FREE ENERGY PREDICTED BY IDOCK:   -5.02 KCAL/MOL
REMARK 923 INTER-LIGAND FREE ENERGY PREDICTED BY IDOCK:   -4.59 KCAL/MOL
REMARK 924 INTRA-LIGAND FREE ENERGY PREDICTED BY IDOCK:   -0.43 KCAL/MOL
REMARK 927      BINDING AFFINITY PREDICTED BY RF-SCORE:    0.00 PKD
ROOT
HETATM    1  C   UNL     1      -9.222  10.198  68.011  1.00  0.00    -0.142 C  
HETATM    2  C   UNL     1      -9.675   9.429  69.303  1.00  0.00    -0.172 C  
HETATM    3  C   UNL     1     -10.287  10.292  66.887  1.00  0.00    -0.298 C  
HETATM    4  O   UNL     1     -10.771  10.098  69.917  1.00  0.00    -0.255 OA 
HETATM    5  C   UNL     1     -10.139   7.978  68.954  1.00  0.00    -0.209 C  
HETATM    6  C   UNL     1     -11.283  11.456  66.983  1.00  0.00    -0.350 C  
HETATM    7  C   UNL     1      -8.528   9.342  70.334  1.00  0.00    -0.247 C  
HETATM    8  C   UNL     1      -8.595  11.596  68.242  1.00  0.00    -0.162 C  
HETATM    9  H   UNL     1     -11.046   9.632  70.699  1.00  0.00     0.000 HD 
HETATM   10  C   UNL     1     -10.724  12.727  67.556  1.00  0.00    -0.247 C  
HETATM   11  C   UNL     1     -11.570  13.963  67.437  1.00  0.00    -0.398 C  
HETATM   12  C   UNL     1      -9.508  12.775  68.120  1.00  0.00    -0.219 C  
ENDROOT
BRANCH   5  13
HETATM   13  C   UNL     1     -10.499   7.112  70.177  1.00  0.00    -0.231 C  
BRANCH  13  14
HETATM   14  C   UNL     1     -11.982   6.936  70.364  1.00  0.00    -0.312 C  
HETATM   15  C   UNL     1     -12.684   7.460  71.387  1.00  0.00    -0.408 C  
HETATM   16  C   UNL     1     -12.081   8.313  72.473  1.00  0.00    -0.400 C  
HETATM   17  C   UNL     1     -14.168   7.222  71.527  1.00  0.00    -0.540 C  
ENDBRANCH  13  14
ENDBRANCH   5  13
TORSDOF 2
ENDMDL
MODEL       66
REMARK 921   NORMALIZED FREE ENERGY PREDICTED BY IDOCK:   -4.23 KCAL/MOL
REMARK 922        TOTAL FREE ENERGY PREDICTED BY IDOCK:   -5.01 KCAL/MOL
REMARK 923 INTER-LIGAND FREE ENERGY PREDICTED BY IDOCK:   -4.58 KCAL/MOL
REMARK 924 INTRA-LIGAND FREE ENERGY PREDICTED BY IDOCK:   -0.43 KCAL/MOL
REMARK 927      BINDING AFFINITY PREDICTED BY RF-SCORE:    0.00 PKD
ROOT
HETATM    1  C   UNL     1     -11.718  12.375  65.657  1.00  0.00    -0.468 C  
HETATM    2  C   UNL     1     -10.483  11.547  65.152  1.00  0.00    -0.286 C  
HETATM    3  C   UNL     1     -11.748  12.655  67.183  1.00  0.00    -0.438 C  
HETATM    4  O   UNL     1      -9.275  12.258  65.400  1.00  0.00    -0.433 OA 
HETATM    5  C   UNL     1     -10.388  10.176  65.896  1.00  0.00    -0.221 C  
HETATM    6  C   UNL     1     -10.979  13.890  67.668  1.00  0.00    -0.278 C  
HETATM    7  C   UNL     1     -10.576  11.274  63.634  1.00  0.00    -0.453 C  
HETATM    8  C   UNL     1     -12.009  13.688  64.889  1.00  0.00    -0.410 C  
HETATM    9  H   UNL     1      -8.528  11.757  65.094  1.00  0.00     0.000 HD 
HETATM   10  C   UNL     1     -10.983  15.057  66.720  1.00  0.00    -0.323 C  
HETATM   11  C   UNL     1     -10.472  16.369  67.245  1.00  0.00    -0.303 C  
HETATM   12  C   UNL     1     -11.453  14.949  65.469  1.00  0.00    -0.307 C  
ENDROOT
BRANCH   5  13
HETATM   13  C   UNL     1      -9.268   9.249  65.386  1.00  0.00    -0.284 C  
BRANCH  13  14
HETATM   14  C   UNL     1      -8.077   9.196  66.305  1.00  0.00    -0.111 C  
HETATM   15  C   UNL     1      -6.820   9.508  65.934  1.00  0.00    -0.087 C  
HETATM   16  C   UNL     1      -6.440   9.974  64.553  1.00  0.00    -0.130 C  
HETATM   17  C   UNL     1      -5.667   9.408  66.903  1.00  0.00    -0.051 C  
ENDBRANCH  13  14
ENDBRANCH   5  13
TORSDOF 2
ENDMDL
MODEL       67
REMARK 921   NORMALIZED FREE ENERGY PREDICTED BY IDOCK:   -4.23 KCAL/MOL
REMARK 922        TOTAL FREE ENERGY PREDICTED BY IDOCK:   -5.00 KCAL/MOL
REMARK 923 INTER-LIGAND FREE ENERGY PREDICTED BY IDOCK:   -4.75 KCAL/MOL
REMARK 924 INTRA-LIGAND FREE ENERGY PREDICTED BY IDOCK:   -0.25 KCAL/MOL
REMARK 927      BINDING AFFINITY PREDICTED BY RF-SCORE:    0.00 PKD
ROOT
HETATM    1  C   UNL     1     -11.361  14.435  68.190  1.00  0.00    -0.317 C  
HETATM    2  C   UNL     1      -9.932  13.870  67.866  1.00  0.00    -0.242 C  
HETATM    3  C   UNL     1     -12.200  13.587  69.181  1.00  0.00    -0.236 C  
HETATM    4  O   UNL     1      -9.138  13.827  69.048  1.00  0.00    -0.383 OA 
HETATM    5  C   UNL     1     -10.022  12.416  67.302  1.00  0.00    -0.209 C  
HETATM    6  C   UNL     1     -11.978  13.861  70.674  1.00  0.00    -0.364 C  
HETATM    7  C   UNL     1      -9.202  14.752  66.830  1.00  0.00    -0.263 C  
HETATM    8  C   UNL     1     -11.417  15.925  68.613  1.00  0.00    -0.391 C  
HETATM    9  H   UNL     1      -8.274  13.484  68.852  1.00  0.00     0.000 HD 
HETATM   10  C   UNL     1     -11.677  15.291  71.023  1.00  0.00    -0.394 C  
HETATM   11  C   UNL     1     -11.706  15.663  72.478  1.00  0.00    -0.567 C  
HETATM   12  C   UNL     1     -11.427  16.211  70.080  1.00  0.00    -0.309 C  
ENDROOT
BRANCH   5  13
HETATM   13  C   UNL     1      -8.673  11.820  66.854  1.00  0.00    -0.189 C  
BRANCH  13  14
HETATM   14  C   UNL     1      -8.614  10.321  66.985  1.00  0.00    -0.129 C  
HETATM   15  C   UNL     1      -8.978   9.461  66.015  1.00  0.00    -0.205 C  
HETATM   16  C   UNL     1      -9.475   9.884  64.658  1.00  0.00    -0.343 C  
HETATM   17  C   UNL     1      -8.917   7.967  66.224  1.00  0.00    -0.208 C  
ENDBRANCH  13  14
ENDBRANCH   5  13
TORSDOF 2
ENDMDL
MODEL       68
REMARK 921   NORMALIZED FREE ENERGY PREDICTED BY IDOCK:   -4.17 KCAL/MOL
REMARK 922        TOTAL FREE ENERGY PREDICTED BY IDOCK:   -4.93 KCAL/MOL
REMARK 923 INTER-LIGAND FREE ENERGY PREDICTED BY IDOCK:   -4.68 KCAL/MOL
REMARK 924 INTRA-LIGAND FREE ENERGY PREDICTED BY IDOCK:   -0.26 KCAL/MOL
REMARK 927      BINDING AFFINITY PREDICTED BY RF-SCORE:    0.00 PKD
ROOT
HETATM    1  C   UNL     1      -9.247  11.458  65.907  1.00  0.00    -0.231 C  
HETATM    2  C   UNL     1     -10.623  12.165  66.182  1.00  0.00    -0.255 C  
HETATM    3  C   UNL     1      -8.368  11.209  67.161  1.00  0.00    -0.136 C  
HETATM    4  O   UNL     1     -11.436  11.354  67.023  1.00  0.00    -0.452 OA 
HETATM    5  C   UNL     1     -10.412  13.534  66.903  1.00  0.00    -0.271 C  
HETATM    6  C   UNL     1      -8.642   9.919  67.944  1.00  0.00    -0.125 C  
HETATM    7  C   UNL     1     -11.395  12.417  64.868  1.00  0.00    -0.361 C  
HETATM    8  C   UNL     1      -9.312  10.162  65.060  1.00  0.00    -0.299 C  
HETATM    9  H   UNL     1     -12.268  11.781  67.189  1.00  0.00     0.000 HD 
HETATM   10  C   UNL     1      -9.057   8.741  67.108  1.00  0.00    -0.155 C  
HETATM   11  C   UNL     1      -9.087   7.399  67.783  1.00  0.00    -0.129 C  
HETATM   12  C   UNL     1      -9.355   8.867  65.807  1.00  0.00    -0.286 C  
ENDROOT
BRANCH   5  13
HETATM   13  C   UNL     1     -11.702  14.350  67.115  1.00  0.00    -0.424 C  
BRANCH  13  14
HETATM   14  C   UNL     1     -11.656  15.227  68.337  1.00  0.00    -0.365 C  
HETATM   15  C   UNL     1     -11.843  14.785  69.595  1.00  0.00    -0.362 C  
HETATM   16  C   UNL     1     -12.104  13.344  69.951  1.00  0.00    -0.389 C  
HETATM   17  C   UNL     1     -11.808  15.726  70.774  1.00  0.00    -0.438 C  
ENDBRANCH  13  14
ENDBRANCH   5  13
TORSDOF 2
ENDMDL
MODEL       69
REMARK 921   NORMALIZED FREE ENERGY PREDICTED BY IDOCK:   -4.14 KCAL/MOL
REMARK 922        TOTAL FREE ENERGY PREDICTED BY IDOCK:   -4.90 KCAL/MOL
REMARK 923 INTER-LIGAND FREE ENERGY PREDICTED BY IDOCK:   -4.67 KCAL/MOL
REMARK 924 INTRA-LIGAND FREE ENERGY PREDICTED BY IDOCK:   -0.23 KCAL/MOL
REMARK 927      BINDING AFFINITY PREDICTED BY RF-SCORE:    0.00 PKD
ROOT
HETATM    1  C   UNL     1      -9.188  10.618  66.937  1.00  0.00    -0.172 C  
HETATM    2  C   UNL     1     -10.153   9.950  67.980  1.00  0.00    -0.171 C  
HETATM    3  C   UNL     1      -9.312  10.089  65.484  1.00  0.00    -0.271 C  
HETATM    4  O   UNL     1     -11.510  10.203  67.631  1.00  0.00    -0.562 OA 
HETATM    5  C   UNL     1      -9.953   8.400  68.012  1.00  0.00    -0.221 C  
HETATM    6  C   UNL     1     -10.385  10.745  64.606  1.00  0.00    -0.394 C  
HETATM    7  C   UNL     1      -9.913  10.504  69.401  1.00  0.00    -0.220 C  
HETATM    8  C   UNL     1      -9.182  12.168  66.920  1.00  0.00    -0.203 C  
HETATM    9  H   UNL     1     -12.094   9.798  68.261  1.00  0.00     0.000 HD 
HETATM   10  C   UNL     1     -10.612  12.208  64.862  1.00  0.00    -0.332 C  
HETATM   11  C   UNL     1     -11.456  12.956  63.869  1.00  0.00    -0.504 C  
HETATM   12  C   UNL     1     -10.061  12.836  65.911  1.00  0.00    -0.286 C  
ENDROOT
BRANCH   5  13
HETATM   13  C   UNL     1     -10.783   7.671  69.086  1.00  0.00    -0.153 C  
BRANCH  13  14
HETATM   14  C   UNL     1     -10.267   6.292  69.401  1.00  0.00    -0.238 C  
HETATM   15  C   UNL     1     -10.473   5.655  70.569  1.00  0.00    -0.347 C  
HETATM   16  C   UNL     1     -11.269   6.228  71.712  1.00  0.00    -0.334 C  
HETATM   17  C   UNL     1      -9.903   4.281  70.826  1.00  0.00    -0.265 C  
ENDBRANCH  13  14
ENDBRANCH   5  13
TORSDOF 2
ENDMDL
MODEL       70
REMARK 921   NORMALIZED FREE ENERGY PREDICTED BY IDOCK:   -4.12 KCAL/MOL
REMARK 922        TOTAL FREE ENERGY PREDICTED BY IDOCK:   -4.88 KCAL/MOL
REMARK 923 INTER-LIGAND FREE ENERGY PREDICTED BY IDOCK:   -4.64 KCAL/MOL
REMARK 924 INTRA-LIGAND FREE ENERGY PREDICTED BY IDOCK:   -0.24 KCAL/MOL
REMARK 927      BINDING AFFINITY PREDICTED BY RF-SCORE:    0.00 PKD
ROOT
HETATM    1  C   UNL     1     -11.633  12.512  66.021  1.00  0.00    -0.456 C  
HETATM    2  C   UNL     1     -10.637  11.413  66.538  1.00  0.00    -0.263 C  
HETATM    3  C   UNL     1     -12.098  13.540  67.086  1.00  0.00    -0.386 C  
HETATM    4  O   UNL     1      -9.430  12.015  66.992  1.00  0.00    -0.189 OA 
HETATM    5  C   UNL     1     -11.253  10.622  67.736  1.00  0.00    -0.383 C  
HETATM    6  C   UNL     1     -11.189  14.757  67.305  1.00  0.00    -0.351 C  
HETATM    7  C   UNL     1     -10.281  10.409  65.419  1.00  0.00    -0.329 C  
HETATM    8  C   UNL     1     -11.201  13.263  64.736  1.00  0.00    -0.350 C  
HETATM    9  H   UNL     1      -8.827  11.350  67.305  1.00  0.00     0.000 HD 
HETATM   10  C   UNL     1     -10.489  15.259  66.074  1.00  0.00    -0.328 C  
HETATM   11  C   UNL     1      -9.798  16.590  66.173  1.00  0.00    -0.355 C  
HETATM   12  C   UNL     1     -10.505  14.574  64.922  1.00  0.00    -0.435 C  
ENDROOT
BRANCH   5  13
HETATM   13  C   UNL     1     -10.388   9.449  68.239  1.00  0.00    -0.251 C  
BRANCH  13  14
HETATM   14  C   UNL     1      -9.371   9.861  69.269  1.00  0.00    -0.215 C  
HETATM   15  C   UNL     1      -8.041   9.872  69.058  1.00  0.00    -0.111 C  
HETATM   16  C   UNL     1      -7.392   9.494  67.752  1.00  0.00    -0.083 C  
HETATM   17  C   UNL     1      -7.075  10.272  70.146  1.00  0.00    -0.154 C  
ENDBRANCH  13  14
ENDBRANCH   5  13
TORSDOF 2
ENDMDL
MODEL       71
REMARK 921   NORMALIZED FREE ENERGY PREDICTED BY IDOCK:   -4.11 KCAL/MOL
REMARK 922        TOTAL FREE ENERGY PREDICTED BY IDOCK:   -4.87 KCAL/MOL
REMARK 923 INTER-LIGAND FREE ENERGY PREDICTED BY IDOCK:   -4.47 KCAL/MOL
REMARK 924 INTRA-LIGAND FREE ENERGY PREDICTED BY IDOCK:   -0.40 KCAL/MOL
REMARK 927      BINDING AFFINITY PREDICTED BY RF-SCORE:    0.00 PKD
ROOT
HETATM    1  C   UNL     1     -11.027  15.067  66.311  1.00  0.00    -0.338 C  
HETATM    2  C   UNL     1     -10.527  13.602  66.046  1.00  0.00    -0.300 C  
HETATM    3  C   UNL     1     -11.131  15.472  67.805  1.00  0.00    -0.315 C  
HETATM    4  O   UNL     1      -9.205  13.433  66.547  1.00  0.00    -0.349 OA 
HETATM    5  C   UNL     1     -11.443  12.561  66.766  1.00  0.00    -0.422 C  
HETATM    6  C   UNL     1      -9.852  16.008  68.461  1.00  0.00    -0.216 C  
HETATM    7  C   UNL     1     -10.512  13.280  64.536  1.00  0.00    -0.434 C  
HETATM    8  C   UNL     1     -10.291  16.183  65.528  1.00  0.00    -0.391 C  
HETATM    9  H   UNL     1      -8.902  12.546  66.387  1.00  0.00     0.000 HD 
HETATM   10  C   UNL     1      -8.960  16.811  67.556  1.00  0.00    -0.208 C  
HETATM   11  C   UNL     1      -7.836  17.571  68.200  1.00  0.00    -0.244 C  
HETATM   12  C   UNL     1      -9.173  16.881  66.234  1.00  0.00    -0.299 C  
ENDROOT
BRANCH   5  13
HETATM   13  C   UNL     1     -11.092  11.090  66.472  1.00  0.00    -0.174 C  
BRANCH  13  14
HETATM   14  C   UNL     1     -10.831  10.282  67.715  1.00  0.00    -0.346 C  
HETATM   15  C   UNL     1      -9.609   9.882  68.116  1.00  0.00    -0.153 C  
HETATM   16  C   UNL     1      -8.334  10.209  67.383  1.00  0.00    -0.118 C  
HETATM   17  C   UNL     1      -9.423   9.051  69.361  1.00  0.00    -0.159 C  
ENDBRANCH  13  14
ENDBRANCH   5  13
TORSDOF 2
ENDMDL
MODEL       72
REMARK 921   NORMALIZED FREE ENERGY PREDICTED BY IDOCK:   -4.11 KCAL/MOL
REMARK 922        TOTAL FREE ENERGY PREDICTED BY IDOCK:   -4.87 KCAL/MOL
REMARK 923 INTER-LIGAND FREE ENERGY PREDICTED BY IDOCK:   -4.59 KCAL/MOL
REMARK 924 INTRA-LIGAND FREE ENERGY PREDICTED BY IDOCK:   -0.28 KCAL/MOL
REMARK 927      BINDING AFFINITY PREDICTED BY RF-SCORE:    0.00 PKD
ROOT
HETATM    1  C   UNL     1      -9.462  11.398  65.959  1.00  0.00    -0.245 C  
HETATM    2  C   UNL     1     -10.161  10.504  67.044  1.00  0.00    -0.226 C  
HETATM    3  C   UNL     1     -10.065  11.302  64.533  1.00  0.00    -0.348 C  
HETATM    4  O   UNL     1     -11.519  10.899  67.212  1.00  0.00    -0.458 OA 
HETATM    5  C   UNL     1     -10.154   9.001  66.617  1.00  0.00    -0.355 C  
HETATM    6  C   UNL     1     -11.256  12.221  64.229  1.00  0.00    -0.409 C  
HETATM    7  C   UNL     1      -9.454  10.627  68.412  1.00  0.00    -0.165 C  
HETATM    8  C   UNL     1      -9.270  12.889  66.336  1.00  0.00    -0.144 C  
HETATM    9  H   UNL     1     -11.942  10.357  67.868  1.00  0.00     0.000 HD 
HETATM   10  C   UNL     1     -11.216  13.561  64.907  1.00  0.00    -0.353 C  
HETATM   11  C   UNL     1     -12.210  14.590  64.450  1.00  0.00    -0.480 C  
HETATM   12  C   UNL     1     -10.312  13.848  65.855  1.00  0.00    -0.318 C  
ENDROOT
BRANCH   5  13
HETATM   13  C   UNL     1     -10.723   8.034  67.674  1.00  0.00    -0.203 C  
BRANCH  13  14
HETATM   14  C   UNL     1     -10.734   6.599  67.220  1.00  0.00    -0.427 C  
HETATM   15  C   UNL     1      -9.744   5.719  67.464  1.00  0.00    -0.128 C  
HETATM   16  C   UNL     1      -8.499   6.048  68.245  1.00  0.00    -0.112 C  
HETATM   17  C   UNL     1      -9.810   4.299  66.956  1.00  0.00    -0.216 C  
ENDBRANCH  13  14
ENDBRANCH   5  13
TORSDOF 2
ENDMDL
MODEL       73
REMARK 921   NORMALIZED FREE ENERGY PREDICTED BY IDOCK:   -4.07 KCAL/MOL
REMARK 922        TOTAL FREE ENERGY PREDICTED BY IDOCK:   -4.83 KCAL/MOL
REMARK 923 INTER-LIGAND FREE ENERGY PREDICTED BY IDOCK:   -4.45 KCAL/MOL
REMARK 924 INTRA-LIGAND FREE ENERGY PREDICTED BY IDOCK:   -0.38 KCAL/MOL
REMARK 927      BINDING AFFINITY PREDICTED BY RF-SCORE:    0.00 PKD
ROOT
HETATM    1  C   UNL     1     -11.147   6.941  68.552  1.00  0.00    -0.145 C  
HETATM    2  C   UNL     1     -10.364   8.300  68.474  1.00  0.00    -0.199 C  
HETATM    3  C   UNL     1     -10.614   5.814  67.628  1.00  0.00    -0.313 C  
HETATM    4  O   UNL     1      -9.014   8.117  68.890  1.00  0.00    -0.140 OA 
HETATM    5  C   UNL     1     -10.339   8.846  67.011  1.00  0.00    -0.340 C  
HETATM    6  C   UNL     1      -9.473   4.954  68.187  1.00  0.00    -0.178 C  
HETATM    7  C   UNL     1     -11.005   9.369  69.385  1.00  0.00    -0.165 C  
HETATM    8  C   UNL     1     -11.374   6.373  69.976  1.00  0.00    -0.496 C  
HETATM    9  H   UNL     1      -8.540   8.939  68.843  1.00  0.00     0.000 HD 
HETATM   10  C   UNL     1      -9.527   4.707  69.668  1.00  0.00    -0.232 C  
HETATM   11  C   UNL     1      -8.594   3.670  70.225  1.00  0.00    -0.105 C  
HETATM   12  C   UNL     1     -10.391   5.356  70.462  1.00  0.00    -0.344 C  
ENDROOT
BRANCH   5  13
HETATM   13  C   UNL     1      -9.684  10.233  66.858  1.00  0.00    -0.229 C  
BRANCH  13  14
HETATM   14  C   UNL     1     -10.387  11.115  65.862  1.00  0.00    -0.314 C  
HETATM   15  C   UNL     1     -11.232  12.110  66.194  1.00  0.00    -0.386 C  
HETATM   16  C   UNL     1     -11.571  12.488  67.613  1.00  0.00    -0.416 C  
HETATM   17  C   UNL     1     -11.924  12.940  65.141  1.00  0.00    -0.452 C  
ENDBRANCH  13  14
ENDBRANCH   5  13
TORSDOF 2
ENDMDL
MODEL       74
REMARK 921   NORMALIZED FREE ENERGY PREDICTED BY IDOCK:   -4.07 KCAL/MOL
REMARK 922        TOTAL FREE ENERGY PREDICTED BY IDOCK:   -4.83 KCAL/MOL
REMARK 923 INTER-LIGAND FREE ENERGY PREDICTED BY IDOCK:   -5.25 KCAL/MOL
REMARK 924 INTRA-LIGAND FREE ENERGY PREDICTED BY IDOCK:    0.43 KCAL/MOL
REMARK 927      BINDING AFFINITY PREDICTED BY RF-SCORE:    0.00 PKD
ROOT
HETATM    1  C   UNL     1     -10.824  14.534  67.109  1.00  0.00    -0.296 C  
HETATM    2  C   UNL     1     -10.731  13.771  68.478  1.00  0.00    -0.262 C  
HETATM    3  C   UNL     1     -11.276  16.015  67.205  1.00  0.00    -0.041 C  
HETATM    4  O   UNL     1      -9.756  14.379  69.318  1.00  0.00    -0.408 OA 
HETATM    5  C   UNL     1     -12.098  13.810  69.233  1.00  0.00    -0.374 C  
HETATM    6  C   UNL     1     -10.176  17.050  67.474  1.00  0.00    -0.323 C  
HETATM    7  C   UNL     1     -10.329  12.294  68.269  1.00  0.00    -0.227 C  
HETATM    8  C   UNL     1      -9.576  14.437  66.196  1.00  0.00    -0.309 C  
HETATM    9  H   UNL     1      -9.699  13.917  70.146  1.00  0.00     0.000 HD 
HETATM   10  C   UNL     1      -8.844  16.742  66.852  1.00  0.00    -0.241 C  
HETATM   11  C   UNL     1      -7.812  17.833  66.864  1.00  0.00    -0.250 C  
HETATM   12  C   UNL     1      -8.589  15.557  66.278  1.00  0.00    -0.208 C  
ENDROOT
BRANCH   5  13
HETATM   13  C   UNL     1     -12.131  12.992  70.538  1.00  0.00    -0.373 C  
BRANCH  13  14
HETATM   14  C   UNL     1     -12.796  13.717  71.677  1.00  0.00    -0.438 C  
HETATM   15  C   UNL     1     -12.663  15.036  71.916  1.00  0.00    -0.407 C  
HETATM   16  C   UNL     1     -11.846  15.968  71.061  1.00  0.00    -0.435 C  
HETATM   17  C   UNL     1     -13.340  15.694  73.094  1.00  0.00    -0.660 C  
ENDBRANCH  13  14
ENDBRANCH   5  13
TORSDOF 2
ENDMDL
MODEL       75
REMARK 921   NORMALIZED FREE ENERGY PREDICTED BY IDOCK:   -4.05 KCAL/MOL
REMARK 922        TOTAL FREE ENERGY PREDICTED BY IDOCK:   -4.81 KCAL/MOL
REMARK 923 INTER-LIGAND FREE ENERGY PREDICTED BY IDOCK:   -4.67 KCAL/MOL
REMARK 924 INTRA-LIGAND FREE ENERGY PREDICTED BY IDOCK:   -0.13 KCAL/MOL
REMARK 927      BINDING AFFINITY PREDICTED BY RF-SCORE:    0.00 PKD
ROOT
HETATM    1  C   UNL     1     -11.536  11.831  67.447  1.00  0.00    -0.375 C  
HETATM    2  C   UNL     1     -11.198  12.899  68.548  1.00  0.00    -0.274 C  
HETATM    3  C   UNL     1     -10.868  12.067  66.067  1.00  0.00    -0.329 C  
HETATM    4  O   UNL     1      -9.802  12.894  68.830  1.00  0.00    -0.400 OA 
HETATM    5  C   UNL     1     -11.579  14.336  68.066  1.00  0.00    -0.364 C  
HETATM    6  C   UNL     1      -9.452  11.506  65.887  1.00  0.00    -0.251 C  
HETATM    7  C   UNL     1     -11.954  12.607  69.863  1.00  0.00    -0.365 C  
HETATM    8  C   UNL     1     -11.345  10.351  67.863  1.00  0.00    -0.248 C  
HETATM    9  H   UNL     1      -9.598  13.541  69.495  1.00  0.00     0.000 HD 
HETATM   10  C   UNL     1      -9.180  10.216  66.609  1.00  0.00    -0.181 C  
HETATM   11  C   UNL     1      -7.909   9.492  66.265  1.00  0.00    -0.100 C  
HETATM   12  C   UNL     1     -10.045   9.707  67.497  1.00  0.00    -0.247 C  
ENDROOT
BRANCH   5  13
HETATM   13  C   UNL     1     -11.383  15.438  69.126  1.00  0.00    -0.323 C  
BRANCH  13  14
HETATM   14  C   UNL     1      -9.976  15.971  69.174  1.00  0.00    -0.246 C  
HETATM   15  C   UNL     1      -9.571  17.096  68.555  1.00  0.00    -0.288 C  
HETATM   16  C   UNL     1     -10.478  17.986  67.745  1.00  0.00    -0.421 C  
HETATM   17  C   UNL     1      -8.136  17.559  68.624  1.00  0.00    -0.263 C  
ENDBRANCH  13  14
ENDBRANCH   5  13
TORSDOF 2
ENDMDL
MODEL       76
REMARK 921   NORMALIZED FREE ENERGY PREDICTED BY IDOCK:   -4.04 KCAL/MOL
REMARK 922        TOTAL FREE ENERGY PREDICTED BY IDOCK:   -4.79 KCAL/MOL
REMARK 923 INTER-LIGAND FREE ENERGY PREDICTED BY IDOCK:   -4.56 KCAL/MOL
REMARK 924 INTRA-LIGAND FREE ENERGY PREDICTED BY IDOCK:   -0.23 KCAL/MOL
REMARK 927      BINDING AFFINITY PREDICTED BY RF-SCORE:    0.00 PKD
ROOT
HETATM    1  C   UNL     1     -10.896  13.042  66.522  1.00  0.00    -0.294 C  
HETATM    2  C   UNL     1     -10.207  11.866  67.301  1.00  0.00    -0.200 C  
HETATM    3  C   UNL     1     -12.153  13.643  67.205  1.00  0.00    -0.385 C  
HETATM    4  O   UNL     1      -9.734  12.320  68.565  1.00  0.00    -0.279 OA 
HETATM    5  C   UNL     1     -11.217  10.703  67.563  1.00  0.00    -0.326 C  
HETATM    6  C   UNL     1     -11.907  14.746  68.243  1.00  0.00    -0.316 C  
HETATM    7  C   UNL     1      -9.004  11.301  66.513  1.00  0.00    -0.189 C  
HETATM    8  C   UNL     1      -9.960  14.190  66.068  1.00  0.00    -0.340 C  
HETATM    9  H   UNL     1      -9.317  11.608  69.036  1.00  0.00     0.000 HD 
HETATM   10  C   UNL     1     -10.743  15.650  67.948  1.00  0.00    -0.294 C  
HETATM   11  C   UNL     1     -10.612  16.893  68.783  1.00  0.00    -0.355 C  
HETATM   12  C   UNL     1      -9.874  15.386  66.962  1.00  0.00    -0.236 C  
ENDROOT
BRANCH   5  13
HETATM   13  C   UNL     1     -10.599   9.457  68.227  1.00  0.00    -0.256 C  
BRANCH  13  14
HETATM   14  C   UNL     1     -10.780   8.201  67.417  1.00  0.00    -0.247 C  
HETATM   15  C   UNL     1     -10.564   6.958  67.889  1.00  0.00    -0.286 C  
HETATM   16  C   UNL     1     -10.132   6.656  69.300  1.00  0.00    -0.187 C  
HETATM   17  C   UNL     1     -10.740   5.742  67.012  1.00  0.00    -0.369 C  
ENDBRANCH  13  14
ENDBRANCH   5  13
TORSDOF 2
ENDMDL
MODEL       77
REMARK 921   NORMALIZED FREE ENERGY PREDICTED BY IDOCK:   -4.03 KCAL/MOL
REMARK 922        TOTAL FREE ENERGY PREDICTED BY IDOCK:   -4.78 KCAL/MOL
REMARK 923 INTER-LIGAND FREE ENERGY PREDICTED BY IDOCK:   -4.55 KCAL/MOL
REMARK 924 INTRA-LIGAND FREE ENERGY PREDICTED BY IDOCK:   -0.23 KCAL/MOL
REMARK 927      BINDING AFFINITY PREDICTED BY RF-SCORE:    0.00 PKD
ROOT
HETATM    1  C   UNL     1     -10.825  13.082  68.513  1.00  0.00    -0.282 C  
HETATM    2  C   UNL     1     -11.568  12.649  67.199  1.00  0.00    -0.368 C  
HETATM    3  C   UNL     1     -10.576  14.606  68.662  1.00  0.00    -0.252 C  
HETATM    4  O   UNL     1     -12.871  13.221  67.157  1.00  0.00     0.126 OA 
HETATM    5  C   UNL     1     -10.794  13.138  65.933  1.00  0.00    -0.288 C  
HETATM    6  C   UNL     1     -11.715  15.428  69.278  1.00  0.00    -0.367 C  
HETATM    7  C   UNL     1     -11.717  11.113  67.120  1.00  0.00     0.140 C  
HETATM    8  C   UNL     1     -11.412  12.526  69.835  1.00  0.00    -0.159 C  
HETATM    9  H   UNL     1     -13.321  12.959  66.362  1.00  0.00     0.000 HD 
HETATM   10  C   UNL     1     -12.512  14.721  70.337  1.00  0.00    -0.405 C  
HETATM   11  C   UNL     1     -13.464  15.552  71.150  1.00  0.00    -0.513 C  
HETATM   12  C   UNL     1     -12.364  13.410  70.577  1.00  0.00    -0.401 C  
ENDROOT
BRANCH   5  13
HETATM   13  C   UNL     1     -11.394  12.664  64.595  1.00  0.00    -0.360 C  
BRANCH  13  14
HETATM   14  C   UNL     1     -10.352  12.372  63.548  1.00  0.00    -0.397 C  
HETATM   15  C   UNL     1      -9.608  11.250  63.512  1.00  0.00    -0.324 C  
HETATM   16  C   UNL     1      -9.733  10.124  64.505  1.00  0.00    -0.361 C  
HETATM   17  C   UNL     1      -8.561  11.034  62.447  1.00  0.00    -0.341 C  
ENDBRANCH  13  14
ENDBRANCH   5  13
TORSDOF 2
ENDMDL
MODEL       78
REMARK 921   NORMALIZED FREE ENERGY PREDICTED BY IDOCK:   -4.02 KCAL/MOL
REMARK 922        TOTAL FREE ENERGY PREDICTED BY IDOCK:   -4.77 KCAL/MOL
REMARK 923 INTER-LIGAND FREE ENERGY PREDICTED BY IDOCK:   -4.50 KCAL/MOL
REMARK 924 INTRA-LIGAND FREE ENERGY PREDICTED BY IDOCK:   -0.27 KCAL/MOL
REMARK 927      BINDING AFFINITY PREDICTED BY RF-SCORE:    0.00 PKD
ROOT
HETATM    1  C   UNL     1      -9.463  11.428  67.743  1.00  0.00    -0.167 C  
HETATM    2  C   UNL     1     -10.679  10.801  68.514  1.00  0.00    -0.210 C  
HETATM    3  C   UNL     1      -8.236  10.495  67.570  1.00  0.00    -0.114 C  
HETATM    4  O   UNL     1     -11.190   9.679  67.802  1.00  0.00    -0.504 OA 
HETATM    5  C   UNL     1     -10.246  10.307  69.931  1.00  0.00    -0.250 C  
HETATM    6  C   UNL     1      -8.256   9.554  66.359  1.00  0.00    -0.115 C  
HETATM    7  C   UNL     1     -11.824  11.825  68.682  1.00  0.00    -0.369 C  
HETATM    8  C   UNL     1      -9.797  12.094  66.384  1.00  0.00    -0.242 C  
HETATM    9  H   UNL     1     -11.926   9.300  68.269  1.00  0.00     0.000 HD 
HETATM   10  C   UNL     1      -8.918  10.110  65.130  1.00  0.00    -0.225 C  
HETATM   11  C   UNL     1      -8.742   9.344  63.850  1.00  0.00    -0.225 C  
HETATM   12  C   UNL     1      -9.609  11.258  65.157  1.00  0.00    -0.269 C  
ENDROOT
BRANCH   5  13
HETATM   13  C   UNL     1     -11.400   9.775  70.803  1.00  0.00    -0.416 C  
BRANCH  13  14
HETATM   14  C   UNL     1     -11.185   8.362  71.274  1.00  0.00    -0.309 C  
HETATM   15  C   UNL     1     -12.180   7.504  71.574  1.00  0.00    -0.359 C  
HETATM   16  C   UNL     1     -13.644   7.838  71.458  1.00  0.00    -0.391 C  
HETATM   17  C   UNL     1     -11.892   6.107  72.067  1.00  0.00    -0.336 C  
ENDBRANCH  13  14
ENDBRANCH   5  13
TORSDOF 2
ENDMDL
MODEL       79
REMARK 921   NORMALIZED FREE ENERGY PREDICTED BY IDOCK:   -3.98 KCAL/MOL
REMARK 922        TOTAL FREE ENERGY PREDICTED BY IDOCK:   -4.72 KCAL/MOL
REMARK 923 INTER-LIGAND FREE ENERGY PREDICTED BY IDOCK:   -4.41 KCAL/MOL
REMARK 924 INTRA-LIGAND FREE ENERGY PREDICTED BY IDOCK:   -0.31 KCAL/MOL
REMARK 927      BINDING AFFINITY PREDICTED BY RF-SCORE:    0.00 PKD
ROOT
HETATM    1  C   UNL     1     -11.043  14.654  67.995  1.00  0.00    -0.291 C  
HETATM    2  C   UNL     1     -11.148  13.994  66.574  1.00  0.00    -0.314 C  
HETATM    3  C   UNL     1      -9.664  14.514  68.691  1.00  0.00    -0.221 C  
HETATM    4  O   UNL     1     -10.236  14.614  65.672  1.00  0.00    -0.317 OA 
HETATM    5  C   UNL     1     -10.792  12.474  66.637  1.00  0.00    -0.277 C  
HETATM    6  C   UNL     1      -8.611  15.574  68.346  1.00  0.00    -0.168 C  
HETATM    7  C   UNL     1     -12.571  14.140  65.992  1.00  0.00    -0.407 C  
HETATM    8  C   UNL     1     -11.520  16.126  68.092  1.00  0.00    -0.220 C  
HETATM    9  H   UNL     1     -10.300  14.215  64.813  1.00  0.00     0.000 HD 
HETATM   10  C   UNL     1      -9.154  16.952  68.092  1.00  0.00    -0.231 C  
HETATM   11  C   UNL     1      -8.160  18.075  68.004  1.00  0.00    -0.259 C  
HETATM   12  C   UNL     1     -10.470  17.185  67.980  1.00  0.00    -0.369 C  
ENDROOT
BRANCH   5  13
HETATM   13  C   UNL     1     -10.973  11.720  65.306  1.00  0.00    -0.350 C  
BRANCH  13  14
HETATM   14  C   UNL     1      -9.675  11.239  64.714  1.00  0.00    -0.298 C  
HETATM   15  C   UNL     1      -9.131  10.032  64.962  1.00  0.00    -0.255 C  
HETATM   16  C   UNL     1      -9.761   8.990  65.849  1.00  0.00    -0.306 C  
HETATM   17  C   UNL     1      -7.811   9.625  64.354  1.00  0.00    -0.129 C  
ENDBRANCH  13  14
ENDBRANCH   5  13
TORSDOF 2
ENDMDL
MODEL       80
REMARK 921   NORMALIZED FREE ENERGY PREDICTED BY IDOCK:   -3.97 KCAL/MOL
REMARK 922        TOTAL FREE ENERGY PREDICTED BY IDOCK:   -4.72 KCAL/MOL
REMARK 923 INTER-LIGAND FREE ENERGY PREDICTED BY IDOCK:   -4.43 KCAL/MOL
REMARK 924 INTRA-LIGAND FREE ENERGY PREDICTED BY IDOCK:   -0.29 KCAL/MOL
REMARK 927      BINDING AFFINITY PREDICTED BY RF-SCORE:    0.00 PKD
ROOT
HETATM    1  C   UNL     1      -9.903   7.541  71.010  1.00  0.00    -0.182 C  
HETATM    2  C   UNL     1     -10.303   6.567  69.845  1.00  0.00    -0.191 C  
HETATM    3  C   UNL     1      -9.717   9.026  70.598  1.00  0.00    -0.287 C  
HETATM    4  O   UNL     1     -11.565   6.939  69.300  1.00  0.00    -0.568 OA 
HETATM    5  C   UNL     1      -9.254   6.619  68.689  1.00  0.00    -0.128 C  
HETATM    6  C   UNL     1     -10.981   9.895  70.579  1.00  0.00    -0.391 C  
HETATM    7  C   UNL     1     -10.408   5.109  70.345  1.00  0.00    -0.326 C  
HETATM    8  C   UNL     1     -10.784   7.468  72.282  1.00  0.00    -0.294 C  
HETATM    9  H   UNL     1     -11.807   6.350  68.595  1.00  0.00     0.000 HD 
HETATM   10  C   UNL     1     -12.001   9.560  71.631  1.00  0.00    -0.474 C  
HETATM   11  C   UNL     1     -13.130  10.532  71.825  1.00  0.00    -0.570 C  
HETATM   12  C   UNL     1     -11.897   8.461  72.393  1.00  0.00    -0.452 C  
ENDROOT
BRANCH   5  13
HETATM   13  C   UNL     1      -9.507   5.613  67.549  1.00  0.00    -0.117 C  
BRANCH  13  14
HETATM   14  C   UNL     1      -8.284   4.822  67.173  1.00  0.00    -0.106 C  
HETATM   15  C   UNL     1      -8.069   3.542  67.534  1.00  0.00    -0.081 C  
HETATM   16  C   UNL     1      -9.037   2.722  68.346  1.00  0.00    -0.219 C  
HETATM   17  C   UNL     1      -6.805   2.816  67.142  1.00  0.00    -0.045 C  
ENDBRANCH  13  14
ENDBRANCH   5  13
TORSDOF 2
ENDMDL
MODEL       81
REMARK 921   NORMALIZED FREE ENERGY PREDICTED BY IDOCK:   -3.96 KCAL/MOL
REMARK 922        TOTAL FREE ENERGY PREDICTED BY IDOCK:   -4.70 KCAL/MOL
REMARK 923 INTER-LIGAND FREE ENERGY PREDICTED BY IDOCK:   -4.50 KCAL/MOL
REMARK 924 INTRA-LIGAND FREE ENERGY PREDICTED BY IDOCK:   -0.21 KCAL/MOL
REMARK 927      BINDING AFFINITY PREDICTED BY RF-SCORE:    0.00 PKD
ROOT
HETATM    1  C   UNL     1     -10.552  12.725  68.773  1.00  0.00    -0.216 C  
HETATM    2  C   UNL     1     -11.069  11.242  68.750  1.00  0.00    -0.233 C  
HETATM    3  C   UNL     1      -9.354  13.024  67.833  1.00  0.00    -0.212 C  
HETATM    4  O   UNL     1     -11.551  10.907  67.453  1.00  0.00    -0.509 OA 
HETATM    5  C   UNL     1      -9.919  10.244  69.100  1.00  0.00    -0.235 C  
HETATM    6  C   UNL     1      -9.697  13.382  66.381  1.00  0.00    -0.282 C  
HETATM    7  C   UNL     1     -12.221  11.035  69.758  1.00  0.00    -0.388 C  
HETATM    8  C   UNL     1     -11.633  13.819  68.592  1.00  0.00    -0.369 C  
HETATM    9  H   UNL     1     -11.864  10.010  67.438  1.00  0.00     0.000 HD 
HETATM   10  C   UNL     1     -10.969  14.161  66.200  1.00  0.00    -0.309 C  
HETATM   11  C   UNL     1     -11.220  14.757  64.844  1.00  0.00    -0.411 C  
HETATM   12  C   UNL     1     -11.832  14.350  67.208  1.00  0.00    -0.434 C  
ENDROOT
BRANCH   5  13
HETATM   13  C   UNL     1     -10.362   8.772  69.207  1.00  0.00    -0.221 C  
BRANCH  13  14
HETATM   14  C   UNL     1      -9.215   7.800  69.129  1.00  0.00    -0.144 C  
HETATM   15  C   UNL     1      -9.327   6.529  68.699  1.00  0.00    -0.125 C  
HETATM   16  C   UNL     1     -10.614   5.914  68.217  1.00  0.00    -0.310 C  
HETATM   17  C   UNL     1      -8.138   5.600  68.672  1.00  0.00    -0.100 C  
ENDBRANCH  13  14
ENDBRANCH   5  13
TORSDOF 2
ENDMDL
MODEL       82
REMARK 921   NORMALIZED FREE ENERGY PREDICTED BY IDOCK:   -3.94 KCAL/MOL
REMARK 922        TOTAL FREE ENERGY PREDICTED BY IDOCK:   -4.68 KCAL/MOL
REMARK 923 INTER-LIGAND FREE ENERGY PREDICTED BY IDOCK:   -4.48 KCAL/MOL
REMARK 924 INTRA-LIGAND FREE ENERGY PREDICTED BY IDOCK:   -0.20 KCAL/MOL
REMARK 927      BINDING AFFINITY PREDICTED BY RF-SCORE:    0.00 PKD
ROOT
HETATM    1  C   UNL     1     -10.189  14.533  68.784  1.00  0.00    -0.244 C  
HETATM    2  C   UNL     1     -11.339  13.625  69.349  1.00  0.00    -0.245 C  
HETATM    3  C   UNL     1      -9.443  13.964  67.548  1.00  0.00    -0.216 C  
HETATM    4  O   UNL     1     -12.361  13.456  68.372  1.00  0.00    -0.209 OA 
HETATM    5  C   UNL     1     -10.799  12.207  69.721  1.00  0.00     0.325 C  
HETATM    6  C   UNL     1     -10.069  14.255  66.177  1.00  0.00    -0.325 C  
HETATM    7  C   UNL     1     -11.979  14.252  70.608  1.00  0.00    -0.392 C  
HETATM    8  C   UNL     1     -10.565  16.013  68.520  1.00  0.00    -0.268 C  
HETATM    9  H   UNL     1     -13.057  12.907  68.714  1.00  0.00     0.000 HD 
HETATM   10  C   UNL     1     -10.751  15.588  66.058  1.00  0.00    -0.331 C  
HETATM   11  C   UNL     1     -11.152  16.032  64.680  1.00  0.00    -0.346 C  
HETATM   12  C   UNL     1     -10.967  16.370  67.125  1.00  0.00    -0.082 C  
ENDROOT
BRANCH   5  13
HETATM   13  C   UNL     1     -11.838  11.283  70.387  1.00  0.00    -0.443 C  
BRANCH  13  14
HETATM   14  C   UNL     1     -11.230  10.045  70.991  1.00  0.00    -0.387 C  
HETATM   15  C   UNL     1     -11.927   9.109  71.663  1.00  0.00    -0.437 C  
HETATM   16  C   UNL     1     -13.416   9.165  71.884  1.00  0.00    -0.492 C  
HETATM   17  C   UNL     1     -11.247   7.904  72.265  1.00  0.00    -0.389 C  
ENDBRANCH  13  14
ENDBRANCH   5  13
TORSDOF 2
ENDMDL
MODEL       83
REMARK 921   NORMALIZED FREE ENERGY PREDICTED BY IDOCK:   -3.93 KCAL/MOL
REMARK 922        TOTAL FREE ENERGY PREDICTED BY IDOCK:   -4.67 KCAL/MOL
REMARK 923 INTER-LIGAND FREE ENERGY PREDICTED BY IDOCK:   -4.81 KCAL/MOL
REMARK 924 INTRA-LIGAND FREE ENERGY PREDICTED BY IDOCK:    0.13 KCAL/MOL
REMARK 927      BINDING AFFINITY PREDICTED BY RF-SCORE:    0.00 PKD
ROOT
HETATM    1  C   UNL     1     -10.174   7.153  69.798  1.00  0.00    -0.215 C  
HETATM    2  C   UNL     1     -10.256   7.659  68.314  1.00  0.00    -0.195 C  
HETATM    3  C   UNL     1      -9.758   8.222  70.841  1.00  0.00    -0.204 C  
HETATM    4  O   UNL     1     -11.249   8.672  68.190  1.00  0.00    -0.354 OA 
HETATM    5  C   UNL     1      -8.893   8.273  67.858  1.00  0.00    -0.138 C  
HETATM    6  C   UNL     1     -10.883   9.093  71.415  1.00  0.00    -0.419 C  
HETATM    7  C   UNL     1     -10.621   6.509  67.349  1.00  0.00    -0.364 C  
HETATM    8  C   UNL     1     -11.415   6.385  70.317  1.00  0.00    -0.468 C  
HETATM    9  H   UNL     1     -11.298   8.978  67.292  1.00  0.00     0.000 HD 
HETATM   10  C   UNL     1     -12.205   8.399  71.582  1.00  0.00    -0.358 C  
HETATM   11  C   UNL     1     -13.262   9.117  72.371  1.00  0.00    -0.512 C  
HETATM   12  C   UNL     1     -12.429   7.176  71.081  1.00  0.00    -0.400 C  
ENDROOT
BRANCH   5  13
HETATM   13  C   UNL     1      -8.847   8.698  66.377  1.00  0.00    -0.167 C  
BRANCH  13  14
HETATM   14  C   UNL     1      -9.793   9.823  66.053  1.00  0.00    -0.342 C  
HETATM   15  C   UNL     1      -9.515  11.126  66.250  1.00  0.00    -0.220 C  
HETATM   16  C   UNL     1      -8.209  11.635  66.803  1.00  0.00    -0.161 C  
HETATM   17  C   UNL     1     -10.522  12.203  65.926  1.00  0.00    -0.288 C  
ENDBRANCH  13  14
ENDBRANCH   5  13
TORSDOF 2
ENDMDL
MODEL       84
REMARK 921   NORMALIZED FREE ENERGY PREDICTED BY IDOCK:   -3.89 KCAL/MOL
REMARK 922        TOTAL FREE ENERGY PREDICTED BY IDOCK:   -4.63 KCAL/MOL
REMARK 923 INTER-LIGAND FREE ENERGY PREDICTED BY IDOCK:   -4.36 KCAL/MOL
REMARK 924 INTRA-LIGAND FREE ENERGY PREDICTED BY IDOCK:   -0.27 KCAL/MOL
REMARK 927      BINDING AFFINITY PREDICTED BY RF-SCORE:    0.00 PKD
ROOT
HETATM    1  C   UNL     1      -9.815  15.561  68.239  1.00  0.00    -0.213 C  
HETATM    2  C   UNL     1      -8.310  15.990  68.372  1.00  0.00    -0.178 C  
HETATM    3  C   UNL     1     -10.602  16.251  67.094  1.00  0.00    -0.291 C  
HETATM    4  O   UNL     1      -7.591  15.641  67.194  1.00  0.00    -0.193 OA 
HETATM    5  C   UNL     1      -8.186  17.535  68.564  1.00  0.00    -0.278 C  
HETATM    6  C   UNL     1     -10.507  15.600  65.708  1.00  0.00    -0.383 C  
HETATM    7  C   UNL     1      -7.633  15.292  69.572  1.00  0.00    -0.219 C  
HETATM    8  C   UNL     1     -10.080  14.035  68.197  1.00  0.00    -0.244 C  
HETATM    9  H   UNL     1      -6.680  15.900  67.274  1.00  0.00     0.000 HD 
HETATM   10  C   UNL     1     -10.407  14.100  65.714  1.00  0.00    -0.338 C  
HETATM   11  C   UNL     1     -10.569  13.398  64.396  1.00  0.00    -0.423 C  
HETATM   12  C   UNL     1     -10.215  13.408  66.846  1.00  0.00    -0.252 C  
ENDROOT
BRANCH   5  13
HETATM   13  C   UNL     1      -6.749  18.034  68.812  1.00  0.00    -0.248 C  
BRANCH  13  14
HETATM   14  C   UNL     1      -6.548  19.477  68.433  1.00  0.00    -0.295 C  
HETATM   15  C   UNL     1      -6.270  19.900  67.185  1.00  0.00    -0.201 C  
HETATM   16  C   UNL     1      -6.144  18.987  65.994  1.00  0.00    -0.210 C  
HETATM   17  C   UNL     1      -6.054  21.363  66.880  1.00  0.00    -0.391 C  
ENDBRANCH  13  14
ENDBRANCH   5  13
TORSDOF 2
ENDMDL
MODEL       85
REMARK 921   NORMALIZED FREE ENERGY PREDICTED BY IDOCK:   -3.88 KCAL/MOL
REMARK 922        TOTAL FREE ENERGY PREDICTED BY IDOCK:   -4.61 KCAL/MOL
REMARK 923 INTER-LIGAND FREE ENERGY PREDICTED BY IDOCK:   -4.36 KCAL/MOL
REMARK 924 INTRA-LIGAND FREE ENERGY PREDICTED BY IDOCK:   -0.25 KCAL/MOL
REMARK 927      BINDING AFFINITY PREDICTED BY RF-SCORE:    0.00 PKD
ROOT
HETATM    1  C   UNL     1     -10.757  10.347  66.566  1.00  0.00    -0.162 C  
HETATM    2  C   UNL     1     -11.044  11.806  67.072  1.00  0.00    -0.304 C  
HETATM    3  C   UNL     1      -9.977  10.251  65.228  1.00  0.00    -0.387 C  
HETATM    4  O   UNL     1      -9.821  12.489  67.330  1.00  0.00    -0.201 OA 
HETATM    5  C   UNL     1     -11.827  12.625  65.996  1.00  0.00    -0.492 C  
HETATM    6  C   UNL     1      -8.446  10.300  65.323  1.00  0.00    -0.168 C  
HETATM    7  C   UNL     1     -11.871  11.794  68.376  1.00  0.00    -0.347 C  
HETATM    8  C   UNL     1     -10.119   9.388  67.602  1.00  0.00    -0.262 C  
HETATM    9  H   UNL     1      -9.995  13.372  67.636  1.00  0.00     0.000 HD 
HETATM   10  C   UNL     1      -7.862   9.654  66.547  1.00  0.00    -0.108 C  
HETATM   11  C   UNL     1      -6.374   9.445  66.568  1.00  0.00    -0.066 C  
HETATM   12  C   UNL     1      -8.631   9.246  67.567  1.00  0.00    -0.116 C  
ENDROOT
BRANCH   5  13
HETATM   13  C   UNL     1     -12.248  14.037  66.450  1.00  0.00    -0.492 C  
BRANCH  13  14
HETATM   14  C   UNL     1     -11.159  15.062  66.286  1.00  0.00    -0.334 C  
HETATM   15  C   UNL     1     -10.786  15.932  67.244  1.00  0.00    -0.279 C  
HETATM   16  C   UNL     1     -11.397  15.980  68.621  1.00  0.00    -0.383 C  
HETATM   17  C   UNL     1      -9.702  16.953  67.002  1.00  0.00    -0.255 C  
ENDBRANCH  13  14
ENDBRANCH   5  13
TORSDOF 2
ENDMDL
MODEL       86
REMARK 921   NORMALIZED FREE ENERGY PREDICTED BY IDOCK:   -3.84 KCAL/MOL
REMARK 922        TOTAL FREE ENERGY PREDICTED BY IDOCK:   -4.57 KCAL/MOL
REMARK 923 INTER-LIGAND FREE ENERGY PREDICTED BY IDOCK:   -4.20 KCAL/MOL
REMARK 924 INTRA-LIGAND FREE ENERGY PREDICTED BY IDOCK:   -0.37 KCAL/MOL
REMARK 927      BINDING AFFINITY PREDICTED BY RF-SCORE:    0.00 PKD
ROOT
HETATM    1  C   UNL     1      -9.877  16.398  67.875  1.00  0.00    -0.238 C  
HETATM    2  C   UNL     1      -9.500  15.065  67.136  1.00  0.00    -0.216 C  
HETATM    3  C   UNL     1      -8.708  17.098  68.619  1.00  0.00    -0.266 C  
HETATM    4  O   UNL     1      -8.540  15.320  66.116  1.00  0.00    -0.433 OA 
HETATM    5  C   UNL     1      -8.874  14.034  68.129  1.00  0.00    -0.182 C  
HETATM    6  C   UNL     1      -7.836  18.046  67.785  1.00  0.00    -0.223 C  
HETATM    7  C   UNL     1     -10.739  14.420  66.478  1.00  0.00    -0.306 C  
HETATM    8  C   UNL     1     -10.646  17.444  67.030  1.00  0.00    -0.238 C  
HETATM    9  H   UNL     1      -8.312  14.513  65.669  1.00  0.00     0.000 HD 
HETATM   10  C   UNL     1      -8.565  18.804  66.712  1.00  0.00    -0.296 C  
HETATM   11  C   UNL     1      -7.824  19.926  66.041  1.00  0.00    -0.335 C  
HETATM   12  C   UNL     1      -9.834  18.521  66.383  1.00  0.00    -0.376 C  
ENDROOT
BRANCH   5  13
HETATM   13  C   UNL     1      -8.573  12.655  67.512  1.00  0.00    -0.185 C  
BRANCH  13  14
HETATM   14  C   UNL     1      -8.556  11.542  68.526  1.00  0.00    -0.140 C  
HETATM   15  C   UNL     1      -9.606  10.739  68.786  1.00  0.00    -0.194 C  
HETATM   16  C   UNL     1     -10.933  10.832  68.081  1.00  0.00    -0.308 C  
HETATM   17  C   UNL     1      -9.528   9.658  69.837  1.00  0.00    -0.260 C  
ENDBRANCH  13  14
ENDBRANCH   5  13
TORSDOF 2
ENDMDL
MODEL       87
REMARK 921   NORMALIZED FREE ENERGY PREDICTED BY IDOCK:   -3.84 KCAL/MOL
REMARK 922        TOTAL FREE ENERGY PREDICTED BY IDOCK:   -4.57 KCAL/MOL
REMARK 923 INTER-LIGAND FREE ENERGY PREDICTED BY IDOCK:   -4.18 KCAL/MOL
REMARK 924 INTRA-LIGAND FREE ENERGY PREDICTED BY IDOCK:   -0.39 KCAL/MOL
REMARK 927      BINDING AFFINITY PREDICTED BY RF-SCORE:    0.00 PKD
ROOT
HETATM    1  C   UNL     1      -9.662  12.463  68.318  1.00  0.00    -0.218 C  
HETATM    2  C   UNL     1      -9.010  13.891  68.276  1.00  0.00    -0.187 C  
HETATM    3  C   UNL     1     -11.152  12.402  67.889  1.00  0.00    -0.283 C  
HETATM    4  O   UNL     1      -9.011  14.396  66.945  1.00  0.00    -0.231 OA 
HETATM    5  C   UNL     1      -9.810  14.896  69.165  1.00  0.00    -0.200 C  
HETATM    6  C   UNL     1     -11.426  12.260  66.386  1.00  0.00    -0.434 C  
HETATM    7  C   UNL     1      -7.548  13.854  68.773  1.00  0.00    -0.108 C  
HETATM    8  C   UNL     1      -8.874  11.340  67.597  1.00  0.00    -0.138 C  
HETATM    9  H   UNL     1      -8.616  15.260  66.919  1.00  0.00     0.000 HD 
HETATM   10  C   UNL     1     -10.423  11.435  65.630  1.00  0.00    -0.316 C  
HETATM   11  C   UNL     1     -10.775  11.049  64.221  1.00  0.00    -0.348 C  
HETATM   12  C   UNL     1      -9.276  11.027  66.191  1.00  0.00    -0.209 C  
ENDROOT
BRANCH   5  13
HETATM   13  C   UNL     1      -9.178  16.298  69.271  1.00  0.00    -0.192 C  
BRANCH  13  14
HETATM   14  C   UNL     1      -9.939  17.351  68.510  1.00  0.00    -0.331 C  
HETATM   15  C   UNL     1      -9.383  18.189  67.614  1.00  0.00    -0.260 C  
HETATM   16  C   UNL     1      -7.925  18.172  67.237  1.00  0.00    -0.227 C  
HETATM   17  C   UNL     1     -10.203  19.240  66.906  1.00  0.00    -0.496 C  
ENDBRANCH  13  14
ENDBRANCH   5  13
TORSDOF 2
ENDMDL
MODEL       88
REMARK 921   NORMALIZED FREE ENERGY PREDICTED BY IDOCK:   -3.82 KCAL/MOL
REMARK 922        TOTAL FREE ENERGY PREDICTED BY IDOCK:   -4.55 KCAL/MOL
REMARK 923 INTER-LIGAND FREE ENERGY PREDICTED BY IDOCK:   -4.35 KCAL/MOL
REMARK 924 INTRA-LIGAND FREE ENERGY PREDICTED BY IDOCK:   -0.20 KCAL/MOL
REMARK 927      BINDING AFFINITY PREDICTED BY RF-SCORE:    0.00 PKD
ROOT
HETATM    1  C   UNL     1      -9.950   8.719  66.500  1.00  0.00    -0.360 C  
HETATM    2  C   UNL     1      -9.666   8.904  68.034  1.00  0.00    -0.156 C  
HETATM    3  C   UNL     1     -10.055  10.034  65.683  1.00  0.00    -0.321 C  
HETATM    4  O   UNL     1      -8.407   9.538  68.231  1.00  0.00    -0.116 OA 
HETATM    5  C   UNL     1     -10.759   9.801  68.699  1.00  0.00    -0.247 C  
HETATM    6  C   UNL     1      -8.737  10.621  65.160  1.00  0.00    -0.196 C  
HETATM    7  C   UNL     1      -9.638   7.544  68.766  1.00  0.00    -0.149 C  
HETATM    8  C   UNL     1      -9.023   7.725  65.758  1.00  0.00    -0.109 C  
HETATM    9  H   UNL     1      -8.235   9.650  69.159  1.00  0.00     0.000 HD 
HETATM   10  C   UNL     1      -7.698   9.608  64.769  1.00  0.00    -0.122 C  
HETATM   11  C   UNL     1      -6.499  10.112  64.016  1.00  0.00    -0.119 C  
HETATM   12  C   UNL     1      -7.843   8.304  65.045  1.00  0.00    -0.126 C  
ENDROOT
BRANCH   5  13
HETATM   13  C   UNL     1     -10.621   9.947  70.227  1.00  0.00    -0.359 C  
BRANCH  13  14
HETATM   14  C   UNL     1     -11.693   9.218  70.992  1.00  0.00    -0.378 C  
HETATM   15  C   UNL     1     -12.725   9.821  71.613  1.00  0.00    -0.517 C  
HETATM   16  C   UNL     1     -12.957  11.309  71.607  1.00  0.00    -0.537 C  
HETATM   17  C   UNL     1     -13.751   9.028  72.385  1.00  0.00    -0.539 C  
ENDBRANCH  13  14
ENDBRANCH   5  13
TORSDOF 2
ENDMDL
MODEL       89
REMARK 921   NORMALIZED FREE ENERGY PREDICTED BY IDOCK:   -3.80 KCAL/MOL
REMARK 922        TOTAL FREE ENERGY PREDICTED BY IDOCK:   -4.52 KCAL/MOL
REMARK 923 INTER-LIGAND FREE ENERGY PREDICTED BY IDOCK:   -4.16 KCAL/MOL
REMARK 924 INTRA-LIGAND FREE ENERGY PREDICTED BY IDOCK:   -0.36 KCAL/MOL
REMARK 927      BINDING AFFINITY PREDICTED BY RF-SCORE:    0.00 PKD
ROOT
HETATM    1  C   UNL     1      -9.683  11.112  66.926  1.00  0.00    -0.216 C  
HETATM    2  C   UNL     1      -9.618  10.292  68.264  1.00  0.00    -0.142 C  
HETATM    3  C   UNL     1     -11.109  11.515  66.465  1.00  0.00    -0.341 C  
HETATM    4  O   UNL     1     -10.128  11.066  69.344  1.00  0.00    -0.398 OA 
HETATM    5  C   UNL     1     -10.478   8.992  68.163  1.00  0.00    -0.257 C  
HETATM    6  C   UNL     1     -11.677  12.814  67.051  1.00  0.00    -0.440 C  
HETATM    7  C   UNL     1      -8.165   9.893  68.605  1.00  0.00    -0.108 C  
HETATM    8  C   UNL     1      -8.750  12.346  66.846  1.00  0.00    -0.191 C  
HETATM    9  H   UNL     1     -10.089  10.569  70.153  1.00  0.00     0.000 HD 
HETATM   10  C   UNL     1     -10.665  13.898  67.298  1.00  0.00    -0.286 C  
HETATM   11  C   UNL     1     -11.192  15.266  67.625  1.00  0.00    -0.320 C  
HETATM   12  C   UNL     1      -9.347  13.671  67.201  1.00  0.00    -0.240 C  
ENDROOT
BRANCH   5  13
HETATM   13  C   UNL     1     -10.385   8.068  69.394  1.00  0.00    -0.217 C  
BRANCH  13  14
HETATM   14  C   UNL     1     -11.568   8.189  70.317  1.00  0.00     0.011 C  
HETATM   15  C   UNL     1     -11.475   8.314  71.655  1.00  0.00    -0.333 C  
HETATM   16  C   UNL     1     -10.170   8.373  72.406  1.00  0.00    -0.399 C  
HETATM   17  C   UNL     1     -12.705   8.405  72.524  1.00  0.00    -0.286 C  
ENDBRANCH  13  14
ENDBRANCH   5  13
TORSDOF 2
ENDMDL
MODEL       90
REMARK 921   NORMALIZED FREE ENERGY PREDICTED BY IDOCK:   -3.79 KCAL/MOL
REMARK 922        TOTAL FREE ENERGY PREDICTED BY IDOCK:   -4.52 KCAL/MOL
REMARK 923 INTER-LIGAND FREE ENERGY PREDICTED BY IDOCK:   -5.08 KCAL/MOL
REMARK 924 INTRA-LIGAND FREE ENERGY PREDICTED BY IDOCK:    0.56 KCAL/MOL
REMARK 927      BINDING AFFINITY PREDICTED BY RF-SCORE:    0.00 PKD
ROOT
HETATM    1  C   UNL     1     -10.004  16.286  67.486  1.00  0.00    -0.248 C  
HETATM    2  C   UNL     1     -10.358  15.373  68.714  1.00  0.00    -0.229 C  
HETATM    3  C   UNL     1     -10.592  17.720  67.535  1.00  0.00    -0.365 C  
HETATM    4  O   UNL     1      -9.826  15.928  69.912  1.00  0.00    -0.239 OA 
HETATM    5  C   UNL     1     -11.905  15.254  68.893  1.00  0.00    -0.344 C  
HETATM    6  C   UNL     1      -9.772  18.772  68.293  1.00  0.00    -0.406 C  
HETATM    7  C   UNL     1      -9.774  13.953  68.543  1.00  0.00    -0.202 C  
HETATM    8  C   UNL     1      -8.502  16.359  67.111  1.00  0.00    -0.208 C  
HETATM    9  H   UNL     1     -10.040  15.376  70.656  1.00  0.00     0.000 HD 
HETATM   10  C   UNL     1      -8.281  18.606  68.199  1.00  0.00    -0.327 C  
HETATM   11  C   UNL     1      -7.432  19.740  68.699  1.00  0.00    -0.329 C  
HETATM   12  C   UNL     1      -7.723  17.511  67.662  1.00  0.00    -0.207 C  
ENDROOT
BRANCH   5  13
HETATM   13  C   UNL     1     -12.347  14.288  70.010  1.00  0.00    -0.403 C  
BRANCH  13  14
HETATM   14  C   UNL     1     -12.008  12.851  69.719  1.00  0.00    -0.365 C  
HETATM   15  C   UNL     1     -12.358  11.816  70.507  1.00  0.00    -0.387 C  
HETATM   16  C   UNL     1     -13.155  11.956  71.778  1.00  0.00    -0.465 C  
HETATM   17  C   UNL     1     -11.962  10.400  70.168  1.00  0.00    -0.357 C  
ENDBRANCH  13  14
ENDBRANCH   5  13
TORSDOF 2
ENDMDL
MODEL       91
REMARK 921   NORMALIZED FREE ENERGY PREDICTED BY IDOCK:   -3.79 KCAL/MOL
REMARK 922        TOTAL FREE ENERGY PREDICTED BY IDOCK:   -4.51 KCAL/MOL
REMARK 923 INTER-LIGAND FREE ENERGY PREDICTED BY IDOCK:   -4.22 KCAL/MOL
REMARK 924 INTRA-LIGAND FREE ENERGY PREDICTED BY IDOCK:   -0.29 KCAL/MOL
REMARK 927      BINDING AFFINITY PREDICTED BY RF-SCORE:    0.00 PKD
ROOT
HETATM    1  C   UNL     1     -10.402   9.190  70.618  1.00  0.00    -0.306 C  
HETATM    2  C   UNL     1     -10.399   9.753  69.152  1.00  0.00    -0.211 C  
HETATM    3  C   UNL     1     -11.431   9.844  71.577  1.00  0.00    -0.322 C  
HETATM    4  O   UNL     1     -11.657   9.517  68.528  1.00  0.00    -0.314 OA 
HETATM    5  C   UNL     1     -10.149  11.295  69.148  1.00  0.00    -0.093 C  
HETATM    6  C   UNL     1     -12.848   9.257  71.566  1.00  0.00    -0.427 C  
HETATM    7  C   UNL     1      -9.305   9.078  68.295  1.00  0.00    -0.145 C  
HETATM    8  C   UNL     1     -10.488   7.648  70.747  1.00  0.00    -0.211 C  
HETATM    9  H   UNL     1     -11.655   9.858  67.641  1.00  0.00     0.000 HD 
HETATM   10  C   UNL     1     -12.922   7.775  71.331  1.00  0.00    -0.322 C  
HETATM   11  C   UNL     1     -14.248   7.109  71.564  1.00  0.00    -0.486 C  
HETATM   12  C   UNL     1     -11.847   7.062  70.963  1.00  0.00    -0.395 C  
ENDROOT
BRANCH   5  13
HETATM   13  C   UNL     1     -10.021  11.918  67.744  1.00  0.00    -0.191 C  
BRANCH  13  14
HETATM   14  C   UNL     1      -8.730  12.666  67.542  1.00  0.00    -0.184 C  
HETATM   15  C   UNL     1      -8.588  13.993  67.720  1.00  0.00    -0.183 C  
HETATM   16  C   UNL     1      -9.699  14.907  68.168  1.00  0.00    -0.214 C  
HETATM   17  C   UNL     1      -7.268  14.683  67.474  1.00  0.00    -0.216 C  
ENDBRANCH  13  14
ENDBRANCH   5  13
TORSDOF 2
ENDMDL
MODEL       92
REMARK 921   NORMALIZED FREE ENERGY PREDICTED BY IDOCK:   -3.79 KCAL/MOL
REMARK 922        TOTAL FREE ENERGY PREDICTED BY IDOCK:   -4.51 KCAL/MOL
REMARK 923 INTER-LIGAND FREE ENERGY PREDICTED BY IDOCK:   -4.20 KCAL/MOL
REMARK 924 INTRA-LIGAND FREE ENERGY PREDICTED BY IDOCK:   -0.31 KCAL/MOL
REMARK 927      BINDING AFFINITY PREDICTED BY RF-SCORE:    0.00 PKD
ROOT
HETATM    1  C   UNL     1     -11.098   8.419  69.478  1.00  0.00     0.040 C  
HETATM    2  C   UNL     1     -11.109   9.922  69.932  1.00  0.00    -0.275 C  
HETATM    3  C   UNL     1     -10.211   8.106  68.243  1.00  0.00    -0.245 C  
HETATM    4  O   UNL     1      -9.803  10.328  70.328  1.00  0.00    -0.400 OA 
HETATM    5  C   UNL     1     -11.562  10.855  68.764  1.00  0.00    -0.378 C  
HETATM    6  C   UNL     1      -8.729   7.822  68.519  1.00  0.00    -0.128 C  
HETATM    7  C   UNL     1     -12.062  10.138  71.129  1.00  0.00    -0.485 C  
HETATM    8  C   UNL     1     -10.813   7.380  70.591  1.00  0.00    -0.258 C  
HETATM    9  H   UNL     1      -9.810  11.238  70.603  1.00  0.00     0.000 HD 
HETATM   10  C   UNL     1      -8.447   7.106  69.810  1.00  0.00    -0.137 C  
HETATM   11  C   UNL     1      -7.056   6.576  70.010  1.00  0.00    -0.074 C  
HETATM   12  C   UNL     1      -9.399   6.914  70.735  1.00  0.00    -0.161 C  
ENDROOT
BRANCH   5  13
HETATM   13  C   UNL     1     -11.708  12.339  69.152  1.00  0.00    -0.377 C  
BRANCH  13  14
HETATM   14  C   UNL     1     -10.675  13.225  68.507  1.00  0.00    -0.280 C  
HETATM   15  C   UNL     1     -10.842  13.848  67.325  1.00  0.00    -0.292 C  
HETATM   16  C   UNL     1     -12.098  13.760  66.497  1.00  0.00    -0.483 C  
HETATM   17  C   UNL     1      -9.753  14.702  66.725  1.00  0.00    -0.267 C  
ENDBRANCH  13  14
ENDBRANCH   5  13
TORSDOF 2
ENDMDL
MODEL       93
REMARK 921   NORMALIZED FREE ENERGY PREDICTED BY IDOCK:   -3.74 KCAL/MOL
REMARK 922        TOTAL FREE ENERGY PREDICTED BY IDOCK:   -4.46 KCAL/MOL
REMARK 923 INTER-LIGAND FREE ENERGY PREDICTED BY IDOCK:   -4.61 KCAL/MOL
REMARK 924 INTRA-LIGAND FREE ENERGY PREDICTED BY IDOCK:    0.15 KCAL/MOL
REMARK 927      BINDING AFFINITY PREDICTED BY RF-SCORE:    0.00 PKD
ROOT
HETATM    1  C   UNL     1     -10.705  11.463  66.578  1.00  0.00    -0.325 C  
HETATM    2  C   UNL     1      -9.678  12.327  67.393  1.00  0.00    -0.185 C  
HETATM    3  C   UNL     1     -11.352  12.176  65.361  1.00  0.00    -0.388 C  
HETATM    4  O   UNL     1      -8.572  12.688  66.571  1.00  0.00    -0.405 OA 
HETATM    5  C   UNL     1     -10.340  13.647  67.903  1.00  0.00    -0.249 C  
HETATM    6  C   UNL     1     -10.571  12.123  64.042  1.00  0.00    -0.429 C  
HETATM    7  C   UNL     1      -9.135  11.549  68.612  1.00  0.00    -0.124 C  
HETATM    8  C   UNL     1     -10.213  10.058  66.147  1.00  0.00    -0.283 C  
HETATM    9  H   UNL     1      -7.951  13.211  67.064  1.00  0.00     0.000 HD 
HETATM   10  C   UNL     1      -9.798  10.856  63.808  1.00  0.00    -0.391 C  
HETATM   11  C   UNL     1      -9.230  10.642  62.434  1.00  0.00    -0.300 C  
HETATM   12  C   UNL     1      -9.646   9.933  64.769  1.00  0.00    -0.339 C  
ENDROOT
BRANCH   5  13
HETATM   13  C   UNL     1      -9.436  14.508  68.807  1.00  0.00    -0.183 C  
BRANCH  13  14
HETATM   14  C   UNL     1      -8.437  15.329  68.037  1.00  0.00    -0.147 C  
HETATM   15  C   UNL     1      -8.766  16.250  67.111  1.00  0.00    -0.213 C  
HETATM   16  C   UNL     1     -10.183  16.598  66.736  1.00  0.00    -0.301 C  
HETATM   17  C   UNL     1      -7.710  17.021  66.357  1.00  0.00    -0.350 C  
ENDBRANCH  13  14
ENDBRANCH   5  13
TORSDOF 2
ENDMDL
MODEL       94
REMARK 921   NORMALIZED FREE ENERGY PREDICTED BY IDOCK:   -3.74 KCAL/MOL
REMARK 922        TOTAL FREE ENERGY PREDICTED BY IDOCK:   -4.45 KCAL/MOL
REMARK 923 INTER-LIGAND FREE ENERGY PREDICTED BY IDOCK:   -4.16 KCAL/MOL
REMARK 924 INTRA-LIGAND FREE ENERGY PREDICTED BY IDOCK:   -0.29 KCAL/MOL
REMARK 927      BINDING AFFINITY PREDICTED BY RF-SCORE:    0.00 PKD
ROOT
HETATM    1  C   UNL     1     -10.509   9.871  67.690  1.00  0.00    -0.296 C  
HETATM    2  C   UNL     1     -10.865  11.054  68.660  1.00  0.00    -0.215 C  
HETATM    3  C   UNL     1      -9.562  10.238  66.517  1.00  0.00    -0.228 C  
HETATM    4  O   UNL     1      -9.689  11.541  69.299  1.00  0.00    -0.407 OA 
HETATM    5  C   UNL     1     -11.505  12.244  67.876  1.00  0.00    -0.390 C  
HETATM    6  C   UNL     1      -8.057  10.182  66.809  1.00  0.00    -0.119 C  
HETATM    7  C   UNL     1     -11.854  10.601  69.756  1.00  0.00    -0.377 C  
HETATM    8  C   UNL     1     -10.007   8.572  68.368  1.00  0.00    -0.208 C  
HETATM    9  H   UNL     1      -9.905  12.256  69.886  1.00  0.00     0.000 HD 
HETATM   10  C   UNL     1      -7.633   9.107  67.770  1.00  0.00    -0.085 C  
HETATM   11  C   UNL     1      -6.160   8.840  67.893  1.00  0.00    -0.051 C  
HETATM   12  C   UNL     1      -8.526   8.388  68.465  1.00  0.00    -0.132 C  
ENDROOT
BRANCH   5  13
HETATM   13  C   UNL     1     -11.988  13.408  68.764  1.00  0.00    -0.359 C  
BRANCH  13  14
HETATM   14  C   UNL     1     -11.267  14.701  68.491  1.00  0.00    -0.288 C  
HETATM   15  C   UNL     1     -10.993  15.628  69.429  1.00  0.00    -0.283 C  
HETATM   16  C   UNL     1     -11.353  15.485  70.885  1.00  0.00    -0.406 C  
HETATM   17  C   UNL     1     -10.288  16.916  69.080  1.00  0.00    -0.319 C  
ENDBRANCH  13  14
ENDBRANCH   5  13
TORSDOF 2
ENDMDL
MODEL       95
REMARK 921   NORMALIZED FREE ENERGY PREDICTED BY IDOCK:   -3.73 KCAL/MOL
REMARK 922        TOTAL FREE ENERGY PREDICTED BY IDOCK:   -4.45 KCAL/MOL
REMARK 923 INTER-LIGAND FREE ENERGY PREDICTED BY IDOCK:   -4.12 KCAL/MOL
REMARK 924 INTRA-LIGAND FREE ENERGY PREDICTED BY IDOCK:   -0.33 KCAL/MOL
REMARK 927      BINDING AFFINITY PREDICTED BY RF-SCORE:    0.00 PKD
ROOT
HETATM    1  C   UNL     1     -10.087   9.178  66.373  1.00  0.00    -0.345 C  
HETATM    2  C   UNL     1     -10.060  10.544  67.147  1.00  0.00    -0.209 C  
HETATM    3  C   UNL     1      -8.797   8.839  65.581  1.00  0.00    -0.239 C  
HETATM    4  O   UNL     1      -9.037  10.532  68.137  1.00  0.00    -0.136 OA 
HETATM    5  C   UNL     1      -9.765  11.731  66.174  1.00  0.00    -0.250 C  
HETATM    6  C   UNL     1      -7.678   8.140  66.364  1.00  0.00    -0.092 C  
HETATM    7  C   UNL     1     -11.407  10.814  67.853  1.00  0.00    -0.372 C  
HETATM    8  C   UNL     1     -10.521   7.942  67.201  1.00  0.00    -0.414 C  
HETATM    9  H   UNL     1      -9.020  11.358  68.605  1.00  0.00     0.000 HD 
HETATM   10  C   UNL     1      -8.143   7.186  67.428  1.00  0.00    -0.112 C  
HETATM   11  C   UNL     1      -7.108   6.289  68.044  1.00  0.00    -0.082 C  
HETATM   12  C   UNL     1      -9.430   7.108  67.794  1.00  0.00    -0.136 C  
ENDROOT
BRANCH   5  13
HETATM   13  C   UNL     1      -9.827  13.124  66.829  1.00  0.00    -0.251 C  
BRANCH  13  14
HETATM   14  C   UNL     1     -10.078  14.233  65.842  1.00  0.00    -0.344 C  
HETATM   15  C   UNL     1     -11.297  14.575  65.381  1.00  0.00    -0.341 C  
HETATM   16  C   UNL     1     -12.577  13.906  65.808  1.00  0.00    -0.533 C  
HETATM   17  C   UNL     1     -11.473  15.682  64.371  1.00  0.00    -0.266 C  
ENDBRANCH  13  14
ENDBRANCH   5  13
TORSDOF 2
ENDMDL
MODEL       96
REMARK 921   NORMALIZED FREE ENERGY PREDICTED BY IDOCK:   -3.72 KCAL/MOL
REMARK 922        TOTAL FREE ENERGY PREDICTED BY IDOCK:   -4.43 KCAL/MOL
REMARK 923 INTER-LIGAND FREE ENERGY PREDICTED BY IDOCK:   -4.04 KCAL/MOL
REMARK 924 INTRA-LIGAND FREE ENERGY PREDICTED BY IDOCK:   -0.39 KCAL/MOL
REMARK 927      BINDING AFFINITY PREDICTED BY RF-SCORE:    0.00 PKD
ROOT
HETATM    1  C   UNL     1      -8.953   9.298  68.074  1.00  0.00    -0.128 C  
HETATM    2  C   UNL     1      -9.356   9.766  69.518  1.00  0.00    -0.213 C  
HETATM    3  C   UNL     1     -10.136   9.067  67.097  1.00  0.00    -0.309 C  
HETATM    4  O   UNL     1     -10.014  11.028  69.462  1.00  0.00    -0.430 OA 
HETATM    5  C   UNL     1     -10.339   8.748  70.180  1.00  0.00    -0.225 C  
HETATM    6  C   UNL     1     -10.643  10.298  66.335  1.00  0.00    -0.177 C  
HETATM    7  C   UNL     1      -8.116   9.912  70.426  1.00  0.00    -0.026 C  
HETATM    8  C   UNL     1      -7.863  10.144  67.370  1.00  0.00    -0.102 C  
HETATM    9  H   UNL     1     -10.258  11.311  70.336  1.00  0.00     0.000 HD 
HETATM   10  C   UNL     1      -9.586  11.300  65.964  1.00  0.00    -0.245 C  
HETATM   11  C   UNL     1      -9.977  12.386  65.003  1.00  0.00    -0.219 C  
HETATM   12  C   UNL     1      -8.335  11.216  66.440  1.00  0.00    -0.167 C  
ENDROOT
BRANCH   5  13
HETATM   13  C   UNL     1     -10.704   9.071  71.642  1.00  0.00    -0.441 C  
BRANCH  13  14
HETATM   14  C   UNL     1     -10.818   7.847  72.510  1.00  0.00    -0.403 C  
HETATM   15  C   UNL     1      -9.903   7.481  73.428  1.00  0.00    -0.365 C  
HETATM   16  C   UNL     1      -8.650   8.262  73.726  1.00  0.00    -0.242 C  
HETATM   17  C   UNL     1     -10.069   6.224  74.247  1.00  0.00    -0.349 C  
ENDBRANCH  13  14
ENDBRANCH   5  13
TORSDOF 2
ENDMDL
MODEL       97
REMARK 921   NORMALIZED FREE ENERGY PREDICTED BY IDOCK:   -3.72 KCAL/MOL
REMARK 922        TOTAL FREE ENERGY PREDICTED BY IDOCK:   -4.43 KCAL/MOL
REMARK 923 INTER-LIGAND FREE ENERGY PREDICTED BY IDOCK:   -4.17 KCAL/MOL
REMARK 924 INTRA-LIGAND FREE ENERGY PREDICTED BY IDOCK:   -0.27 KCAL/MOL
REMARK 927      BINDING AFFINITY PREDICTED BY RF-SCORE:    0.00 PKD
ROOT
HETATM    1  C   UNL     1      -9.499   6.275  67.655  1.00  0.00    -0.115 C  
HETATM    2  C   UNL     1      -9.705   6.440  69.203  1.00  0.00    -0.136 C  
HETATM    3  C   UNL     1     -10.255   7.303  66.773  1.00  0.00    -0.305 C  
HETATM    4  O   UNL     1      -9.211   7.703  69.637  1.00  0.00    -0.147 OA 
HETATM    5  C   UNL     1     -11.221   6.371  69.574  1.00  0.00    -0.477 C  
HETATM    6  C   UNL     1      -9.547   8.640  66.520  1.00  0.00    -0.303 C  
HETATM    7  C   UNL     1      -8.959   5.338  69.988  1.00  0.00    -0.154 C  
HETATM    8  C   UNL     1      -8.028   6.173  67.178  1.00  0.00    -0.102 C  
HETATM    9  H   UNL     1      -9.336   7.802  70.574  1.00  0.00     0.000 HD 
HETATM   10  C   UNL     1      -8.050   8.558  66.410  1.00  0.00    -0.103 C  
HETATM   11  C   UNL     1      -7.331   9.779  65.911  1.00  0.00    -0.103 C  
HETATM   12  C   UNL     1      -7.379   7.437  66.710  1.00  0.00    -0.092 C  
ENDROOT
BRANCH   5  13
HETATM   13  C   UNL     1     -11.512   6.414  71.087  1.00  0.00    -0.381 C  
BRANCH  13  14
HETATM   14  C   UNL     1     -11.936   7.775  71.572  1.00  0.00    -0.329 C  
HETATM   15  C   UNL     1     -13.216   8.141  71.776  1.00  0.00    -0.365 C  
HETATM   16  C   UNL     1     -14.396   7.229  71.566  1.00  0.00    -0.558 C  
HETATM   17  C   UNL     1     -13.572   9.533  72.239  1.00  0.00    -0.494 C  
ENDBRANCH  13  14
ENDBRANCH   5  13
TORSDOF 2
ENDMDL
MODEL       98
REMARK 921   NORMALIZED FREE ENERGY PREDICTED BY IDOCK:   -3.71 KCAL/MOL
REMARK 922        TOTAL FREE ENERGY PREDICTED BY IDOCK:   -4.42 KCAL/MOL
REMARK 923 INTER-LIGAND FREE ENERGY PREDICTED BY IDOCK:   -4.22 KCAL/MOL
REMARK 924 INTRA-LIGAND FREE ENERGY PREDICTED BY IDOCK:   -0.20 KCAL/MOL
REMARK 927      BINDING AFFINITY PREDICTED BY RF-SCORE:    0.00 PKD
ROOT
HETATM    1  C   UNL     1      -9.831  10.295  67.680  1.00  0.00    -0.199 C  
HETATM    2  C   UNL     1     -10.324  11.785  67.715  1.00  0.00    -0.194 C  
HETATM    3  C   UNL     1      -8.380  10.065  68.179  1.00  0.00    -0.113 C  
HETATM    4  O   UNL     1     -10.334  12.272  69.053  1.00  0.00    -0.405 OA 
HETATM    5  C   UNL     1      -9.375  12.706  66.883  1.00  0.00    -0.228 C  
HETATM    6  C   UNL     1      -8.197   9.876  69.691  1.00  0.00    -0.178 C  
HETATM    7  C   UNL     1     -11.754  11.915  67.148  1.00  0.00    -0.311 C  
HETATM    8  C   UNL     1     -10.772   9.257  68.343  1.00  0.00    -0.192 C  
HETATM    9  H   UNL     1     -10.632  13.174  69.075  1.00  0.00     0.000 HD 
HETATM   10  C   UNL     1      -9.321   9.157  70.384  1.00  0.00    -0.272 C  
HETATM   11  C   UNL     1      -9.084   8.719  71.801  1.00  0.00    -0.305 C  
HETATM   12  C   UNL     1     -10.477   8.885  69.761  1.00  0.00    -0.217 C  
ENDROOT
BRANCH   5  13
HETATM   13  C   UNL     1      -9.843  14.170  66.771  1.00  0.00    -0.275 C  
BRANCH  13  14
HETATM   14  C   UNL     1      -8.706  15.151  66.666  1.00  0.00    -0.308 C  
HETATM   15  C   UNL     1      -8.848  16.440  66.303  1.00  0.00    -0.367 C  
HETATM   16  C   UNL     1     -10.170  17.081  65.973  1.00  0.00    -0.337 C  
HETATM   17  C   UNL     1      -7.658  17.362  66.193  1.00  0.00    -0.321 C  
ENDBRANCH  13  14
ENDBRANCH   5  13
TORSDOF 2
ENDMDL
MODEL       99
REMARK 921   NORMALIZED FREE ENERGY PREDICTED BY IDOCK:   -3.71 KCAL/MOL
REMARK 922        TOTAL FREE ENERGY PREDICTED BY IDOCK:   -4.42 KCAL/MOL
REMARK 923 INTER-LIGAND FREE ENERGY PREDICTED BY IDOCK:   -4.03 KCAL/MOL
REMARK 924 INTRA-LIGAND FREE ENERGY PREDICTED BY IDOCK:   -0.39 KCAL/MOL
REMARK 927      BINDING AFFINITY PREDICTED BY RF-SCORE:    0.00 PKD
ROOT
HETATM    1  C   UNL     1      -8.415   6.372  69.559  1.00  0.00    -0.133 C  
HETATM    2  C   UNL     1      -9.245   7.578  70.126  1.00  0.00    -0.154 C  
HETATM    3  C   UNL     1      -9.148   5.004  69.561  1.00  0.00    -0.150 C  
HETATM    4  O   UNL     1     -10.403   7.801  69.327  1.00  0.00    -0.211 OA 
HETATM    5  C   UNL     1      -9.723   7.290  71.585  1.00  0.00    -0.166 C  
HETATM    6  C   UNL     1     -10.035   4.700  68.347  1.00  0.00    -0.134 C  
HETATM    7  C   UNL     1      -8.410   8.878  70.132  1.00  0.00    -0.142 C  
HETATM    8  C   UNL     1      -7.755   6.598  68.175  1.00  0.00    -0.105 C  
HETATM    9  H   UNL     1     -10.905   8.531  69.670  1.00  0.00     0.000 HD 
HETATM   10  C   UNL     1      -9.537   5.249  67.040  1.00  0.00    -0.150 C  
HETATM   11  C   UNL     1     -10.219   4.770  65.790  1.00  0.00    -0.251 C  
HETATM   12  C   UNL     1      -8.506   6.104  66.979  1.00  0.00    -0.105 C  
ENDROOT
BRANCH   5  13
HETATM   13  C   UNL     1     -10.454   8.466  72.262  1.00  0.00    -0.407 C  
BRANCH  13  14
HETATM   14  C   UNL     1     -11.929   8.224  72.442  1.00  0.00    -0.447 C  
HETATM   15  C   UNL     1     -12.890   9.078  72.041  1.00  0.00    -0.468 C  
HETATM   16  C   UNL     1     -12.619  10.382  71.337  1.00  0.00    -0.539 C  
HETATM   17  C   UNL     1     -14.352   8.783  72.277  1.00  0.00    -0.468 C  
ENDBRANCH  13  14
ENDBRANCH   5  13
TORSDOF 2
ENDMDL
MODEL      100
REMARK 921   NORMALIZED FREE ENERGY PREDICTED BY IDOCK:   -3.65 KCAL/MOL
REMARK 922        TOTAL FREE ENERGY PREDICTED BY IDOCK:   -4.36 KCAL/MOL
REMARK 923 INTER-LIGAND FREE ENERGY PREDICTED BY IDOCK:   -4.07 KCAL/MOL
REMARK 924 INTRA-LIGAND FREE ENERGY PREDICTED BY IDOCK:   -0.29 KCAL/MOL
REMARK 927      BINDING AFFINITY PREDICTED BY RF-SCORE:    0.00 PKD
ROOT
HETATM    1  C   UNL     1     -11.733   7.222  70.570  1.00  0.00    -0.264 C  
HETATM    2  C   UNL     1     -10.827   8.502  70.671  1.00  0.00    -0.225 C  
HETATM    3  C   UNL     1     -11.129   6.046  69.759  1.00  0.00    -0.476 C  
HETATM    4  O   UNL     1      -9.614   8.196  71.350  1.00  0.00    -0.152 OA 
HETATM    5  C   UNL     1     -10.455   9.035  69.251  1.00  0.00    -0.238 C  
HETATM    6  C   UNL     1     -10.211   5.086  70.526  1.00  0.00    -0.316 C  
HETATM    7  C   UNL     1     -11.540   9.632  71.447  1.00  0.00    -0.472 C  
HETATM    8  C   UNL     1     -12.296   6.687  71.910  1.00  0.00    -0.364 C  
HETATM    9  H   UNL     1      -9.066   8.970  71.411  1.00  0.00     0.000 HD 
HETATM   10  C   UNL     1     -10.587   4.854  71.962  1.00  0.00    -0.210 C  
HETATM   11  C   UNL     1      -9.887   3.738  72.683  1.00  0.00    -0.210 C  
HETATM   12  C   UNL     1     -11.531   5.585  72.572  1.00  0.00    -0.303 C  
ENDROOT
BRANCH   5  13
HETATM   13  C   UNL     1      -9.657  10.354  69.252  1.00  0.00    -0.226 C  
BRANCH  13  14
HETATM   14  C   UNL     1      -8.438  10.311  68.370  1.00  0.00    -0.124 C  
HETATM   15  C   UNL     1      -8.426  10.684  67.076  1.00  0.00    -0.129 C  
HETATM   16  C   UNL     1      -9.629  11.215  66.342  1.00  0.00    -0.227 C  
HETATM   17  C   UNL     1      -7.172  10.590  66.242  1.00  0.00    -0.133 C  
ENDBRANCH  13  14
ENDBRANCH   5  13
TORSDOF 2
ENDMDL
MODEL      101
REMARK 921   NORMALIZED FREE ENERGY PREDICTED BY IDOCK:   -3.64 KCAL/MOL
REMARK 922        TOTAL FREE ENERGY PREDICTED BY IDOCK:   -4.35 KCAL/MOL
REMARK 923 INTER-LIGAND FREE ENERGY PREDICTED BY IDOCK:   -4.10 KCAL/MOL
REMARK 924 INTRA-LIGAND FREE ENERGY PREDICTED BY IDOCK:   -0.24 KCAL/MOL
REMARK 927      BINDING AFFINITY PREDICTED BY RF-SCORE:    0.00 PKD
ROOT
HETATM    1  C   UNL     1      -8.763   8.648  67.495  1.00  0.00    -0.135 C  
HETATM    2  C   UNL     1     -10.158   9.223  67.931  1.00  0.00    -0.200 C  
HETATM    3  C   UNL     1      -8.217   7.495  68.378  1.00  0.00    -0.125 C  
HETATM    4  O   UNL     1     -11.158   8.213  67.844  1.00  0.00    -0.467 OA 
HETATM    5  C   UNL     1     -10.118   9.725  69.410  1.00  0.00    -0.221 C  
HETATM    6  C   UNL     1      -8.683   6.078  68.020  1.00  0.00    -0.112 C  
HETATM    7  C   UNL     1     -10.586  10.400  67.026  1.00  0.00    -0.305 C  
HETATM    8  C   UNL     1      -8.630   8.258  66.002  1.00  0.00    -0.167 C  
HETATM    9  H   UNL     1     -12.002   8.561  68.108  1.00  0.00     0.000 HD 
HETATM   10  C   UNL     1      -8.892   5.828  66.553  1.00  0.00    -0.126 C  
HETATM   11  C   UNL     1      -9.096   4.403  66.123  1.00  0.00    -0.130 C  
HETATM   12  C   UNL     1      -8.864   6.822  65.654  1.00  0.00    -0.043 C  
ENDROOT
BRANCH   5  13
HETATM   13  C   UNL     1     -11.415  10.406  69.889  1.00  0.00    -0.368 C  
BRANCH  13  14
HETATM   14  C   UNL     1     -12.217   9.555  70.836  1.00  0.00    -0.332 C  
HETATM   15  C   UNL     1     -13.065  10.044  71.761  1.00  0.00    -0.562 C  
HETATM   16  C   UNL     1     -13.340  11.512  71.959  1.00  0.00    -0.397 C  
HETATM   17  C   UNL     1     -13.819   9.132  72.698  1.00  0.00    -0.414 C  
ENDBRANCH  13  14
ENDBRANCH   5  13
TORSDOF 2
ENDMDL
MODEL      102
REMARK 921   NORMALIZED FREE ENERGY PREDICTED BY IDOCK:   -3.64 KCAL/MOL
REMARK 922        TOTAL FREE ENERGY PREDICTED BY IDOCK:   -4.35 KCAL/MOL
REMARK 923 INTER-LIGAND FREE ENERGY PREDICTED BY IDOCK:   -3.95 KCAL/MOL
REMARK 924 INTRA-LIGAND FREE ENERGY PREDICTED BY IDOCK:   -0.39 KCAL/MOL
REMARK 927      BINDING AFFINITY PREDICTED BY RF-SCORE:    0.00 PKD
ROOT
HETATM    1  C   UNL     1      -8.866  16.689  66.164  1.00  0.00    -0.323 C  
HETATM    2  C   UNL     1      -8.726  15.655  67.338  1.00  0.00    -0.179 C  
HETATM    3  C   UNL     1     -10.275  17.318  66.001  1.00  0.00    -0.314 C  
HETATM    4  O   UNL     1      -8.971  16.291  68.589  1.00  0.00    -0.211 OA 
HETATM    5  C   UNL     1      -9.759  14.493  67.186  1.00  0.00    -0.240 C  
HETATM    6  C   UNL     1     -10.574  18.557  66.855  1.00  0.00    -0.406 C  
HETATM    7  C   UNL     1      -7.307  15.046  67.381  1.00  0.00    -0.231 C  
HETATM    8  C   UNL     1      -7.795  17.807  66.119  1.00  0.00    -0.262 C  
HETATM    9  H   UNL     1      -8.886  15.665  69.299  1.00  0.00     0.000 HD 
HETATM   10  C   UNL     1      -9.401  19.465  67.095  1.00  0.00    -0.390 C  
HETATM   11  C   UNL     1      -9.688  20.810  67.699  1.00  0.00    -0.376 C  
HETATM   12  C   UNL     1      -8.153  19.112  66.756  1.00  0.00    -0.285 C  
ENDROOT
BRANCH   5  13
HETATM   13  C   UNL     1      -9.621  13.374  68.235  1.00  0.00    -0.220 C  
BRANCH  13  14
HETATM   14  C   UNL     1      -9.338  12.024  67.630  1.00  0.00    -0.185 C  
HETATM   15  C   UNL     1      -8.276  11.260  67.946  1.00  0.00    -0.123 C  
HETATM   16  C   UNL     1      -7.235  11.644  68.966  1.00  0.00    -0.094 C  
HETATM   17  C   UNL     1      -8.040   9.926  67.280  1.00  0.00    -0.113 C  
ENDBRANCH  13  14
ENDBRANCH   5  13
TORSDOF 2
ENDMDL
MODEL      103
REMARK 921   NORMALIZED FREE ENERGY PREDICTED BY IDOCK:   -3.63 KCAL/MOL
REMARK 922        TOTAL FREE ENERGY PREDICTED BY IDOCK:   -4.34 KCAL/MOL
REMARK 923 INTER-LIGAND FREE ENERGY PREDICTED BY IDOCK:   -4.10 KCAL/MOL
REMARK 924 INTRA-LIGAND FREE ENERGY PREDICTED BY IDOCK:   -0.24 KCAL/MOL
REMARK 927      BINDING AFFINITY PREDICTED BY RF-SCORE:    0.00 PKD
ROOT
HETATM    1  C   UNL     1      -8.689   5.388  66.362  1.00  0.00    -0.121 C  
HETATM    2  C   UNL     1      -9.982   6.010  66.999  1.00  0.00    -0.163 C  
HETATM    3  C   UNL     1      -8.543   3.852  66.525  1.00  0.00    -0.111 C  
HETATM    4  O   UNL     1     -11.146   5.481  66.372  1.00  0.00    -0.681 OA 
HETATM    5  C   UNL     1     -10.071   5.676  68.523  1.00  0.00    -0.236 C  
HETATM    6  C   UNL     1      -9.235   2.983  65.467  1.00  0.00    -0.135 C  
HETATM    7  C   UNL     1     -10.005   7.546  66.833  1.00  0.00    -0.318 C  
HETATM    8  C   UNL     1      -8.408   5.777  64.889  1.00  0.00    -0.127 C  
HETATM    9  H   UNL     1     -11.929   5.857  66.757  1.00  0.00     0.000 HD 
HETATM   10  C   UNL     1      -9.258   3.563  64.081  1.00  0.00    -0.129 C  
HETATM   11  C   UNL     1      -9.687   2.654  62.965  1.00  0.00    -0.094 C  
HETATM   12  C   UNL     1      -8.880   4.826  63.836  1.00  0.00    -0.112 C  
ENDROOT
BRANCH   5  13
HETATM   13  C   UNL     1     -11.254   6.338  69.255  1.00  0.00    -0.458 C  
BRANCH  13  14
HETATM   14  C   UNL     1     -10.837   7.114  70.475  1.00  0.00    -0.269 C  
HETATM   15  C   UNL     1     -11.677   7.487  71.459  1.00  0.00    -0.309 C  
HETATM   16  C   UNL     1     -13.147   7.158  71.482  1.00  0.00    -0.427 C  
HETATM   17  C   UNL     1     -11.195   8.288  72.644  1.00  0.00    -0.410 C  
ENDBRANCH  13  14
ENDBRANCH   5  13
TORSDOF 2
ENDMDL
MODEL      104
REMARK 921   NORMALIZED FREE ENERGY PREDICTED BY IDOCK:   -3.58 KCAL/MOL
REMARK 922        TOTAL FREE ENERGY PREDICTED BY IDOCK:   -4.28 KCAL/MOL
REMARK 923 INTER-LIGAND FREE ENERGY PREDICTED BY IDOCK:   -4.12 KCAL/MOL
REMARK 924 INTRA-LIGAND FREE ENERGY PREDICTED BY IDOCK:   -0.16 KCAL/MOL
REMARK 927      BINDING AFFINITY PREDICTED BY RF-SCORE:    0.00 PKD
ROOT
HETATM    1  C   UNL     1      -9.843   7.542  70.140  1.00  0.00    -0.180 C  
HETATM    2  C   UNL     1      -9.963   9.054  69.732  1.00  0.00    -0.196 C  
HETATM    3  C   UNL     1     -11.107   6.682  69.876  1.00  0.00    -0.403 C  
HETATM    4  O   UNL     1     -10.178   9.171  68.330  1.00  0.00    -0.190 OA 
HETATM    5  C   UNL     1     -11.169   9.734  70.456  1.00  0.00    -0.381 C  
HETATM    6  C   UNL     1     -11.245   6.081  68.472  1.00  0.00    -0.147 C  
HETATM    7  C   UNL     1      -8.677   9.833  70.086  1.00  0.00    -0.215 C  
HETATM    8  C   UNL     1      -8.594   6.796  69.607  1.00  0.00    -0.133 C  
HETATM    9  H   UNL     1     -10.251  10.086  68.082  1.00  0.00     0.000 HD 
HETATM   10  C   UNL     1      -9.952   5.681  67.819  1.00  0.00    -0.175 C  
HETATM   11  C   UNL     1     -10.042   4.858  66.566  1.00  0.00    -0.285 C  
HETATM   12  C   UNL     1      -8.763   6.011  68.345  1.00  0.00    -0.113 C  
ENDROOT
BRANCH   5  13
HETATM   13  C   UNL     1     -11.297  11.248  70.199  1.00  0.00    -0.251 C  
BRANCH  13  14
HETATM   14  C   UNL     1     -11.846  11.574  68.835  1.00  0.00    -0.406 C  
HETATM   15  C   UNL     1     -11.287  12.456  67.985  1.00  0.00    -0.340 C  
HETATM   16  C   UNL     1     -10.023  13.222  68.277  1.00  0.00    -0.236 C  
HETATM   17  C   UNL     1     -11.906  12.754  66.641  1.00  0.00    -0.462 C  
ENDBRANCH  13  14
ENDBRANCH   5  13
TORSDOF 2
ENDMDL
MODEL      105
REMARK 921   NORMALIZED FREE ENERGY PREDICTED BY IDOCK:   -3.58 KCAL/MOL
REMARK 922        TOTAL FREE ENERGY PREDICTED BY IDOCK:   -4.27 KCAL/MOL
REMARK 923 INTER-LIGAND FREE ENERGY PREDICTED BY IDOCK:   -4.03 KCAL/MOL
REMARK 924 INTRA-LIGAND FREE ENERGY PREDICTED BY IDOCK:   -0.24 KCAL/MOL
REMARK 927      BINDING AFFINITY PREDICTED BY RF-SCORE:    0.00 PKD
ROOT
HETATM    1  C   UNL     1     -11.371   8.067  70.197  1.00  0.00    -0.081 C  
HETATM    2  C   UNL     1     -10.318   7.668  69.102  1.00  0.00    -0.213 C  
HETATM    3  C   UNL     1     -12.122   6.881  70.858  1.00  0.00    -0.424 C  
HETATM    4  O   UNL     1      -9.283   6.877  69.676  1.00  0.00    -0.146 OA 
HETATM    5  C   UNL     1     -10.985   6.826  67.967  1.00  0.00    -0.289 C  
HETATM    6  C   UNL     1     -11.431   6.216  72.055  1.00  0.00    -0.366 C  
HETATM    7  C   UNL     1      -9.670   8.918  68.467  1.00  0.00    -0.172 C  
HETATM    8  C   UNL     1     -10.866   9.032  71.298  1.00  0.00    -0.385 C  
HETATM    9  H   UNL     1      -8.646   6.635  69.014  1.00  0.00     0.000 HD 
HETATM   10  C   UNL     1     -10.637   7.144  72.930  1.00  0.00    -0.317 C  
HETATM   11  C   UNL     1     -10.157   6.603  74.247  1.00  0.00    -0.378 C  
HETATM   12  C   UNL     1     -10.391   8.413  72.575  1.00  0.00    -0.371 C  
ENDROOT
BRANCH   5  13
HETATM   13  C   UNL     1     -10.049   6.483  66.792  1.00  0.00    -0.239 C  
BRANCH  13  14
HETATM   14  C   UNL     1      -9.931   5.003  66.540  1.00  0.00    -0.249 C  
HETATM   15  C   UNL     1      -9.270   4.463  65.499  1.00  0.00    -0.150 C  
HETATM   16  C   UNL     1      -8.538   5.267  64.456  1.00  0.00    -0.109 C  
HETATM   17  C   UNL     1      -9.215   2.968  65.293  1.00  0.00    -0.146 C  
ENDBRANCH  13  14
ENDBRANCH   5  13
TORSDOF 2
ENDMDL
MODEL      106
REMARK 921   NORMALIZED FREE ENERGY PREDICTED BY IDOCK:   -3.52 KCAL/MOL
REMARK 922        TOTAL FREE ENERGY PREDICTED BY IDOCK:   -4.21 KCAL/MOL
REMARK 923 INTER-LIGAND FREE ENERGY PREDICTED BY IDOCK:   -3.90 KCAL/MOL
REMARK 924 INTRA-LIGAND FREE ENERGY PREDICTED BY IDOCK:   -0.31 KCAL/MOL
REMARK 927      BINDING AFFINITY PREDICTED BY RF-SCORE:    0.00 PKD
ROOT
HETATM    1  C   UNL     1      -8.987  13.020  66.989  1.00  0.00    -0.225 C  
HETATM    2  C   UNL     1      -9.781  14.112  67.793  1.00  0.00    -0.223 C  
HETATM    3  C   UNL     1      -7.701  12.494  67.680  1.00  0.00    -0.151 C  
HETATM    4  O   UNL     1     -10.242  13.578  69.029  1.00  0.00    -0.416 OA 
HETATM    5  C   UNL     1      -8.869  15.339  68.116  1.00  0.00    -0.171 C  
HETATM    6  C   UNL     1      -7.881  11.339  68.673  1.00  0.00    -0.139 C  
HETATM    7  C   UNL     1     -11.008  14.610  66.998  1.00  0.00    -0.317 C  
HETATM    8  C   UNL     1      -9.822  11.820  66.476  1.00  0.00    -0.228 C  
HETATM    9  H   UNL     1     -10.722  14.238  69.515  1.00  0.00     0.000 HD 
HETATM   10  C   UNL     1      -8.965  10.359  68.322  1.00  0.00    -0.135 C  
HETATM   11  C   UNL     1      -9.016   9.081  69.111  1.00  0.00    -0.140 C  
HETATM   12  C   UNL     1      -9.833  10.590  67.327  1.00  0.00    -0.209 C  
ENDROOT
BRANCH   5  13
HETATM   13  C   UNL     1      -9.595  16.509  68.809  1.00  0.00    -0.248 C  
BRANCH  13  14
HETATM   14  C   UNL     1      -8.946  17.843  68.556  1.00  0.00    -0.291 C  
HETATM   15  C   UNL     1      -9.580  18.904  68.022  1.00  0.00    -0.368 C  
HETATM   16  C   UNL     1     -11.033  18.906  67.624  1.00  0.00    -0.287 C  
HETATM   17  C   UNL     1      -8.860  20.207  67.771  1.00  0.00    -0.349 C  
ENDBRANCH  13  14
ENDBRANCH   5  13
TORSDOF 2
ENDMDL
MODEL      107
REMARK 921   NORMALIZED FREE ENERGY PREDICTED BY IDOCK:   -3.49 KCAL/MOL
REMARK 922        TOTAL FREE ENERGY PREDICTED BY IDOCK:   -4.17 KCAL/MOL
REMARK 923 INTER-LIGAND FREE ENERGY PREDICTED BY IDOCK:   -3.93 KCAL/MOL
REMARK 924 INTRA-LIGAND FREE ENERGY PREDICTED BY IDOCK:   -0.25 KCAL/MOL
REMARK 927      BINDING AFFINITY PREDICTED BY RF-SCORE:    0.00 PKD
ROOT
HETATM    1  C   UNL     1      -9.526  12.237  66.759  1.00  0.00    -0.222 C  
HETATM    2  C   UNL     1      -9.516  13.723  67.269  1.00  0.00    -0.236 C  
HETATM    3  C   UNL     1      -8.535  11.283  67.477  1.00  0.00    -0.131 C  
HETATM    4  O   UNL     1      -9.907  13.779  68.637  1.00  0.00    -0.285 OA 
HETATM    5  C   UNL     1      -8.086  14.340  67.159  1.00  0.00    -0.154 C  
HETATM    6  C   UNL     1      -9.033  10.628  68.772  1.00  0.00    -0.172 C  
HETATM    7  C   UNL     1     -10.493  14.600  66.455  1.00  0.00    -0.290 C  
HETATM    8  C   UNL     1     -10.919  11.562  66.675  1.00  0.00    -0.349 C  
HETATM    9  H   UNL     1      -9.901  14.677  68.945  1.00  0.00     0.000 HD 
HETATM   10  C   UNL     1     -10.499  10.298  68.797  1.00  0.00    -0.222 C  
HETATM   11  C   UNL     1     -10.987   9.430  69.922  1.00  0.00    -0.251 C  
HETATM   12  C   UNL     1     -11.337  10.727  67.842  1.00  0.00    -0.372 C  
ENDROOT
BRANCH   5  13
HETATM   13  C   UNL     1      -8.003  15.833  67.535  1.00  0.00    -0.171 C  
BRANCH  13  14
HETATM   14  C   UNL     1      -7.104  16.626  66.625  1.00  0.00    -0.257 C  
HETATM   15  C   UNL     1      -7.074  17.971  66.575  1.00  0.00    -0.263 C  
HETATM   16  C   UNL     1      -7.923  18.866  67.441  1.00  0.00    -0.264 C  
HETATM   17  C   UNL     1      -6.165  18.703  65.618  1.00  0.00    -0.288 C  
ENDBRANCH  13  14
ENDBRANCH   5  13
TORSDOF 2
ENDMDL
MODEL      108
REMARK 921   NORMALIZED FREE ENERGY PREDICTED BY IDOCK:   -3.47 KCAL/MOL
REMARK 922        TOTAL FREE ENERGY PREDICTED BY IDOCK:   -4.15 KCAL/MOL
REMARK 923 INTER-LIGAND FREE ENERGY PREDICTED BY IDOCK:   -3.85 KCAL/MOL
REMARK 924 INTRA-LIGAND FREE ENERGY PREDICTED BY IDOCK:   -0.30 KCAL/MOL
REMARK 927      BINDING AFFINITY PREDICTED BY RF-SCORE:    0.00 PKD
ROOT
HETATM    1  C   UNL     1      -9.084   9.847  69.520  1.00  0.00    -0.237 C  
HETATM    2  C   UNL     1      -9.197  10.544  68.117  1.00  0.00    -0.148 C  
HETATM    3  C   UNL     1     -10.435   9.482  70.190  1.00  0.00    -0.299 C  
HETATM    4  O   UNL     1      -9.828   9.675  67.182  1.00  0.00    -0.168 OA 
HETATM    5  C   UNL     1     -10.057  11.845  68.210  1.00  0.00    -0.203 C  
HETATM    6  C   UNL     1     -11.052   8.134  69.797  1.00  0.00    -0.058 C  
HETATM    7  C   UNL     1      -7.804  10.916  67.563  1.00  0.00    -0.114 C  
HETATM    8  C   UNL     1      -8.130   8.628  69.592  1.00  0.00    -0.112 C  
HETATM    9  H   UNL     1      -9.896  10.097  66.334  1.00  0.00     0.000 HD 
HETATM   10  C   UNL     1     -10.064   7.036  69.521  1.00  0.00    -0.179 C  
HETATM   11  C   UNL     1     -10.607   5.642  69.386  1.00  0.00    -0.374 C  
HETATM   12  C   UNL     1      -8.748   7.275  69.433  1.00  0.00    -0.137 C  
ENDROOT
BRANCH   5  13
HETATM   13  C   UNL     1     -10.132  12.656  66.901  1.00  0.00    -0.234 C  
BRANCH  13  14
HETATM   14  C   UNL     1     -11.438  12.486  66.171  1.00  0.00    -0.426 C  
HETATM   15  C   UNL     1     -11.563  12.489  64.831  1.00  0.00    -0.386 C  
HETATM   16  C   UNL     1     -10.406  12.640  63.877  1.00  0.00    -0.405 C  
HETATM   17  C   UNL     1     -12.909  12.340  64.165  1.00  0.00    -0.371 C  
ENDBRANCH  13  14
ENDBRANCH   5  13
TORSDOF 2
ENDMDL
MODEL      109
REMARK 921   NORMALIZED FREE ENERGY PREDICTED BY IDOCK:   -3.44 KCAL/MOL
REMARK 922        TOTAL FREE ENERGY PREDICTED BY IDOCK:   -4.13 KCAL/MOL
REMARK 923 INTER-LIGAND FREE ENERGY PREDICTED BY IDOCK:   -4.01 KCAL/MOL
REMARK 924 INTRA-LIGAND FREE ENERGY PREDICTED BY IDOCK:   -0.11 KCAL/MOL
REMARK 927      BINDING AFFINITY PREDICTED BY RF-SCORE:    0.00 PKD
ROOT
HETATM    1  C   UNL     1      -9.011   9.939  67.247  1.00  0.00    -0.145 C  
HETATM    2  C   UNL     1     -10.488  10.198  67.712  1.00  0.00    -0.232 C  
HETATM    3  C   UNL     1      -8.234   8.875  68.066  1.00  0.00    -0.110 C  
HETATM    4  O   UNL     1     -11.265   9.013  67.571  1.00  0.00    -0.397 OA 
HETATM    5  C   UNL     1     -10.534  10.619  69.216  1.00  0.00    -0.252 C  
HETATM    6  C   UNL     1      -8.410   7.414  67.633  1.00  0.00    -0.118 C  
HETATM    7  C   UNL     1     -11.154  11.310  66.872  1.00  0.00    -0.339 C  
HETATM    8  C   UNL     1      -8.819   9.663  65.734  1.00  0.00    -0.186 C  
HETATM    9  H   UNL     1     -12.160   9.169  67.853  1.00  0.00     0.000 HD 
HETATM   10  C   UNL     1      -8.580   7.204  66.154  1.00  0.00    -0.151 C  
HETATM   11  C   UNL     1      -8.498   5.792  65.649  1.00  0.00    -0.149 C  
HETATM   12  C   UNL     1      -8.762   8.230  65.310  1.00  0.00    -0.121 C  
ENDROOT
BRANCH   5  13
HETATM   13  C   UNL     1     -11.936  10.999  69.730  1.00  0.00    -0.428 C  
BRANCH  13  14
HETATM   14  C   UNL     1     -12.122  12.482  69.907  1.00  0.00    -0.322 C  
HETATM   15  C   UNL     1     -12.830  13.043  70.905  1.00  0.00    -0.222 C  
HETATM   16  C   UNL     1     -13.516  12.261  71.995  1.00  0.00    -0.418 C  
HETATM   17  C   UNL     1     -12.997  14.540  71.007  1.00  0.00    -0.423 C  
ENDBRANCH  13  14
ENDBRANCH   5  13
TORSDOF 2
ENDMDL
MODEL      110
REMARK 921   NORMALIZED FREE ENERGY PREDICTED BY IDOCK:   -3.44 KCAL/MOL
REMARK 922        TOTAL FREE ENERGY PREDICTED BY IDOCK:   -4.12 KCAL/MOL
REMARK 923 INTER-LIGAND FREE ENERGY PREDICTED BY IDOCK:   -3.66 KCAL/MOL
REMARK 924 INTRA-LIGAND FREE ENERGY PREDICTED BY IDOCK:   -0.46 KCAL/MOL
REMARK 927      BINDING AFFINITY PREDICTED BY RF-SCORE:    0.00 PKD
ROOT
HETATM    1  C   UNL     1     -11.451   7.097  70.715  1.00  0.00    -0.342 C  
HETATM    2  C   UNL     1     -10.336   6.683  71.740  1.00  0.00    -0.196 C  
HETATM    3  C   UNL     1     -11.391   8.569  70.229  1.00  0.00    -0.135 C  
HETATM    4  O   UNL     1      -9.048   6.801  71.144  1.00  0.00    -0.150 OA 
HETATM    5  C   UNL     1     -10.363   7.609  72.998  1.00  0.00    -0.393 C  
HETATM    6  C   UNL     1     -10.472   8.859  69.034  1.00  0.00    -0.231 C  
HETATM    7  C   UNL     1     -10.517   5.221  72.204  1.00  0.00    -0.278 C  
HETATM    8  C   UNL     1     -11.627   6.160  69.494  1.00  0.00    -0.097 C  
HETATM    9  H   UNL     1      -8.373   6.551  71.764  1.00  0.00     0.000 HD 
HETATM   10  C   UNL     1     -10.385   7.758  68.015  1.00  0.00    -0.263 C  
HETATM   11  C   UNL     1      -9.713   8.082  66.711  1.00  0.00    -0.305 C  
HETATM   12  C   UNL     1     -10.913   6.545  68.237  1.00  0.00    -0.362 C  
ENDROOT
BRANCH   5  13
HETATM   13  C   UNL     1      -9.372   7.207  74.108  1.00  0.00    -0.282 C  
BRANCH  13  14
HETATM   14  C   UNL     1      -8.229   8.175  74.263  1.00  0.00    -0.290 C  
HETATM   15  C   UNL     1      -6.939   7.865  74.035  1.00  0.00    -0.144 C  
HETATM   16  C   UNL     1      -6.466   6.511  73.573  1.00  0.00    -0.065 C  
HETATM   17  C   UNL     1      -5.839   8.880  74.235  1.00  0.00    -0.129 C  
ENDBRANCH  13  14
ENDBRANCH   5  13
TORSDOF 2
ENDMDL
MODEL      111
REMARK 921   NORMALIZED FREE ENERGY PREDICTED BY IDOCK:   -3.41 KCAL/MOL
REMARK 922        TOTAL FREE ENERGY PREDICTED BY IDOCK:   -4.09 KCAL/MOL
REMARK 923 INTER-LIGAND FREE ENERGY PREDICTED BY IDOCK:   -3.81 KCAL/MOL
REMARK 924 INTRA-LIGAND FREE ENERGY PREDICTED BY IDOCK:   -0.27 KCAL/MOL
REMARK 927      BINDING AFFINITY PREDICTED BY RF-SCORE:    0.00 PKD
ROOT
HETATM    1  C   UNL     1      -8.271   7.484  72.461  1.00  0.00    -0.131 C  
HETATM    2  C   UNL     1      -9.413   7.630  71.393  1.00  0.00    -0.148 C  
HETATM    3  C   UNL     1      -8.752   7.263  73.919  1.00  0.00    -0.230 C  
HETATM    4  O   UNL     1     -10.185   6.435  71.329  1.00  0.00    -0.196 OA 
HETATM    5  C   UNL     1     -10.379   8.799  71.765  1.00  0.00    -0.413 C  
HETATM    6  C   UNL     1      -9.043   5.815  74.332  1.00  0.00    -0.126 C  
HETATM    7  C   UNL     1      -8.834   7.902  69.987  1.00  0.00    -0.141 C  
HETATM    8  C   UNL     1      -7.160   6.458  72.125  1.00  0.00    -0.078 C  
HETATM    9  H   UNL     1     -10.876   6.523  70.683  1.00  0.00     0.000 HD 
HETATM   10  C   UNL     1      -8.153   4.781  73.701  1.00  0.00    -0.106 C  
HETATM   11  C   UNL     1      -8.220   3.387  74.258  1.00  0.00    -0.070 C  
HETATM   12  C   UNL     1      -7.308   5.087  72.707  1.00  0.00    -0.090 C  
ENDROOT
BRANCH   5  13
HETATM   13  C   UNL     1     -11.470   9.086  70.715  1.00  0.00    -0.331 C  
BRANCH  13  14
HETATM   14  C   UNL     1     -11.396  10.478  70.146  1.00  0.00    -0.400 C  
HETATM   15  C   UNL     1     -12.114  11.522  70.603  1.00  0.00    -0.450 C  
HETATM   16  C   UNL     1     -13.075  11.441  71.760  1.00  0.00    -0.523 C  
HETATM   17  C   UNL     1     -12.009  12.887  69.968  1.00  0.00    -0.380 C  
ENDBRANCH  13  14
ENDBRANCH   5  13
TORSDOF 2
ENDMDL
MODEL      112
REMARK 921   NORMALIZED FREE ENERGY PREDICTED BY IDOCK:   -3.40 KCAL/MOL
REMARK 922        TOTAL FREE ENERGY PREDICTED BY IDOCK:   -4.08 KCAL/MOL
REMARK 923 INTER-LIGAND FREE ENERGY PREDICTED BY IDOCK:   -4.04 KCAL/MOL
REMARK 924 INTRA-LIGAND FREE ENERGY PREDICTED BY IDOCK:   -0.04 KCAL/MOL
REMARK 927      BINDING AFFINITY PREDICTED BY RF-SCORE:    0.00 PKD
ROOT
HETATM    1  C   UNL     1      -6.579  16.525  67.834  1.00  0.00    -0.155 C  
HETATM    2  C   UNL     1      -7.378  15.343  68.491  1.00  0.00    -0.116 C  
HETATM    3  C   UNL     1      -7.115  17.003  66.459  1.00  0.00    -0.307 C  
HETATM    4  O   UNL     1      -8.719  15.741  68.757  1.00  0.00    -0.176 OA 
HETATM    5  C   UNL     1      -7.430  14.107  67.537  1.00  0.00    -0.192 C  
HETATM    6  C   UNL     1      -8.238  18.048  66.487  1.00  0.00    -0.298 C  
HETATM    7  C   UNL     1      -6.734  14.905  69.825  1.00  0.00    -0.179 C  
HETATM    8  C   UNL     1      -6.326  17.755  68.742  1.00  0.00    -0.212 C  
HETATM    9  H   UNL     1      -9.203  15.026  69.155  1.00  0.00     0.000 HD 
HETATM   10  C   UNL     1      -8.159  19.038  67.614  1.00  0.00    -0.296 C  
HETATM   11  C   UNL     1      -9.073  20.228  67.546  1.00  0.00    -0.462 C  
HETATM   12  C   UNL     1      -7.290  18.892  68.624  1.00  0.00    -0.343 C  
ENDROOT
BRANCH   5  13
HETATM   13  C   UNL     1      -8.102  12.860  68.144  1.00  0.00    -0.158 C  
BRANCH  13  14
HETATM   14  C   UNL     1      -9.606  12.926  68.123  1.00  0.00    -0.223 C  
HETATM   15  C   UNL     1     -10.362  12.648  67.044  1.00  0.00    -0.241 C  
HETATM   16  C   UNL     1      -9.804  12.210  65.715  1.00  0.00    -0.264 C  
HETATM   17  C   UNL     1     -11.866  12.760  67.087  1.00  0.00    -0.415 C  
ENDBRANCH  13  14
ENDBRANCH   5  13
TORSDOF 2
ENDMDL
MODEL      113
REMARK 921   NORMALIZED FREE ENERGY PREDICTED BY IDOCK:   -3.40 KCAL/MOL
REMARK 922        TOTAL FREE ENERGY PREDICTED BY IDOCK:   -4.08 KCAL/MOL
REMARK 923 INTER-LIGAND FREE ENERGY PREDICTED BY IDOCK:   -3.63 KCAL/MOL
REMARK 924 INTRA-LIGAND FREE ENERGY PREDICTED BY IDOCK:   -0.45 KCAL/MOL
REMARK 927      BINDING AFFINITY PREDICTED BY RF-SCORE:    0.00 PKD
ROOT
HETATM    1  C   UNL     1     -10.073   7.137  73.016  1.00  0.00    -0.267 C  
HETATM    2  C   UNL     1      -9.977   5.709  72.370  1.00  0.00    -0.170 C  
HETATM    3  C   UNL     1      -9.031   8.167  72.505  1.00  0.00    -0.286 C  
HETATM    4  O   UNL     1     -10.219   5.784  70.969  1.00  0.00    -0.199 OA 
HETATM    5  C   UNL     1      -8.554   5.098  72.574  1.00  0.00    -0.121 C  
HETATM    6  C   UNL     1      -9.401   8.941  71.234  1.00  0.00    -0.336 C  
HETATM    7  C   UNL     1     -11.016   4.745  72.985  1.00  0.00    -0.346 C  
HETATM    8  C   UNL     1     -11.480   7.786  73.015  1.00  0.00    -0.263 C  
HETATM    9  H   UNL     1     -10.161   4.920  70.577  1.00  0.00     0.000 HD 
HETATM   10  C   UNL     1     -10.862   9.257  71.082  1.00  0.00    -0.407 C  
HETATM   11  C   UNL     1     -11.246  10.227  70.000  1.00  0.00    -0.376 C  
HETATM   12  C   UNL     1     -11.788   8.728  71.895  1.00  0.00    -0.437 C  
ENDROOT
BRANCH   5  13
HETATM   13  C   UNL     1      -8.401   3.651  72.066  1.00  0.00    -0.083 C  
BRANCH  13  14
HETATM   14  C   UNL     1      -7.490   3.534  70.873  1.00  0.00    -0.037 C  
HETATM   15  C   UNL     1      -7.904   3.209  69.633  1.00  0.00    -0.051 C  
HETATM   16  C   UNL     1      -9.340   2.940  69.268  1.00  0.00    -0.207 C  
HETATM   17  C   UNL     1      -6.930   3.084  68.487  1.00  0.00    -0.049 C  
ENDBRANCH  13  14
ENDBRANCH   5  13
TORSDOF 2
ENDMDL
MODEL      114
REMARK 921   NORMALIZED FREE ENERGY PREDICTED BY IDOCK:   -3.39 KCAL/MOL
REMARK 922        TOTAL FREE ENERGY PREDICTED BY IDOCK:   -4.07 KCAL/MOL
REMARK 923 INTER-LIGAND FREE ENERGY PREDICTED BY IDOCK:   -4.40 KCAL/MOL
REMARK 924 INTRA-LIGAND FREE ENERGY PREDICTED BY IDOCK:    0.33 KCAL/MOL
REMARK 927      BINDING AFFINITY PREDICTED BY RF-SCORE:    0.00 PKD
ROOT
HETATM    1  C   UNL     1     -11.187   6.170  70.974  1.00  0.00    -0.361 C  
HETATM    2  C   UNL     1     -10.796   7.685  71.113  1.00  0.00    -0.235 C  
HETATM    3  C   UNL     1     -10.769   5.498  69.639  1.00  0.00    -0.349 C  
HETATM    4  O   UNL     1      -9.381   7.837  71.074  1.00  0.00    -0.151 OA 
HETATM    5  C   UNL     1     -11.396   8.526  69.941  1.00  0.00     0.051 C  
HETATM    6  C   UNL     1      -9.346   4.927  69.576  1.00  0.00    -0.190 C  
HETATM    7  C   UNL     1     -11.305   8.274  72.448  1.00  0.00    -0.457 C  
HETATM    8  C   UNL     1     -10.780   5.257  72.158  1.00  0.00    -0.271 C  
HETATM    9  H   UNL     1      -9.145   8.753  71.158  1.00  0.00     0.000 HD 
HETATM   10  C   UNL     1      -8.833   4.351  70.866  1.00  0.00    -0.146 C  
HETATM   11  C   UNL     1      -7.561   3.554  70.802  1.00  0.00    -0.040 C  
HETATM   12  C   UNL     1      -9.492   4.508  72.023  1.00  0.00    -0.196 C  
ENDROOT
BRANCH   5  13
HETATM   13  C   UNL     1     -11.156  10.044  70.055  1.00  0.00    -0.350 C  
BRANCH  13  14
HETATM   14  C   UNL     1     -12.088  10.721  71.023  1.00  0.00    -0.452 C  
HETATM   15  C   UNL     1     -12.394  12.032  70.989  1.00  0.00    -0.340 C  
HETATM   16  C   UNL     1     -11.859  12.995  69.961  1.00  0.00    -0.355 C  
HETATM   17  C   UNL     1     -13.317  12.652  72.009  1.00  0.00    -0.555 C  
ENDBRANCH  13  14
ENDBRANCH   5  13
TORSDOF 2
ENDMDL
MODEL      115
REMARK 921   NORMALIZED FREE ENERGY PREDICTED BY IDOCK:   -3.36 KCAL/MOL
REMARK 922        TOTAL FREE ENERGY PREDICTED BY IDOCK:   -4.03 KCAL/MOL
REMARK 923 INTER-LIGAND FREE ENERGY PREDICTED BY IDOCK:   -3.82 KCAL/MOL
REMARK 924 INTRA-LIGAND FREE ENERGY PREDICTED BY IDOCK:   -0.21 KCAL/MOL
REMARK 927      BINDING AFFINITY PREDICTED BY RF-SCORE:    0.00 PKD
ROOT
HETATM    1  C   UNL     1      -9.460   6.862  71.986  1.00  0.00    -0.147 C  
HETATM    2  C   UNL     1      -9.554   6.953  70.421  1.00  0.00    -0.169 C  
HETATM    3  C   UNL     1     -10.821   6.847  72.731  1.00  0.00    -0.305 C  
HETATM    4  O   UNL     1     -10.225   5.812  69.898  1.00  0.00    -0.195 OA 
HETATM    5  C   UNL     1     -10.359   8.219  69.983  1.00  0.00    -0.212 C  
HETATM    6  C   UNL     1     -11.496   5.479  72.896  1.00  0.00    -0.327 C  
HETATM    7  C   UNL     1      -8.150   7.020  69.779  1.00  0.00    -0.126 C  
HETATM    8  C   UNL     1      -8.557   5.733  72.543  1.00  0.00    -0.120 C  
HETATM    9  H   UNL     1     -10.282   5.867  68.951  1.00  0.00     0.000 HD 
HETATM   10  C   UNL     1     -10.555   4.322  73.087  1.00  0.00    -0.270 C  
HETATM   11  C   UNL     1     -11.156   3.011  73.507  1.00  0.00    -0.317 C  
HETATM   12  C   UNL     1      -9.231   4.454  72.924  1.00  0.00    -0.135 C  
ENDROOT
BRANCH   5  13
HETATM   13  C   UNL     1     -10.408   8.449  68.460  1.00  0.00    -0.232 C  
BRANCH  13  14
HETATM   14  C   UNL     1     -10.848   9.838  68.084  1.00  0.00    -0.264 C  
HETATM   15  C   UNL     1     -10.648  10.394  66.873  1.00  0.00    -0.293 C  
HETATM   16  C   UNL     1      -9.975   9.691  65.724  1.00  0.00    -0.342 C  
HETATM   17  C   UNL     1     -11.093  11.805  66.572  1.00  0.00    -0.364 C  
ENDBRANCH  13  14
ENDBRANCH   5  13
TORSDOF 2
ENDMDL
MODEL      116
REMARK 921   NORMALIZED FREE ENERGY PREDICTED BY IDOCK:   -3.33 KCAL/MOL
REMARK 922        TOTAL FREE ENERGY PREDICTED BY IDOCK:   -4.00 KCAL/MOL
REMARK 923 INTER-LIGAND FREE ENERGY PREDICTED BY IDOCK:   -3.83 KCAL/MOL
REMARK 924 INTRA-LIGAND FREE ENERGY PREDICTED BY IDOCK:   -0.18 KCAL/MOL
REMARK 927      BINDING AFFINITY PREDICTED BY RF-SCORE:    0.00 PKD
ROOT
HETATM    1  C   UNL     1      -9.792   5.679  67.170  1.00  0.00    -0.167 C  
HETATM    2  C   UNL     1      -9.100   5.376  68.547  1.00  0.00    -0.108 C  
HETATM    3  C   UNL     1     -10.964   6.693  67.227  1.00  0.00    -0.456 C  
HETATM    4  O   UNL     1      -8.512   6.560  69.076  1.00  0.00    -0.124 OA 
HETATM    5  C   UNL     1     -10.139   4.856  69.591  1.00  0.00    -0.300 C  
HETATM    6  C   UNL     1     -10.590   8.178  67.133  1.00  0.00    -0.355 C  
HETATM    7  C   UNL     1      -7.987   4.316  68.394  1.00  0.00    -0.078 C  
HETATM    8  C   UNL     1      -8.842   6.056  66.006  1.00  0.00    -0.159 C  
HETATM    9  H   UNL     1      -8.093   6.377  69.909  1.00  0.00     0.000 HD 
HETATM   10  C   UNL     1      -9.412   8.484  66.251  1.00  0.00    -0.299 C  
HETATM   11  C   UNL     1      -9.162   9.927  65.918  1.00  0.00    -0.223 C  
HETATM   12  C   UNL     1      -8.633   7.515  65.749  1.00  0.00    -0.158 C  
ENDROOT
BRANCH   5  13
HETATM   13  C   UNL     1      -9.529   4.429  70.941  1.00  0.00    -0.241 C  
BRANCH  13  14
HETATM   14  C   UNL     1      -9.490   5.543  71.953  1.00  0.00    -0.171 C  
HETATM   15  C   UNL     1     -10.204   5.555  73.095  1.00  0.00    -0.213 C  
HETATM   16  C   UNL     1     -11.124   4.442  73.524  1.00  0.00    -0.388 C  
HETATM   17  C   UNL     1     -10.136   6.718  74.054  1.00  0.00    -0.389 C  
ENDBRANCH  13  14
ENDBRANCH   5  13
TORSDOF 2
ENDMDL
MODEL      117
REMARK 921   NORMALIZED FREE ENERGY PREDICTED BY IDOCK:   -3.31 KCAL/MOL
REMARK 922        TOTAL FREE ENERGY PREDICTED BY IDOCK:   -3.97 KCAL/MOL
REMARK 923 INTER-LIGAND FREE ENERGY PREDICTED BY IDOCK:   -3.78 KCAL/MOL
REMARK 924 INTRA-LIGAND FREE ENERGY PREDICTED BY IDOCK:   -0.19 KCAL/MOL
REMARK 927      BINDING AFFINITY PREDICTED BY RF-SCORE:    0.00 PKD
ROOT
HETATM    1  C   UNL     1      -7.960   9.457  65.797  1.00  0.00    -0.110 C  
HETATM    2  C   UNL     1      -9.446   9.935  65.628  1.00  0.00    -0.235 C  
HETATM    3  C   UNL     1      -7.530   9.129  67.252  1.00  0.00    -0.088 C  
HETATM    4  O   UNL     1     -10.345   8.909  66.035  1.00  0.00    -0.333 OA 
HETATM    5  C   UNL     1      -9.730  11.193  66.511  1.00  0.00    -0.228 C  
HETATM    6  C   UNL     1      -7.829   7.710  67.750  1.00  0.00    -0.120 C  
HETATM    7  C   UNL     1      -9.756  10.290  64.157  1.00  0.00    -0.357 C  
HETATM    8  C   UNL     1      -7.510   8.309  64.858  1.00  0.00    -0.092 C  
HETATM    9  H   UNL     1     -11.244   9.199  65.933  1.00  0.00     0.000 HD 
HETATM   10  C   UNL     1      -7.727   6.632  66.708  1.00  0.00    -0.106 C  
HETATM   11  C   UNL     1      -7.754   5.209  67.187  1.00  0.00    -0.092 C  
HETATM   12  C   UNL     1      -7.582   6.920  65.406  1.00  0.00    -0.093 C  
ENDROOT
BRANCH   5  13
HETATM   13  C   UNL     1     -11.136  11.798  66.326  1.00  0.00    -0.364 C  
BRANCH  13  14
HETATM   14  C   UNL     1     -11.419  12.939  67.266  1.00  0.00    -0.388 C  
HETATM   15  C   UNL     1     -11.771  12.787  68.557  1.00  0.00    -0.371 C  
HETATM   16  C   UNL     1     -11.907  11.452  69.241  1.00  0.00    -0.417 C  
HETATM   17  C   UNL     1     -12.066  13.977  69.437  1.00  0.00    -0.386 C  
ENDBRANCH  13  14
ENDBRANCH   5  13
TORSDOF 2
ENDMDL
MODEL      118
REMARK 921   NORMALIZED FREE ENERGY PREDICTED BY IDOCK:   -3.30 KCAL/MOL
REMARK 922        TOTAL FREE ENERGY PREDICTED BY IDOCK:   -3.97 KCAL/MOL
REMARK 923 INTER-LIGAND FREE ENERGY PREDICTED BY IDOCK:   -3.51 KCAL/MOL
REMARK 924 INTRA-LIGAND FREE ENERGY PREDICTED BY IDOCK:   -0.46 KCAL/MOL
REMARK 927      BINDING AFFINITY PREDICTED BY RF-SCORE:    0.00 PKD
ROOT
HETATM    1  C   UNL     1      -8.383   8.514  66.672  1.00  0.00    -0.112 C  
HETATM    2  C   UNL     1      -9.199   9.716  66.074  1.00  0.00    -0.182 C  
HETATM    3  C   UNL     1      -8.203   8.536  68.212  1.00  0.00    -0.123 C  
HETATM    4  O   UNL     1     -10.529   9.712  66.582  1.00  0.00    -0.221 OA 
HETATM    5  C   UNL     1      -8.547  11.081  66.465  1.00  0.00    -0.165 C  
HETATM    6  C   UNL     1      -9.334   7.916  69.043  1.00  0.00    -0.151 C  
HETATM    7  C   UNL     1      -9.273   9.632  64.534  1.00  0.00    -0.277 C  
HETATM    8  C   UNL     1      -8.841   7.102  66.228  1.00  0.00    -0.166 C  
HETATM    9  H   UNL     1     -11.023  10.439  66.220  1.00  0.00     0.000 HD 
HETATM   10  C   UNL     1     -10.013   6.733  68.413  1.00  0.00    -0.153 C  
HETATM   11  C   UNL     1     -10.942   5.933  69.281  1.00  0.00    -0.397 C  
HETATM   12  C   UNL     1      -9.779   6.378  67.141  1.00  0.00    -0.170 C  
ENDROOT
BRANCH   5  13
HETATM   13  C   UNL     1      -9.219  12.315  65.830  1.00  0.00    -0.031 C  
BRANCH  13  14
HETATM   14  C   UNL     1     -10.098  13.071  66.790  1.00  0.00    -0.247 C  
HETATM   15  C   UNL     1     -11.429  13.219  66.642  1.00  0.00    -0.384 C  
HETATM   16  C   UNL     1     -12.221  12.628  65.506  1.00  0.00    -0.501 C  
HETATM   17  C   UNL     1     -12.246  14.014  67.631  1.00  0.00    -0.235 C  
ENDBRANCH  13  14
ENDBRANCH   5  13
TORSDOF 2
ENDMDL
MODEL      119
REMARK 921   NORMALIZED FREE ENERGY PREDICTED BY IDOCK:   -3.28 KCAL/MOL
REMARK 922        TOTAL FREE ENERGY PREDICTED BY IDOCK:   -3.94 KCAL/MOL
REMARK 923 INTER-LIGAND FREE ENERGY PREDICTED BY IDOCK:   -3.49 KCAL/MOL
REMARK 924 INTRA-LIGAND FREE ENERGY PREDICTED BY IDOCK:   -0.44 KCAL/MOL
REMARK 927      BINDING AFFINITY PREDICTED BY RF-SCORE:    0.00 PKD
ROOT
HETATM    1  C   UNL     1     -10.848   8.678  68.013  1.00  0.00    -0.040 C  
HETATM    2  C   UNL     1     -10.572   7.737  69.240  1.00  0.00    -0.192 C  
HETATM    3  C   UNL     1     -10.536  10.179  68.246  1.00  0.00    -0.262 C  
HETATM    4  O   UNL     1      -9.190   7.758  69.579  1.00  0.00    -0.150 OA 
HETATM    5  C   UNL     1     -11.375   8.208  70.495  1.00  0.00    -0.222 C  
HETATM    6  C   UNL     1      -9.088  10.624  68.002  1.00  0.00    -0.147 C  
HETATM    7  C   UNL     1     -10.967   6.277  68.926  1.00  0.00    -0.435 C  
HETATM    8  C   UNL     1     -10.228   8.228  66.666  1.00  0.00    -0.333 C  
HETATM    9  H   UNL     1      -9.023   7.189  70.322  1.00  0.00     0.000 HD 
HETATM   10  C   UNL     1      -8.379   9.904  66.890  1.00  0.00    -0.124 C  
HETATM   11  C   UNL     1      -7.062  10.468  66.439  1.00  0.00    -0.128 C  
HETATM   12  C   UNL     1      -8.908   8.824  66.297  1.00  0.00    -0.187 C  
ENDROOT
BRANCH   5  13
HETATM   13  C   UNL     1     -11.251   7.279  71.719  1.00  0.00    -0.278 C  
BRANCH  13  14
HETATM   14  C   UNL     1     -10.371   7.840  72.804  1.00  0.00    -0.374 C  
HETATM   15  C   UNL     1      -9.181   7.321  73.159  1.00  0.00    -0.201 C  
HETATM   16  C   UNL     1      -8.557   6.118  72.501  1.00  0.00    -0.121 C  
HETATM   17  C   UNL     1      -8.362   7.921  74.276  1.00  0.00    -0.297 C  
ENDBRANCH  13  14
ENDBRANCH   5  13
TORSDOF 2
ENDMDL
MODEL      120
REMARK 921   NORMALIZED FREE ENERGY PREDICTED BY IDOCK:   -3.22 KCAL/MOL
REMARK 922        TOTAL FREE ENERGY PREDICTED BY IDOCK:   -3.88 KCAL/MOL
REMARK 923 INTER-LIGAND FREE ENERGY PREDICTED BY IDOCK:   -3.66 KCAL/MOL
REMARK 924 INTRA-LIGAND FREE ENERGY PREDICTED BY IDOCK:   -0.22 KCAL/MOL
REMARK 927      BINDING AFFINITY PREDICTED BY RF-SCORE:    0.00 PKD
ROOT
HETATM    1  C   UNL     1     -10.120   7.370  70.794  1.00  0.00    -0.190 C  
HETATM    2  C   UNL     1     -10.989   8.679  70.803  1.00  0.00    -0.245 C  
HETATM    3  C   UNL     1      -8.586   7.594  70.749  1.00  0.00    -0.134 C  
HETATM    4  O   UNL     1     -10.713   9.447  71.970  1.00  0.00    -0.198 OA 
HETATM    5  C   UNL     1     -10.667   9.571  69.562  1.00  0.00    -0.246 C  
HETATM    6  C   UNL     1      -7.885   7.806  72.097  1.00  0.00    -0.122 C  
HETATM    7  C   UNL     1     -12.498   8.350  70.791  1.00  0.00     0.126 C  
HETATM    8  C   UNL     1     -10.456   6.331  71.893  1.00  0.00    -0.244 C  
HETATM    9  H   UNL     1     -11.239  10.239  71.976  1.00  0.00     0.000 HD 
HETATM   10  C   UNL     1      -8.468   7.034  73.247  1.00  0.00    -0.141 C  
HETATM   11  C   UNL     1      -7.675   7.000  74.523  1.00  0.00    -0.139 C  
HETATM   12  C   UNL     1      -9.629   6.373  73.139  1.00  0.00    -0.159 C  
ENDROOT
BRANCH   5  13
HETATM   13  C   UNL     1     -11.552  10.826  69.430  1.00  0.00    -0.380 C  
BRANCH  13  14
HETATM   14  C   UNL     1     -11.554  11.408  68.041  1.00  0.00    -0.357 C  
HETATM   15  C   UNL     1     -11.730  12.714  67.768  1.00  0.00    -0.412 C  
HETATM   16  C   UNL     1     -11.926  13.776  68.819  1.00  0.00    -0.400 C  
HETATM   17  C   UNL     1     -11.746  13.226  66.348  1.00  0.00    -0.418 C  
ENDBRANCH  13  14
ENDBRANCH   5  13
TORSDOF 2
ENDMDL
MODEL      121
REMARK 921   NORMALIZED FREE ENERGY PREDICTED BY IDOCK:   -3.19 KCAL/MOL
REMARK 922        TOTAL FREE ENERGY PREDICTED BY IDOCK:   -3.84 KCAL/MOL
REMARK 923 INTER-LIGAND FREE ENERGY PREDICTED BY IDOCK:   -3.42 KCAL/MOL
REMARK 924 INTRA-LIGAND FREE ENERGY PREDICTED BY IDOCK:   -0.42 KCAL/MOL
REMARK 927      BINDING AFFINITY PREDICTED BY RF-SCORE:    0.00 PKD
ROOT
HETATM    1  C   UNL     1     -10.742   5.603  71.627  1.00  0.00    -0.313 C  
HETATM    2  C   UNL     1     -10.225   5.690  70.147  1.00  0.00    -0.250 C  
HETATM    3  C   UNL     1      -9.776   4.915  72.627  1.00  0.00    -0.184 C  
HETATM    4  O   UNL     1      -9.039   6.474  70.082  1.00  0.00    -0.153 OA 
HETATM    5  C   UNL     1      -9.886   4.270  69.590  1.00  0.00    -0.244 C  
HETATM    6  C   UNL     1      -8.705   5.806  73.269  1.00  0.00    -0.118 C  
HETATM    7  C   UNL     1     -11.279   6.339  69.223  1.00  0.00    -0.458 C  
HETATM    8  C   UNL     1     -11.256   6.930  72.241  1.00  0.00    -0.299 C  
HETATM    9  H   UNL     1      -8.726   6.527  69.187  1.00  0.00     0.000 HD 
HETATM   10  C   UNL     1      -9.131   7.222  73.535  1.00  0.00    -0.226 C  
HETATM   11  C   UNL     1      -8.223   8.062  74.389  1.00  0.00    -0.284 C  
HETATM   12  C   UNL     1     -10.286   7.714  73.065  1.00  0.00    -0.393 C  
ENDROOT
BRANCH   5  13
HETATM   13  C   UNL     1      -9.474   4.248  68.105  1.00  0.00    -0.213 C  
BRANCH  13  14
HETATM   14  C   UNL     1      -7.995   4.047  67.903  1.00  0.00    -0.089 C  
HETATM   15  C   UNL     1      -7.206   4.884  67.202  1.00  0.00    -0.077 C  
HETATM   16  C   UNL     1      -7.694   6.148  66.544  1.00  0.00    -0.103 C  
HETATM   17  C   UNL     1      -5.734   4.607  67.017  1.00  0.00    -0.022 C  
ENDBRANCH  13  14
ENDBRANCH   5  13
TORSDOF 2
ENDMDL
MODEL      122
REMARK 921   NORMALIZED FREE ENERGY PREDICTED BY IDOCK:   -3.18 KCAL/MOL
REMARK 922        TOTAL FREE ENERGY PREDICTED BY IDOCK:   -3.83 KCAL/MOL
REMARK 923 INTER-LIGAND FREE ENERGY PREDICTED BY IDOCK:   -3.73 KCAL/MOL
REMARK 924 INTRA-LIGAND FREE ENERGY PREDICTED BY IDOCK:   -0.10 KCAL/MOL
REMARK 927      BINDING AFFINITY PREDICTED BY RF-SCORE:    0.00 PKD
ROOT
HETATM    1  C   UNL     1     -10.621   7.816  68.540  1.00  0.00    -0.153 C  
HETATM    2  C   UNL     1     -10.064   9.284  68.516  1.00  0.00    -0.190 C  
HETATM    3  C   UNL     1     -10.864   7.176  67.148  1.00  0.00    -0.403 C  
HETATM    4  O   UNL     1      -8.787   9.318  67.889  1.00  0.00    -0.124 OA 
HETATM    5  C   UNL     1     -11.013  10.228  67.710  1.00  0.00    -0.360 C  
HETATM    6  C   UNL     1      -9.659   6.491  66.489  1.00  0.00    -0.184 C  
HETATM    7  C   UNL     1      -9.911   9.848  69.946  1.00  0.00    -0.292 C  
HETATM    8  C   UNL     1      -9.848   6.816  69.436  1.00  0.00    -0.162 C  
HETATM    9  H   UNL     1      -8.449  10.206  67.874  1.00  0.00     0.000 HD 
HETATM   10  C   UNL     1      -8.714   5.813  67.440  1.00  0.00    -0.107 C  
HETATM   11  C   UNL     1      -7.667   4.915  66.842  1.00  0.00    -0.092 C  
HETATM   12  C   UNL     1      -8.812   5.969  68.768  1.00  0.00    -0.116 C  
ENDROOT
BRANCH   5  13
HETATM   13  C   UNL     1     -10.602  11.713  67.726  1.00  0.00    -0.227 C  
BRANCH  13  14
HETATM   14  C   UNL     1     -10.939  12.436  66.449  1.00  0.00    -0.315 C  
HETATM   15  C   UNL     1     -10.408  12.139  65.248  1.00  0.00    -0.310 C  
HETATM   16  C   UNL     1      -9.418  11.027  65.016  1.00  0.00    -0.269 C  
HETATM   17  C   UNL     1     -10.773  12.924  64.011  1.00  0.00    -0.429 C  
ENDBRANCH  13  14
ENDBRANCH   5  13
TORSDOF 2
ENDMDL
MODEL      123
REMARK 921   NORMALIZED FREE ENERGY PREDICTED BY IDOCK:   -3.15 KCAL/MOL
REMARK 922        TOTAL FREE ENERGY PREDICTED BY IDOCK:   -3.80 KCAL/MOL
REMARK 923 INTER-LIGAND FREE ENERGY PREDICTED BY IDOCK:   -4.38 KCAL/MOL
REMARK 924 INTRA-LIGAND FREE ENERGY PREDICTED BY IDOCK:    0.58 KCAL/MOL
REMARK 927      BINDING AFFINITY PREDICTED BY RF-SCORE:    0.00 PKD
ROOT
HETATM    1  C   UNL     1     -11.589  11.045  67.808  1.00  0.00    -0.277 C  
HETATM    2  C   UNL     1     -11.339  11.728  69.200  1.00  0.00    -0.279 C  
HETATM    3  C   UNL     1     -11.208  11.902  66.572  1.00  0.00    -0.383 C  
HETATM    4  O   UNL     1      -9.952  11.998  69.376  1.00  0.00    -0.290 OA 
HETATM    5  C   UNL     1     -12.103  13.087  69.300  1.00  0.00    -0.251 C  
HETATM    6  C   UNL     1      -9.745  11.831  66.114  1.00  0.00    -0.250 C  
HETATM    7  C   UNL     1     -11.803  10.819  70.360  1.00  0.00    -0.450 C  
HETATM    8  C   UNL     1     -11.009   9.618  67.642  1.00  0.00    -0.190 C  
HETATM    9  H   UNL     1      -9.801  12.411  70.219  1.00  0.00     0.000 HD 
HETATM   10  C   UNL     1      -9.084  10.494  66.298  1.00  0.00    -0.184 C  
HETATM   11  C   UNL     1      -7.749  10.294  65.638  1.00  0.00    -0.148 C  
HETATM   12  C   UNL     1      -9.668   9.505  66.989  1.00  0.00    -0.229 C  
ENDROOT
BRANCH   5  13
HETATM   13  C   UNL     1     -12.004  13.776  70.675  1.00  0.00    -0.340 C  
BRANCH  13  14
HETATM   14  C   UNL     1     -11.289  15.100  70.625  1.00  0.00    -0.330 C  
HETATM   15  C   UNL     1     -11.053  15.791  69.494  1.00  0.00    -0.306 C  
HETATM   16  C   UNL     1     -11.493  15.342  68.125  1.00  0.00    -0.357 C  
HETATM   17  C   UNL     1     -10.306  17.103  69.514  1.00  0.00    -0.117 C  
ENDBRANCH  13  14
ENDBRANCH   5  13
TORSDOF 2
ENDMDL
MODEL      124
REMARK 921   NORMALIZED FREE ENERGY PREDICTED BY IDOCK:   -3.14 KCAL/MOL
REMARK 922        TOTAL FREE ENERGY PREDICTED BY IDOCK:   -3.78 KCAL/MOL
REMARK 923 INTER-LIGAND FREE ENERGY PREDICTED BY IDOCK:   -3.46 KCAL/MOL
REMARK 924 INTRA-LIGAND FREE ENERGY PREDICTED BY IDOCK:   -0.32 KCAL/MOL
REMARK 927      BINDING AFFINITY PREDICTED BY RF-SCORE:    0.00 PKD
ROOT
HETATM    1  C   UNL     1     -10.541   9.139  67.757  1.00  0.00    -0.289 C  
HETATM    2  C   UNL     1     -10.274   7.627  68.089  1.00  0.00    -0.196 C  
HETATM    3  C   UNL     1     -10.038  10.150  68.821  1.00  0.00    -0.198 C  
HETATM    4  O   UNL     1      -8.875   7.379  68.173  1.00  0.00    -0.128 OA 
HETATM    5  C   UNL     1     -10.908   7.238  69.463  1.00  0.00    -0.224 C  
HETATM    6  C   UNL     1      -8.574  10.594  68.706  1.00  0.00    -0.150 C  
HETATM    7  C   UNL     1     -10.861   6.703  67.000  1.00  0.00    -0.467 C  
HETATM    8  C   UNL     1     -10.094   9.609  66.350  1.00  0.00    -0.317 C  
HETATM    9  H   UNL     1      -8.713   6.464  68.374  1.00  0.00     0.000 HD 
HETATM   10  C   UNL     1      -8.050  10.703  67.302  1.00  0.00    -0.116 C  
HETATM   11  C   UNL     1      -6.719  11.375  67.117  1.00  0.00    -0.121 C  
HETATM   12  C   UNL     1      -8.748  10.255  66.249  1.00  0.00    -0.157 C  
ENDROOT
BRANCH   5  13
HETATM   13  C   UNL     1     -10.790   5.743  69.820  1.00  0.00    -0.419 C  
BRANCH  13  14
HETATM   14  C   UNL     1     -10.422   5.504  71.260  1.00  0.00    -0.306 C  
HETATM   15  C   UNL     1      -9.270   4.935  71.663  1.00  0.00    -0.179 C  
HETATM   16  C   UNL     1      -8.183   4.478  70.725  1.00  0.00    -0.080 C  
HETATM   17  C   UNL     1      -8.977   4.702  73.125  1.00  0.00    -0.119 C  
ENDBRANCH  13  14
ENDBRANCH   5  13
TORSDOF 2
ENDMDL
MODEL      125
REMARK 921   NORMALIZED FREE ENERGY PREDICTED BY IDOCK:   -3.14 KCAL/MOL
REMARK 922        TOTAL FREE ENERGY PREDICTED BY IDOCK:   -3.78 KCAL/MOL
REMARK 923 INTER-LIGAND FREE ENERGY PREDICTED BY IDOCK:   -3.54 KCAL/MOL
REMARK 924 INTRA-LIGAND FREE ENERGY PREDICTED BY IDOCK:   -0.24 KCAL/MOL
REMARK 927      BINDING AFFINITY PREDICTED BY RF-SCORE:    0.00 PKD
ROOT
HETATM    1  C   UNL     1      -9.296   5.378  66.853  1.00  0.00    -0.127 C  
HETATM    2  C   UNL     1      -8.810   6.811  66.432  1.00  0.00    -0.144 C  
HETATM    3  C   UNL     1     -10.588   4.883  66.150  1.00  0.00    -0.322 C  
HETATM    4  O   UNL     1      -8.484   6.835  65.046  1.00  0.00    -0.291 OA 
HETATM    5  C   UNL     1      -9.930   7.874  66.674  1.00  0.00    -0.316 C  
HETATM    6  C   UNL     1     -10.407   4.199  64.789  1.00  0.00    -0.206 C  
HETATM    7  C   UNL     1      -7.555   7.233  67.227  1.00  0.00    -0.104 C  
HETATM    8  C   UNL     1      -8.224   4.261  66.804  1.00  0.00    -0.101 C  
HETATM    9  H   UNL     1      -8.190   7.702  64.791  1.00  0.00     0.000 HD 
HETATM   10  C   UNL     1      -9.150   3.387  64.646  1.00  0.00    -0.133 C  
HETATM   11  C   UNL     1      -9.044   2.494  63.443  1.00  0.00    -0.092 C  
HETATM   12  C   UNL     1      -8.175   3.425  65.565  1.00  0.00    -0.097 C  
ENDROOT
BRANCH   5  13
HETATM   13  C   UNL     1      -9.503   9.327  66.390  1.00  0.00    -0.277 C  
BRANCH  13  14
HETATM   14  C   UNL     1     -10.072   9.873  65.108  1.00  0.00    -0.177 C  
HETATM   15  C   UNL     1     -10.346  11.174  64.894  1.00  0.00    -0.375 C  
HETATM   16  C   UNL     1     -10.098  12.264  65.905  1.00  0.00    -0.272 C  
HETATM   17  C   UNL     1     -10.940  11.649  63.591  1.00  0.00    -0.507 C  
ENDBRANCH  13  14
ENDBRANCH   5  13
TORSDOF 2
ENDMDL
MODEL      126
REMARK 921   NORMALIZED FREE ENERGY PREDICTED BY IDOCK:   -3.11 KCAL/MOL
REMARK 922        TOTAL FREE ENERGY PREDICTED BY IDOCK:   -3.75 KCAL/MOL
REMARK 923 INTER-LIGAND FREE ENERGY PREDICTED BY IDOCK:   -3.40 KCAL/MOL
REMARK 924 INTRA-LIGAND FREE ENERGY PREDICTED BY IDOCK:   -0.35 KCAL/MOL
REMARK 927      BINDING AFFINITY PREDICTED BY RF-SCORE:    0.00 PKD
ROOT
HETATM    1  C   UNL     1      -9.517   7.255  69.211  1.00  0.00    -0.153 C  
HETATM    2  C   UNL     1      -9.556   8.163  67.931  1.00  0.00    -0.155 C  
HETATM    3  C   UNL     1      -9.044   7.960  70.510  1.00  0.00    -0.154 C  
HETATM    4  O   UNL     1     -10.484   9.229  68.108  1.00  0.00    -0.207 OA 
HETATM    5  C   UNL     1      -8.154   8.796  67.654  1.00  0.00    -0.106 C  
HETATM    6  C   UNL     1     -10.118   8.700  71.317  1.00  0.00    -0.312 C  
HETATM    7  C   UNL     1      -9.984   7.357  66.685  1.00  0.00    -0.261 C  
HETATM    8  C   UNL     1     -10.807   6.449  69.505  1.00  0.00    -0.381 C  
HETATM    9  H   UNL     1     -10.507   9.778  67.333  1.00  0.00     0.000 HD 
HETATM   10  C   UNL     1     -11.481   8.069  71.294  1.00  0.00    -0.299 C  
HETATM   11  C   UNL     1     -12.499   8.600  72.264  1.00  0.00    -0.460 C  
HETATM   12  C   UNL     1     -11.777   7.053  70.471  1.00  0.00    -0.359 C  
ENDROOT
BRANCH   5  13
HETATM   13  C   UNL     1      -8.071   9.618  66.352  1.00  0.00    -0.112 C  
BRANCH  13  14
HETATM   14  C   UNL     1      -6.929   9.204  65.462  1.00  0.00    -0.081 C  
HETATM   15  C   UNL     1      -7.028   9.047  64.128  1.00  0.00    -0.094 C  
HETATM   16  C   UNL     1      -8.292   9.285  63.343  1.00  0.00    -0.193 C  
HETATM   17  C   UNL     1      -5.847   8.604  63.298  1.00  0.00    -0.077 C  
ENDBRANCH  13  14
ENDBRANCH   5  13
TORSDOF 2
ENDMDL
MODEL      127
REMARK 921   NORMALIZED FREE ENERGY PREDICTED BY IDOCK:   -3.08 KCAL/MOL
REMARK 922        TOTAL FREE ENERGY PREDICTED BY IDOCK:   -3.72 KCAL/MOL
REMARK 923 INTER-LIGAND FREE ENERGY PREDICTED BY IDOCK:   -3.57 KCAL/MOL
REMARK 924 INTRA-LIGAND FREE ENERGY PREDICTED BY IDOCK:   -0.15 KCAL/MOL
REMARK 927      BINDING AFFINITY PREDICTED BY RF-SCORE:    0.00 PKD
ROOT
HETATM    1  C   UNL     1      -9.547  10.633  66.731  1.00  0.00    -0.200 C  
HETATM    2  C   UNL     1      -9.745   9.557  67.857  1.00  0.00    -0.147 C  
HETATM    3  C   UNL     1      -8.694  11.864  67.134  1.00  0.00    -0.176 C  
HETATM    4  O   UNL     1      -8.490   9.002  68.237  1.00  0.00    -0.127 OA 
HETATM    5  C   UNL     1     -10.387  10.193  69.131  1.00  0.00    -0.237 C  
HETATM    6  C   UNL     1      -7.174  11.723  66.982  1.00  0.00    -0.134 C  
HETATM    7  C   UNL     1     -10.653   8.403  67.376  1.00  0.00    -0.313 C  
HETATM    8  C   UNL     1      -9.059  10.096  65.362  1.00  0.00    -0.227 C  
HETATM    9  H   UNL     1      -8.609   8.351  68.918  1.00  0.00     0.000 HD 
HETATM   10  C   UNL     1      -6.725  10.882  65.820  1.00  0.00     0.006 C  
HETATM   11  C   UNL     1      -5.264  10.919  65.471  1.00  0.00    -0.136 C  
HETATM   12  C   UNL     1      -7.588  10.154  65.098  1.00  0.00    -0.141 C  
ENDROOT
BRANCH   5  13
HETATM   13  C   UNL     1     -10.718   9.187  70.251  1.00  0.00    -0.268 C  
BRANCH  13  14
HETATM   14  C   UNL     1      -9.611   9.035  71.259  1.00  0.00    -0.361 C  
HETATM   15  C   UNL     1      -9.734   8.371  72.425  1.00  0.00    -0.376 C  
HETATM   16  C   UNL     1     -10.993   7.671  72.867  1.00  0.00    -0.456 C  
HETATM   17  C   UNL     1      -8.589   8.281  73.403  1.00  0.00    -0.277 C  
ENDBRANCH  13  14
ENDBRANCH   5  13
TORSDOF 2
ENDMDL
MODEL      128
REMARK 921   NORMALIZED FREE ENERGY PREDICTED BY IDOCK:   -3.08 KCAL/MOL
REMARK 922        TOTAL FREE ENERGY PREDICTED BY IDOCK:   -3.72 KCAL/MOL
REMARK 923 INTER-LIGAND FREE ENERGY PREDICTED BY IDOCK:   -3.39 KCAL/MOL
REMARK 924 INTRA-LIGAND FREE ENERGY PREDICTED BY IDOCK:   -0.33 KCAL/MOL
REMARK 927      BINDING AFFINITY PREDICTED BY RF-SCORE:    0.00 PKD
ROOT
HETATM    1  C   UNL     1     -10.328   9.744  66.333  1.00  0.00    -0.247 C  
HETATM    2  C   UNL     1     -10.054  10.612  67.613  1.00  0.00    -0.177 C  
HETATM    3  C   UNL     1     -10.455  10.541  65.008  1.00  0.00    -0.221 C  
HETATM    4  O   UNL     1      -8.809  11.291  67.494  1.00  0.00    -0.138 OA 
HETATM    5  C   UNL     1     -11.167  11.691  67.804  1.00  0.00    -0.333 C  
HETATM    6  C   UNL     1      -9.147  10.853  64.268  1.00  0.00    -0.168 C  
HETATM    7  C   UNL     1     -10.001   9.734  68.883  1.00  0.00    -0.183 C  
HETATM    8  C   UNL     1      -9.377   8.540  66.119  1.00  0.00    -0.279 C  
HETATM    9  H   UNL     1      -8.644  11.816  68.268  1.00  0.00     0.000 HD 
HETATM   10  C   UNL     1      -8.086   9.794  64.375  1.00  0.00    -0.150 C  
HETATM   11  C   UNL     1      -6.895   9.924  63.469  1.00  0.00    -0.123 C  
HETATM   12  C   UNL     1      -8.205   8.755  65.214  1.00  0.00    -0.145 C  
ENDROOT
BRANCH   5  13
HETATM   13  C   UNL     1     -11.040  12.519  69.098  1.00  0.00    -0.254 C  
BRANCH  13  14
HETATM   14  C   UNL     1     -11.362  13.977  68.904  1.00  0.00    -0.314 C  
HETATM   15  C   UNL     1     -10.449  14.966  68.946  1.00  0.00    -0.242 C  
HETATM   16  C   UNL     1      -8.976  14.744  69.171  1.00  0.00    -0.078 C  
HETATM   17  C   UNL     1     -10.847  16.411  68.768  1.00  0.00    -0.338 C  
ENDBRANCH  13  14
ENDBRANCH   5  13
TORSDOF 2
ENDMDL
MODEL      129
REMARK 921   NORMALIZED FREE ENERGY PREDICTED BY IDOCK:   -3.04 KCAL/MOL
REMARK 922        TOTAL FREE ENERGY PREDICTED BY IDOCK:   -3.68 KCAL/MOL
REMARK 923 INTER-LIGAND FREE ENERGY PREDICTED BY IDOCK:   -3.36 KCAL/MOL
REMARK 924 INTRA-LIGAND FREE ENERGY PREDICTED BY IDOCK:   -0.32 KCAL/MOL
REMARK 927      BINDING AFFINITY PREDICTED BY RF-SCORE:    0.00 PKD
ROOT
HETATM    1  C   UNL     1     -10.858   6.745  68.278  1.00  0.00    -0.290 C  
HETATM    2  C   UNL     1     -10.254   6.646  69.724  1.00  0.00    -0.187 C  
HETATM    3  C   UNL     1     -10.656   8.109  67.567  1.00  0.00    -0.291 C  
HETATM    4  O   UNL     1      -8.840   6.812  69.681  1.00  0.00    -0.142 OA 
HETATM    5  C   UNL     1     -10.835   7.762  70.649  1.00  0.00    -0.241 C  
HETATM    6  C   UNL     1      -9.337   8.297  66.808  1.00  0.00    -0.232 C  
HETATM    7  C   UNL     1     -10.556   5.273  70.364  1.00  0.00    -0.278 C  
HETATM    8  C   UNL     1     -10.476   5.599  67.307  1.00  0.00    -0.322 C  
HETATM    9  H   UNL     1      -8.475   6.752  70.556  1.00  0.00     0.000 HD 
HETATM   10  C   UNL     1      -8.794   7.057  66.156  1.00  0.00    -0.165 C  
HETATM   11  C   UNL     1      -7.654   7.232  65.193  1.00  0.00    -0.105 C  
HETATM   12  C   UNL     1      -9.320   5.846  66.391  1.00  0.00    -0.171 C  
ENDROOT
BRANCH   5  13
HETATM   13  C   UNL     1     -10.380   7.675  72.119  1.00  0.00    -0.270 C  
BRANCH  13  14
HETATM   14  C   UNL     1      -9.065   8.363  72.375  1.00  0.00    -0.326 C  
HETATM   15  C   UNL     1      -7.976   7.752  72.878  1.00  0.00    -0.162 C  
HETATM   16  C   UNL     1      -7.918   6.289  73.231  1.00  0.00    -0.105 C  
HETATM   17  C   UNL     1      -6.696   8.511  73.134  1.00  0.00    -0.074 C  
ENDBRANCH  13  14
ENDBRANCH   5  13
TORSDOF 2
ENDMDL
MODEL      130
REMARK 921   NORMALIZED FREE ENERGY PREDICTED BY IDOCK:   -3.02 KCAL/MOL
REMARK 922        TOTAL FREE ENERGY PREDICTED BY IDOCK:   -3.65 KCAL/MOL
REMARK 923 INTER-LIGAND FREE ENERGY PREDICTED BY IDOCK:   -3.26 KCAL/MOL
REMARK 924 INTRA-LIGAND FREE ENERGY PREDICTED BY IDOCK:   -0.39 KCAL/MOL
REMARK 927      BINDING AFFINITY PREDICTED BY RF-SCORE:    0.00 PKD
ROOT
HETATM    1  C   UNL     1      -9.627   9.500  67.996  1.00  0.00    -0.155 C  
HETATM    2  C   UNL     1      -9.698   8.427  66.851  1.00  0.00    -0.227 C  
HETATM    3  C   UNL     1      -8.733  10.731  67.695  1.00  0.00    -0.126 C  
HETATM    4  O   UNL     1     -10.268   8.994  65.676  1.00  0.00    -0.321 OA 
HETATM    5  C   UNL     1      -8.271   7.909  66.483  1.00  0.00    -0.113 C  
HETATM    6  C   UNL     1      -9.393  11.887  66.932  1.00  0.00    -0.198 C  
HETATM    7  C   UNL     1     -10.565   7.218  67.269  1.00  0.00    -0.395 C  
HETATM    8  C   UNL     1     -10.990   9.979  68.555  1.00  0.00    -0.255 C  
HETATM    9  H   UNL     1     -10.310   8.345  64.983  1.00  0.00     0.000 HD 
HETATM   10  C   UNL     1     -10.846  12.109  67.243  1.00  0.00    -0.286 C  
HETATM   11  C   UNL     1     -11.472  13.373  66.726  1.00  0.00    -0.376 C  
HETATM   12  C   UNL     1     -11.553  11.239  67.978  1.00  0.00    -0.343 C  
ENDROOT
BRANCH   5  13
HETATM   13  C   UNL     1      -8.252   6.772  65.443  1.00  0.00    -0.134 C  
BRANCH  13  14
HETATM   14  C   UNL     1      -7.260   5.687  65.767  1.00  0.00    -0.072 C  
HETATM   15  C   UNL     1      -7.599   4.443  66.159  1.00  0.00    -0.086 C  
HETATM   16  C   UNL     1      -9.019   3.963  66.304  1.00  0.00    -0.132 C  
HETATM   17  C   UNL     1      -6.550   3.411  66.493  1.00  0.00    -0.041 C  
ENDBRANCH  13  14
ENDBRANCH   5  13
TORSDOF 2
ENDMDL
MODEL      131
REMARK 921   NORMALIZED FREE ENERGY PREDICTED BY IDOCK:   -2.99 KCAL/MOL
REMARK 922        TOTAL FREE ENERGY PREDICTED BY IDOCK:   -3.62 KCAL/MOL
REMARK 923 INTER-LIGAND FREE ENERGY PREDICTED BY IDOCK:   -3.35 KCAL/MOL
REMARK 924 INTRA-LIGAND FREE ENERGY PREDICTED BY IDOCK:   -0.27 KCAL/MOL
REMARK 927      BINDING AFFINITY PREDICTED BY RF-SCORE:    0.00 PKD
ROOT
HETATM    1  C   UNL     1      -9.032   6.500  68.083  1.00  0.00    -0.116 C  
HETATM    2  C   UNL     1      -9.684   7.918  67.912  1.00  0.00    -0.155 C  
HETATM    3  C   UNL     1      -7.793   6.449  69.015  1.00  0.00    -0.110 C  
HETATM    4  O   UNL     1     -10.169   8.394  69.163  1.00  0.00    -0.202 OA 
HETATM    5  C   UNL     1      -8.639   8.953  67.384  1.00  0.00    -0.119 C  
HETATM    6  C   UNL     1      -8.070   6.277  70.514  1.00  0.00    -0.113 C  
HETATM    7  C   UNL     1     -10.871   7.874  66.924  1.00  0.00    -0.050 C  
HETATM    8  C   UNL     1     -10.003   5.352  68.455  1.00  0.00    -0.223 C  
HETATM    9  H   UNL     1     -10.563   9.252  69.060  1.00  0.00     0.000 HD 
HETATM   10  C   UNL     1      -9.261   5.423  70.848  1.00  0.00    -0.183 C  
HETATM   11  C   UNL     1      -9.428   5.010  72.283  1.00  0.00    -0.169 C  
HETATM   12  C   UNL     1     -10.124   5.012  69.907  1.00  0.00    -0.344 C  
ENDROOT
BRANCH   5  13
HETATM   13  C   UNL     1      -9.219  10.349  67.082  1.00  0.00    -0.159 C  
BRANCH  13  14
HETATM   14  C   UNL     1      -9.287  10.658  65.610  1.00  0.00    -0.239 C  
HETATM   15  C   UNL     1     -10.303  11.315  65.020  1.00  0.00    -0.359 C  
HETATM   16  C   UNL     1     -11.502  11.850  65.759  1.00  0.00    -0.326 C  
HETATM   17  C   UNL     1     -10.319  11.568  63.532  1.00  0.00    -0.484 C  
ENDBRANCH  13  14
ENDBRANCH   5  13
TORSDOF 2
ENDMDL
MODEL      132
REMARK 921   NORMALIZED FREE ENERGY PREDICTED BY IDOCK:   -2.99 KCAL/MOL
REMARK 922        TOTAL FREE ENERGY PREDICTED BY IDOCK:   -3.62 KCAL/MOL
REMARK 923 INTER-LIGAND FREE ENERGY PREDICTED BY IDOCK:   -3.37 KCAL/MOL
REMARK 924 INTRA-LIGAND FREE ENERGY PREDICTED BY IDOCK:   -0.25 KCAL/MOL
REMARK 927      BINDING AFFINITY PREDICTED BY RF-SCORE:    0.00 PKD
ROOT
HETATM    1  C   UNL     1     -10.273  15.454  65.218  1.00  0.00    -0.390 C  
HETATM    2  C   UNL     1     -10.297  15.761  66.758  1.00  0.00    -0.293 C  
HETATM    3  C   UNL     1      -9.744  14.048  64.831  1.00  0.00     0.211 C  
HETATM    4  O   UNL     1     -11.174  14.862  67.428  1.00  0.00    -0.318 OA 
HETATM    5  C   UNL     1      -8.875  15.592  67.383  1.00  0.00    -0.203 C  
HETATM    6  C   UNL     1     -10.768  12.905  64.836  1.00  0.00    -0.333 C  
HETATM    7  C   UNL     1     -10.785  17.201  67.034  1.00  0.00    -0.149 C  
HETATM    8  C   UNL     1     -11.592  15.734  64.454  1.00  0.00    -0.240 C  
HETATM    9  H   UNL     1     -11.188  15.048  68.360  1.00  0.00     0.000 HD 
HETATM   10  C   UNL     1     -12.158  13.294  64.418  1.00  0.00    -0.471 C  
HETATM   11  C   UNL     1     -13.132  12.180  64.157  1.00  0.00    -0.113 C  
HETATM   12  C   UNL     1     -12.514  14.575  64.249  1.00  0.00    -0.293 C  
ENDROOT
BRANCH   5  13
HETATM   13  C   UNL     1      -8.781  15.980  68.871  1.00  0.00    -0.236 C  
BRANCH  13  14
HETATM   14  C   UNL     1      -8.026  14.975  69.700  1.00  0.00    -0.069 C  
HETATM   15  C   UNL     1      -6.686  14.957  69.833  1.00  0.00    -0.178 C  
HETATM   16  C   UNL     1      -5.762  15.956  69.186  1.00  0.00    -0.116 C  
HETATM   17  C   UNL     1      -5.991  13.903  70.660  1.00  0.00    -0.174 C  
ENDBRANCH  13  14
ENDBRANCH   5  13
TORSDOF 2
ENDMDL
MODEL      133
REMARK 921   NORMALIZED FREE ENERGY PREDICTED BY IDOCK:   -2.97 KCAL/MOL
REMARK 922        TOTAL FREE ENERGY PREDICTED BY IDOCK:   -3.60 KCAL/MOL
REMARK 923 INTER-LIGAND FREE ENERGY PREDICTED BY IDOCK:   -3.34 KCAL/MOL
REMARK 924 INTRA-LIGAND FREE ENERGY PREDICTED BY IDOCK:   -0.26 KCAL/MOL
REMARK 927      BINDING AFFINITY PREDICTED BY RF-SCORE:    0.00 PKD
ROOT
HETATM    1  C   UNL     1      -7.717   8.841  64.865  1.00  0.00    -0.104 C  
HETATM    2  C   UNL     1      -9.014   9.280  65.635  1.00  0.00    -0.199 C  
HETATM    3  C   UNL     1      -6.759   7.912  65.657  1.00  0.00    -0.045 C  
HETATM    4  O   UNL     1      -9.811   8.144  65.950  1.00  0.00    -0.451 OA 
HETATM    5  C   UNL     1      -8.651   9.992  66.978  1.00  0.00    -0.126 C  
HETATM    6  C   UNL     1      -7.059   6.409  65.597  1.00  0.00    -0.065 C  
HETATM    7  C   UNL     1      -9.869  10.246  64.785  1.00  0.00    -0.403 C  
HETATM    8  C   UNL     1      -7.939   8.260  63.446  1.00  0.00    -0.155 C  
HETATM    9  H   UNL     1     -10.595   8.410  66.416  1.00  0.00     0.000 HD 
HETATM   10  C   UNL     1      -7.620   5.922  64.290  1.00  0.00    -0.088 C  
HETATM   11  C   UNL     1      -7.689   4.435  64.085  1.00  0.00    -0.080 C  
HETATM   12  C   UNL     1      -8.012   6.771  63.329  1.00  0.00    -0.074 C  
ENDROOT
BRANCH   5  13
HETATM   13  C   UNL     1      -9.860  10.556  67.749  1.00  0.00    -0.188 C  
BRANCH  13  14
HETATM   14  C   UNL     1     -10.057   9.913  69.096  1.00  0.00    -0.210 C  
HETATM   15  C   UNL     1     -11.125  10.128  69.889  1.00  0.00    -0.346 C  
HETATM   16  C   UNL     1     -12.278  11.025  69.524  1.00  0.00    -0.352 C  
HETATM   17  C   UNL     1     -11.245   9.469  71.241  1.00  0.00    -0.452 C  
ENDBRANCH  13  14
ENDBRANCH   5  13
TORSDOF 2
ENDMDL
MODEL      134
REMARK 921   NORMALIZED FREE ENERGY PREDICTED BY IDOCK:   -2.97 KCAL/MOL
REMARK 922        TOTAL FREE ENERGY PREDICTED BY IDOCK:   -3.59 KCAL/MOL
REMARK 923 INTER-LIGAND FREE ENERGY PREDICTED BY IDOCK:   -3.61 KCAL/MOL
REMARK 924 INTRA-LIGAND FREE ENERGY PREDICTED BY IDOCK:    0.02 KCAL/MOL
REMARK 927      BINDING AFFINITY PREDICTED BY RF-SCORE:    0.00 PKD
ROOT
HETATM    1  C   UNL     1      -7.582   8.023  69.450  1.00  0.00    -0.102 C  
HETATM    2  C   UNL     1      -8.554   8.481  70.595  1.00  0.00    -0.148 C  
HETATM    3  C   UNL     1      -7.989   8.464  68.019  1.00  0.00    -0.119 C  
HETATM    4  O   UNL     1      -8.599   9.902  70.667  1.00  0.00    -0.368 OA 
HETATM    5  C   UNL     1     -10.008   7.974  70.328  1.00  0.00    -0.189 C  
HETATM    6  C   UNL     1      -7.527   9.858  67.575  1.00  0.00    -0.091 C  
HETATM    7  C   UNL     1      -8.093   7.945  71.969  1.00  0.00    -0.141 C  
HETATM    8  C   UNL     1      -6.081   8.333  69.676  1.00  0.00    -0.029 C  
HETATM    9  H   UNL     1      -9.187  10.179  71.360  1.00  0.00     0.000 HD 
HETATM   10  C   UNL     1      -6.189  10.286  68.110  1.00  0.00    -0.052 C  
HETATM   11  C   UNL     1      -5.574  11.519  67.510  1.00  0.00    -0.062 C  
HETATM   12  C   UNL     1      -5.549   9.587  69.057  1.00  0.00    -0.036 C  
ENDROOT
BRANCH   5  13
HETATM   13  C   UNL     1     -11.010   8.284  71.458  1.00  0.00    -0.312 C  
BRANCH  13  14
HETATM   14  C   UNL     1     -11.477   9.715  71.460  1.00  0.00    -0.439 C  
HETATM   15  C   UNL     1     -12.737  10.100  71.741  1.00  0.00    -0.534 C  
HETATM   16  C   UNL     1     -13.845   9.150  72.114  1.00  0.00    -0.508 C  
HETATM   17  C   UNL     1     -13.143  11.553  71.699  1.00  0.00    -0.478 C  
ENDBRANCH  13  14
ENDBRANCH   5  13
TORSDOF 2
ENDMDL
MODEL      135
REMARK 921   NORMALIZED FREE ENERGY PREDICTED BY IDOCK:   -2.96 KCAL/MOL
REMARK 922        TOTAL FREE ENERGY PREDICTED BY IDOCK:   -3.58 KCAL/MOL
REMARK 923 INTER-LIGAND FREE ENERGY PREDICTED BY IDOCK:   -3.13 KCAL/MOL
REMARK 924 INTRA-LIGAND FREE ENERGY PREDICTED BY IDOCK:   -0.45 KCAL/MOL
REMARK 927      BINDING AFFINITY PREDICTED BY RF-SCORE:    0.00 PKD
ROOT
HETATM    1  C   UNL     1      -7.868  11.396  67.649  1.00  0.00    -0.122 C  
HETATM    2  C   UNL     1      -7.921  10.383  68.848  1.00  0.00    -0.123 C  
HETATM    3  C   UNL     1      -8.827  11.080  66.471  1.00  0.00    -0.173 C  
HETATM    4  O   UNL     1      -9.216  10.387  69.441  1.00  0.00    -0.251 OA 
HETATM    5  C   UNL     1      -7.627   8.928  68.362  1.00  0.00    -0.091 C  
HETATM    6  C   UNL     1     -10.259  11.615  66.592  1.00  0.00    -0.249 C  
HETATM    7  C   UNL     1      -6.893  10.752  69.939  1.00  0.00    -0.146 C  
HETATM    8  C   UNL     1      -7.992  12.894  68.025  1.00  0.00    -0.158 C  
HETATM    9  H   UNL     1      -9.248   9.774  70.166  1.00  0.00     0.000 HD 
HETATM   10  C   UNL     1     -10.389  12.938  67.294  1.00  0.00    -0.234 C  
HETATM   11  C   UNL     1     -11.721  13.628  67.215  1.00  0.00    -0.416 C  
HETATM   12  C   UNL     1      -9.356  13.502  67.935  1.00  0.00    -0.215 C  
ENDROOT
BRANCH   5  13
HETATM   13  C   UNL     1      -7.551   7.881  69.491  1.00  0.00    -0.099 C  
BRANCH  13  14
HETATM   14  C   UNL     1      -8.789   7.031  69.596  1.00  0.00    -0.141 C  
HETATM   15  C   UNL     1      -9.597   7.000  70.672  1.00  0.00    -0.165 C  
HETATM   16  C   UNL     1      -9.384   7.832  71.910  1.00  0.00    -0.195 C  
HETATM   17  C   UNL     1     -10.810   6.103  70.720  1.00  0.00    -0.350 C  
ENDBRANCH  13  14
ENDBRANCH   5  13
TORSDOF 2
ENDMDL
MODEL      136
REMARK 921   NORMALIZED FREE ENERGY PREDICTED BY IDOCK:   -2.95 KCAL/MOL
REMARK 922        TOTAL FREE ENERGY PREDICTED BY IDOCK:   -3.57 KCAL/MOL
REMARK 923 INTER-LIGAND FREE ENERGY PREDICTED BY IDOCK:   -3.20 KCAL/MOL
REMARK 924 INTRA-LIGAND FREE ENERGY PREDICTED BY IDOCK:   -0.37 KCAL/MOL
REMARK 927      BINDING AFFINITY PREDICTED BY RF-SCORE:    0.00 PKD
ROOT
HETATM    1  C   UNL     1      -9.596  10.157  68.646  1.00  0.00    -0.165 C  
HETATM    2  C   UNL     1      -9.693   9.343  67.307  1.00  0.00    -0.165 C  
HETATM    3  C   UNL     1      -8.622  11.364  68.619  1.00  0.00    -0.126 C  
HETATM    4  O   UNL     1     -10.190  10.170  66.260  1.00  0.00    -0.238 OA 
HETATM    5  C   UNL     1      -8.288   8.819  66.870  1.00  0.00    -0.108 C  
HETATM    6  C   UNL     1      -9.187  12.689  68.093  1.00  0.00    -0.209 C  
HETATM    7  C   UNL     1     -10.643   8.134  67.454  1.00  0.00    -0.325 C  
HETATM    8  C   UNL     1     -10.946  10.601  69.265  1.00  0.00    -0.294 C  
HETATM    9  H   UNL     1     -10.249   9.678  65.450  1.00  0.00     0.000 HD 
HETATM   10  C   UNL     1     -10.634  12.937  68.414  1.00  0.00    -0.267 C  
HETATM   11  C   UNL     1     -11.168  14.317  68.152  1.00  0.00    -0.295 C  
HETATM   12  C   UNL     1     -11.415  11.985  68.944  1.00  0.00    -0.356 C  
ENDROOT
BRANCH   5  13
HETATM   13  C   UNL     1      -8.303   7.915  65.622  1.00  0.00    -0.146 C  
BRANCH  13  14
HETATM   14  C   UNL     1      -7.217   8.250  64.634  1.00  0.00    -0.083 C  
HETATM   15  C   UNL     1      -7.404   8.992  63.526  1.00  0.00    -0.097 C  
HETATM   16  C   UNL     1      -8.723   9.607  63.136  1.00  0.00    -0.236 C  
HETATM   17  C   UNL     1      -6.274   9.267  62.563  1.00  0.00    -0.093 C  
ENDBRANCH  13  14
ENDBRANCH   5  13
TORSDOF 2
ENDMDL
MODEL      137
REMARK 921   NORMALIZED FREE ENERGY PREDICTED BY IDOCK:   -2.93 KCAL/MOL
REMARK 922        TOTAL FREE ENERGY PREDICTED BY IDOCK:   -3.55 KCAL/MOL
REMARK 923 INTER-LIGAND FREE ENERGY PREDICTED BY IDOCK:   -3.23 KCAL/MOL
REMARK 924 INTRA-LIGAND FREE ENERGY PREDICTED BY IDOCK:   -0.31 KCAL/MOL
REMARK 927      BINDING AFFINITY PREDICTED BY RF-SCORE:    0.00 PKD
ROOT
HETATM    1  C   UNL     1      -9.602   4.902  68.579  1.00  0.00    -0.210 C  
HETATM    2  C   UNL     1      -9.336   6.363  69.089  1.00  0.00    -0.132 C  
HETATM    3  C   UNL     1     -10.533   4.791  67.342  1.00  0.00     0.002 C  
HETATM    4  O   UNL     1      -8.675   7.125  68.085  1.00  0.00    -0.128 OA 
HETATM    5  C   UNL     1     -10.678   7.088  69.428  1.00  0.00    -0.259 C  
HETATM    6  C   UNL     1      -9.865   4.931  65.968  1.00  0.00    -0.219 C  
HETATM    7  C   UNL     1      -8.448   6.362  70.353  1.00  0.00    -0.131 C  
HETATM    8  C   UNL     1      -8.343   4.026  68.354  1.00  0.00    -0.100 C  
HETATM    9  H   UNL     1      -8.514   8.009  68.394  1.00  0.00     0.000 HD 
HETATM   10  C   UNL     1      -8.473   4.373  65.876  1.00  0.00    -0.114 C  
HETATM   11  C   UNL     1      -7.873   4.250  64.504  1.00  0.00    -0.085 C  
HETATM   12  C   UNL     1      -7.799   3.968  66.962  1.00  0.00    -0.095 C  
ENDROOT
BRANCH   5  13
HETATM   13  C   UNL     1     -10.508   8.492  70.041  1.00  0.00    -0.226 C  
BRANCH  13  14
HETATM   14  C   UNL     1     -11.772   9.026  70.660  1.00  0.00    -0.237 C  
HETATM   15  C   UNL     1     -12.166   8.766  71.921  1.00  0.00    -0.429 C  
HETATM   16  C   UNL     1     -11.383   7.921  72.891  1.00  0.00    -0.399 C  
HETATM   17  C   UNL     1     -13.461   9.314  72.470  1.00  0.00    -0.471 C  
ENDBRANCH  13  14
ENDBRANCH   5  13
TORSDOF 2
ENDMDL
MODEL      138
REMARK 921   NORMALIZED FREE ENERGY PREDICTED BY IDOCK:   -2.91 KCAL/MOL
REMARK 922        TOTAL FREE ENERGY PREDICTED BY IDOCK:   -3.53 KCAL/MOL
REMARK 923 INTER-LIGAND FREE ENERGY PREDICTED BY IDOCK:   -3.95 KCAL/MOL
REMARK 924 INTRA-LIGAND FREE ENERGY PREDICTED BY IDOCK:    0.42 KCAL/MOL
REMARK 927      BINDING AFFINITY PREDICTED BY RF-SCORE:    0.00 PKD
ROOT
HETATM    1  C   UNL     1     -10.694  13.116  67.361  1.00  0.00    -0.262 C  
HETATM    2  C   UNL     1     -10.417  11.715  68.013  1.00  0.00    -0.194 C  
HETATM    3  C   UNL     1      -9.820  13.457  66.126  1.00  0.00    -0.289 C  
HETATM    4  O   UNL     1     -10.703  10.673  67.086  1.00  0.00    -0.252 OA 
HETATM    5  C   UNL     1      -8.917  11.580  68.430  1.00  0.00    -0.173 C  
HETATM    6  C   UNL     1     -10.328  12.953  64.768  1.00  0.00    -0.345 C  
HETATM    7  C   UNL     1     -11.295  11.496  69.265  1.00  0.00    -0.353 C  
HETATM    8  C   UNL     1     -12.178  13.431  67.044  1.00  0.00    -0.321 C  
HETATM    9  H   UNL     1     -10.535   9.825  67.480  1.00  0.00     0.000 HD 
HETATM   10  C   UNL     1     -11.823  12.936  64.613  1.00  0.00    -0.422 C  
HETATM   11  C   UNL     1     -12.366  12.702  63.232  1.00  0.00    -0.453 C  
HETATM   12  C   UNL     1     -12.644  13.155  65.650  1.00  0.00    -0.414 C  
ENDROOT
BRANCH   5  13
HETATM   13  C   UNL     1      -8.577  10.276  69.178  1.00  0.00    -0.167 C  
BRANCH  13  14
HETATM   14  C   UNL     1      -7.245   9.697  68.784  1.00  0.00    -0.072 C  
HETATM   15  C   UNL     1      -6.700   9.816  67.559  1.00  0.00    -0.070 C  
HETATM   16  C   UNL     1      -7.341  10.565  66.420  1.00  0.00    -0.129 C  
HETATM   17  C   UNL     1      -5.369   9.185  67.225  1.00  0.00    -0.037 C  
ENDBRANCH  13  14
ENDBRANCH   5  13
TORSDOF 2
ENDMDL
MODEL      139
REMARK 921   NORMALIZED FREE ENERGY PREDICTED BY IDOCK:   -2.89 KCAL/MOL
REMARK 922        TOTAL FREE ENERGY PREDICTED BY IDOCK:   -3.50 KCAL/MOL
REMARK 923 INTER-LIGAND FREE ENERGY PREDICTED BY IDOCK:   -3.18 KCAL/MOL
REMARK 924 INTRA-LIGAND FREE ENERGY PREDICTED BY IDOCK:   -0.33 KCAL/MOL
REMARK 927      BINDING AFFINITY PREDICTED BY RF-SCORE:    0.00 PKD
ROOT
HETATM    1  C   UNL     1     -10.542   8.182  69.367  1.00  0.00    -0.206 C  
HETATM    2  C   UNL     1      -9.008   8.518  69.323  1.00  0.00    -0.146 C  
HETATM    3  C   UNL     1     -10.902   6.695  69.109  1.00  0.00    -0.329 C  
HETATM    4  O   UNL     1      -8.317   7.809  70.346  1.00  0.00    -0.119 OA 
HETATM    5  C   UNL     1      -8.385   8.101  67.952  1.00  0.00    -0.129 C  
HETATM    6  C   UNL     1     -10.871   5.762  70.326  1.00  0.00    -0.373 C  
HETATM    7  C   UNL     1      -8.759  10.028  69.534  1.00  0.00    -0.205 C  
HETATM    8  C   UNL     1     -11.307   8.687  70.616  1.00  0.00    -0.277 C  
HETATM    9  H   UNL     1      -7.389   8.012  70.319  1.00  0.00     0.000 HD 
HETATM   10  C   UNL     1     -11.292   6.392  71.623  1.00  0.00    -0.339 C  
HETATM   11  C   UNL     1     -11.528   5.472  72.788  1.00  0.00    -0.339 C  
HETATM   12  C   UNL     1     -11.486   7.714  71.738  1.00  0.00    -0.302 C  
ENDROOT
BRANCH   5  13
HETATM   13  C   UNL     1      -6.905   8.493  67.778  1.00  0.00    -0.067 C  
BRANCH  13  14
HETATM   14  C   UNL     1      -6.490   8.621  66.336  1.00  0.00    -0.062 C  
HETATM   15  C   UNL     1      -6.715   9.711  65.578  1.00  0.00    -0.085 C  
HETATM   16  C   UNL     1      -7.393  10.960  66.077  1.00  0.00    -0.081 C  
HETATM   17  C   UNL     1      -6.294   9.761  64.129  1.00  0.00    -0.118 C  
ENDBRANCH  13  14
ENDBRANCH   5  13
TORSDOF 2
ENDMDL
MODEL      140
REMARK 921   NORMALIZED FREE ENERGY PREDICTED BY IDOCK:   -2.88 KCAL/MOL
REMARK 922        TOTAL FREE ENERGY PREDICTED BY IDOCK:   -3.50 KCAL/MOL
REMARK 923 INTER-LIGAND FREE ENERGY PREDICTED BY IDOCK:   -3.13 KCAL/MOL
REMARK 924 INTRA-LIGAND FREE ENERGY PREDICTED BY IDOCK:   -0.37 KCAL/MOL
REMARK 927      BINDING AFFINITY PREDICTED BY RF-SCORE:    0.00 PKD
ROOT
HETATM    1  C   UNL     1      -9.812   5.914  66.563  1.00  0.00    -0.189 C  
HETATM    2  C   UNL     1      -9.480   7.360  67.076  1.00  0.00    -0.158 C  
HETATM    3  C   UNL     1      -8.782   5.309  65.573  1.00  0.00    -0.149 C  
HETATM    4  O   UNL     1      -8.256   7.358  67.804  1.00  0.00    -0.117 OA 
HETATM    5  C   UNL     1      -9.319   8.353  65.881  1.00  0.00    -0.205 C  
HETATM    6  C   UNL     1      -7.576   4.592  66.192  1.00  0.00    -0.090 C  
HETATM    7  C   UNL     1     -10.591   7.893  68.009  1.00  0.00    -0.194 C  
HETATM    8  C   UNL     1     -10.146   4.870  67.658  1.00  0.00    -0.172 C  
HETATM    9  H   UNL     1      -8.055   8.233  68.114  1.00  0.00     0.000 HD 
HETATM   10  C   UNL     1      -7.859   3.861  67.475  1.00  0.00    -0.086 C  
HETATM   11  C   UNL     1      -6.792   2.936  67.986  1.00  0.00    -0.048 C  
HETATM   12  C   UNL     1      -9.024   3.997  68.124  1.00  0.00    -0.156 C  
ENDROOT
BRANCH   5  13
HETATM   13  C   UNL     1      -9.099   9.822  66.295  1.00  0.00    -0.192 C  
BRANCH  13  14
HETATM   14  C   UNL     1      -9.906  10.796  65.479  1.00  0.00    -0.309 C  
HETATM   15  C   UNL     1     -10.800  11.659  65.997  1.00  0.00    -0.339 C  
HETATM   16  C   UNL     1     -11.099  11.782  67.469  1.00  0.00    -0.330 C  
HETATM   17  C   UNL     1     -11.595  12.592  65.116  1.00  0.00    -0.395 C  
ENDBRANCH  13  14
ENDBRANCH   5  13
TORSDOF 2
ENDMDL
MODEL      141
REMARK 921   NORMALIZED FREE ENERGY PREDICTED BY IDOCK:   -2.88 KCAL/MOL
REMARK 922        TOTAL FREE ENERGY PREDICTED BY IDOCK:   -3.49 KCAL/MOL
REMARK 923 INTER-LIGAND FREE ENERGY PREDICTED BY IDOCK:   -3.26 KCAL/MOL
REMARK 924 INTRA-LIGAND FREE ENERGY PREDICTED BY IDOCK:   -0.23 KCAL/MOL
REMARK 927      BINDING AFFINITY PREDICTED BY RF-SCORE:    0.00 PKD
ROOT
HETATM    1  C   UNL     1     -10.417  14.434  65.970  1.00  0.00    -0.307 C  
HETATM    2  C   UNL     1      -9.889  13.684  67.244  1.00  0.00    -0.241 C  
HETATM    3  C   UNL     1      -9.930  13.861  64.614  1.00  0.00     0.025 C  
HETATM    4  O   UNL     1     -10.348  12.336  67.250  1.00  0.00    -0.212 OA 
HETATM    5  C   UNL     1      -8.327  13.652  67.266  1.00  0.00    -0.182 C  
HETATM    6  C   UNL     1     -10.752  12.707  64.024  1.00  0.00    -0.457 C  
HETATM    7  C   UNL     1     -10.383  14.364  68.540  1.00  0.00    -0.248 C  
HETATM    8  C   UNL     1     -11.948  14.666  65.910  1.00  0.00    -0.242 C  
HETATM    9  H   UNL     1     -10.028  11.882  68.021  1.00  0.00     0.000 HD 
HETATM   10  C   UNL     1     -12.229  12.775  64.290  1.00  0.00    -0.499 C  
HETATM   11  C   UNL     1     -13.108  11.824  63.528  1.00  0.00    -0.055 C  
HETATM   12  C   UNL     1     -12.754  13.665  65.144  1.00  0.00    -0.443 C  
ENDROOT
BRANCH   5  13
HETATM   13  C   UNL     1      -7.718  13.030  68.538  1.00  0.00    -0.111 C  
BRANCH  13  14
HETATM   14  C   UNL     1      -7.194  11.635  68.323  1.00  0.00    -0.085 C  
HETATM   15  C   UNL     1      -6.172  11.095  69.013  1.00  0.00    -0.047 C  
HETATM   16  C   UNL     1      -5.426  11.809  70.111  1.00  0.00    -0.116 C  
HETATM   17  C   UNL     1      -5.680   9.697  68.728  1.00  0.00    -0.039 C  
ENDBRANCH  13  14
ENDBRANCH   5  13
TORSDOF 2
ENDMDL
MODEL      142
REMARK 921   NORMALIZED FREE ENERGY PREDICTED BY IDOCK:   -2.87 KCAL/MOL
REMARK 922        TOTAL FREE ENERGY PREDICTED BY IDOCK:   -3.49 KCAL/MOL
REMARK 923 INTER-LIGAND FREE ENERGY PREDICTED BY IDOCK:   -3.24 KCAL/MOL
REMARK 924 INTRA-LIGAND FREE ENERGY PREDICTED BY IDOCK:   -0.25 KCAL/MOL
REMARK 927      BINDING AFFINITY PREDICTED BY RF-SCORE:    0.00 PKD
ROOT
HETATM    1  C   UNL     1      -7.870  11.597  67.049  1.00  0.00    -0.164 C  
HETATM    2  C   UNL     1      -8.293  10.790  68.328  1.00  0.00    -0.125 C  
HETATM    3  C   UNL     1      -9.040  12.201  66.229  1.00  0.00    -0.141 C  
HETATM    4  O   UNL     1      -8.964  11.641  69.251  1.00  0.00    -0.351 OA 
HETATM    5  C   UNL     1      -9.271   9.630  67.956  1.00  0.00    -0.132 C  
HETATM    6  C   UNL     1      -9.553  13.576  66.678  1.00  0.00    -0.282 C  
HETATM    7  C   UNL     1      -7.064  10.184  69.040  1.00  0.00    -0.072 C  
HETATM    8  C   UNL     1      -6.782  12.680  67.265  1.00  0.00    -0.105 C  
HETATM    9  H   UNL     1      -9.220  11.153  70.025  1.00  0.00     0.000 HD 
HETATM   10  C   UNL     1      -8.503  14.501  67.225  1.00  0.00    -0.234 C  
HETATM   11  C   UNL     1      -8.896  15.935  67.438  1.00  0.00    -0.201 C  
HETATM   12  C   UNL     1      -7.256  14.081  67.484  1.00  0.00    -0.183 C  
ENDROOT
BRANCH   5  13
HETATM   13  C   UNL     1      -9.654   8.715  69.136  1.00  0.00    -0.163 C  
BRANCH  13  14
HETATM   14  C   UNL     1      -9.343   7.263  68.886  1.00  0.00    -0.144 C  
HETATM   15  C   UNL     1     -10.146   6.243  69.247  1.00  0.00    -0.213 C  
HETATM   16  C   UNL     1     -11.477   6.420  69.931  1.00  0.00    -0.483 C  
HETATM   17  C   UNL     1      -9.759   4.808  68.988  1.00  0.00    -0.248 C  
ENDBRANCH  13  14
ENDBRANCH   5  13
TORSDOF 2
ENDMDL
MODEL      143
REMARK 921   NORMALIZED FREE ENERGY PREDICTED BY IDOCK:   -2.86 KCAL/MOL
REMARK 922        TOTAL FREE ENERGY PREDICTED BY IDOCK:   -3.47 KCAL/MOL
REMARK 923 INTER-LIGAND FREE ENERGY PREDICTED BY IDOCK:   -3.54 KCAL/MOL
REMARK 924 INTRA-LIGAND FREE ENERGY PREDICTED BY IDOCK:    0.08 KCAL/MOL
REMARK 927      BINDING AFFINITY PREDICTED BY RF-SCORE:    0.00 PKD
ROOT
HETATM    1  C   UNL     1      -8.630  11.924  67.123  1.00  0.00    -0.172 C  
HETATM    2  C   UNL     1      -9.394  13.162  67.714  1.00  0.00    -0.206 C  
HETATM    3  C   UNL     1      -7.410  11.441  67.952  1.00  0.00    -0.093 C  
HETATM    4  O   UNL     1      -9.943  12.842  68.989  1.00  0.00    -0.417 OA 
HETATM    5  C   UNL     1      -8.429  14.375  67.904  1.00  0.00    -0.165 C  
HETATM    6  C   UNL     1      -7.703  10.458  69.092  1.00  0.00    -0.126 C  
HETATM    7  C   UNL     1     -10.553  13.598  66.790  1.00  0.00    -0.273 C  
HETATM    8  C   UNL     1      -9.509  10.705  66.746  1.00  0.00    -0.189 C  
HETATM    9  H   UNL     1     -10.405  13.591  69.346  1.00  0.00     0.000 HD 
HETATM   10  C   UNL     1      -8.825   9.493  68.830  1.00  0.00    -0.132 C  
HETATM   11  C   UNL     1      -8.987   8.351  69.793  1.00  0.00    -0.146 C  
HETATM   12  C   UNL     1      -9.631   9.618  67.766  1.00  0.00    -0.161 C  
ENDROOT
BRANCH   5  13
HETATM   13  C   UNL     1      -9.116  15.671  68.378  1.00  0.00    -0.190 C  
BRANCH  13  14
HETATM   14  C   UNL     1      -9.544  15.622  69.820  1.00  0.00    -0.192 C  
HETATM   15  C   UNL     1     -10.826  15.583  70.229  1.00  0.00    -0.358 C  
HETATM   16  C   UNL     1     -12.008  15.560  69.295  1.00  0.00    -0.338 C  
HETATM   17  C   UNL     1     -11.185  15.562  71.695  1.00  0.00    -0.388 C  
ENDBRANCH  13  14
ENDBRANCH   5  13
TORSDOF 2
ENDMDL
MODEL      144
REMARK 921   NORMALIZED FREE ENERGY PREDICTED BY IDOCK:   -2.82 KCAL/MOL
REMARK 922        TOTAL FREE ENERGY PREDICTED BY IDOCK:   -3.43 KCAL/MOL
REMARK 923 INTER-LIGAND FREE ENERGY PREDICTED BY IDOCK:   -3.13 KCAL/MOL
REMARK 924 INTRA-LIGAND FREE ENERGY PREDICTED BY IDOCK:   -0.30 KCAL/MOL
REMARK 927      BINDING AFFINITY PREDICTED BY RF-SCORE:    0.00 PKD
ROOT
HETATM    1  C   UNL     1      -9.695   7.291  71.743  1.00  0.00    -0.167 C  
HETATM    2  C   UNL     1      -8.948   8.279  70.776  1.00  0.00    -0.149 C  
HETATM    3  C   UNL     1     -10.958   6.612  71.151  1.00  0.00    -0.302 C  
HETATM    4  O   UNL     1      -8.466   7.581  69.633  1.00  0.00    -0.133 OA 
HETATM    5  C   UNL     1      -9.911   9.403  70.275  1.00  0.00    -0.290 C  
HETATM    6  C   UNL     1     -10.730   5.328  70.344  1.00  0.00    -0.216 C  
HETATM    7  C   UNL     1      -7.742   8.943  71.477  1.00  0.00    -0.097 C  
HETATM    8  C   UNL     1      -8.809   6.220  72.428  1.00  0.00    -0.131 C  
HETATM    9  H   UNL     1      -8.014   8.179  69.048  1.00  0.00     0.000 HD 
HETATM   10  C   UNL     1      -9.606   4.459  70.833  1.00  0.00    -0.255 C  
HETATM   11  C   UNL     1      -9.502   3.078  70.249  1.00  0.00    -0.210 C  
HETATM   12  C   UNL     1      -8.747   4.876  71.775  1.00  0.00    -0.137 C  
ENDROOT
BRANCH   5  13
HETATM   13  C   UNL     1      -9.235  10.482  69.407  1.00  0.00    -0.128 C  
BRANCH  13  14
HETATM   14  C   UNL     1      -9.681  10.451  67.969  1.00  0.00    -0.166 C  
HETATM   15  C   UNL     1     -10.412  11.419  67.382  1.00  0.00    -0.239 C  
HETATM   16  C   UNL     1     -10.864  12.674  68.081  1.00  0.00    -0.250 C  
HETATM   17  C   UNL     1     -10.847  11.311  65.941  1.00  0.00    -0.264 C  
ENDBRANCH  13  14
ENDBRANCH   5  13
TORSDOF 2
ENDMDL
MODEL      145
REMARK 921   NORMALIZED FREE ENERGY PREDICTED BY IDOCK:   -2.80 KCAL/MOL
REMARK 922        TOTAL FREE ENERGY PREDICTED BY IDOCK:   -3.41 KCAL/MOL
REMARK 923 INTER-LIGAND FREE ENERGY PREDICTED BY IDOCK:   -3.03 KCAL/MOL
REMARK 924 INTRA-LIGAND FREE ENERGY PREDICTED BY IDOCK:   -0.38 KCAL/MOL
REMARK 927      BINDING AFFINITY PREDICTED BY RF-SCORE:    0.00 PKD
ROOT
HETATM    1  C   UNL     1      -8.641   6.459  67.258  1.00  0.00    -0.110 C  
HETATM    2  C   UNL     1      -9.526   7.563  67.939  1.00  0.00    -0.141 C  
HETATM    3  C   UNL     1      -7.593   5.785  68.183  1.00  0.00    -0.085 C  
HETATM    4  O   UNL     1     -10.301   6.997  68.990  1.00  0.00    -0.187 OA 
HETATM    5  C   UNL     1      -8.635   8.687  68.559  1.00  0.00    -0.135 C  
HETATM    6  C   UNL     1      -8.081   4.592  69.015  1.00  0.00    -0.077 C  
HETATM    7  C   UNL     1     -10.494   8.210  66.924  1.00  0.00    -0.379 C  
HETATM    8  C   UNL     1      -9.411   5.366  66.474  1.00  0.00    -0.150 C  
HETATM    9  H   UNL     1     -10.836   7.665  69.403  1.00  0.00     0.000 HD 
HETATM   10  C   UNL     1      -9.115   3.730  68.348  1.00  0.00    -0.194 C  
HETATM   11  C   UNL     1      -9.437   2.416  69.002  1.00  0.00    -0.153 C  
HETATM   12  C   UNL     1      -9.705   4.093  67.201  1.00  0.00    -0.224 C  
ENDROOT
BRANCH   5  13
HETATM   13  C   UNL     1      -9.423   9.871  69.154  1.00  0.00    -0.201 C  
BRANCH  13  14
HETATM   14  C   UNL     1      -9.134  11.180  68.470  1.00  0.00    -0.175 C  
HETATM   15  C   UNL     1     -10.081  12.002  67.977  1.00  0.00    -0.199 C  
HETATM   16  C   UNL     1     -11.560  11.731  68.065  1.00  0.00    -0.386 C  
HETATM   17  C   UNL     1      -9.718  13.290  67.279  1.00  0.00    -0.231 C  
ENDBRANCH  13  14
ENDBRANCH   5  13
TORSDOF 2
ENDMDL
MODEL      146
REMARK 921   NORMALIZED FREE ENERGY PREDICTED BY IDOCK:   -2.79 KCAL/MOL
REMARK 922        TOTAL FREE ENERGY PREDICTED BY IDOCK:   -3.40 KCAL/MOL
REMARK 923 INTER-LIGAND FREE ENERGY PREDICTED BY IDOCK:   -3.20 KCAL/MOL
REMARK 924 INTRA-LIGAND FREE ENERGY PREDICTED BY IDOCK:   -0.20 KCAL/MOL
REMARK 927      BINDING AFFINITY PREDICTED BY RF-SCORE:    0.00 PKD
ROOT
HETATM    1  C   UNL     1      -8.241   9.540  68.391  1.00  0.00    -0.113 C  
HETATM    2  C   UNL     1      -8.627  10.751  67.469  1.00  0.00    -0.125 C  
HETATM    3  C   UNL     1      -9.314   9.135  69.436  1.00  0.00    -0.160 C  
HETATM    4  O   UNL     1      -9.773  10.432  66.687  1.00  0.00    -0.177 OA 
HETATM    5  C   UNL     1      -8.971  12.014  68.321  1.00  0.00    -0.186 C  
HETATM    6  C   UNL     1     -10.401   8.162  68.960  1.00  0.00    -0.229 C  
HETATM    7  C   UNL     1      -7.474  11.111  66.505  1.00  0.00    -0.131 C  
HETATM    8  C   UNL     1      -7.731   8.272  67.661  1.00  0.00    -0.099 C  
HETATM    9  H   UNL     1     -10.007  11.164  66.129  1.00  0.00     0.000 HD 
HETATM   10  C   UNL     1      -9.946   7.138  67.958  1.00  0.00    -0.184 C  
HETATM   11  C   UNL     1     -10.890   6.010  67.654  1.00  0.00    -0.386 C  
HETATM   12  C   UNL     1      -8.737   7.201  67.382  1.00  0.00    -0.120 C  
ENDROOT
BRANCH   5  13
HETATM   13  C   UNL     1      -9.257  13.284  67.496  1.00  0.00    -0.213 C  
BRANCH  13  14
HETATM   14  C   UNL     1     -10.146  14.267  68.208  1.00  0.00    -0.238 C  
HETATM   15  C   UNL     1     -10.355  15.533  67.799  1.00  0.00    -0.263 C  
HETATM   16  C   UNL     1      -9.743  16.130  66.559  1.00  0.00    -0.282 C  
HETATM   17  C   UNL     1     -11.241  16.475  68.578  1.00  0.00    -0.296 C  
ENDBRANCH  13  14
ENDBRANCH   5  13
TORSDOF 2
ENDMDL
MODEL      147
REMARK 921   NORMALIZED FREE ENERGY PREDICTED BY IDOCK:   -2.73 KCAL/MOL
REMARK 922        TOTAL FREE ENERGY PREDICTED BY IDOCK:   -3.33 KCAL/MOL
REMARK 923 INTER-LIGAND FREE ENERGY PREDICTED BY IDOCK:   -3.08 KCAL/MOL
REMARK 924 INTRA-LIGAND FREE ENERGY PREDICTED BY IDOCK:   -0.24 KCAL/MOL
REMARK 927      BINDING AFFINITY PREDICTED BY RF-SCORE:    0.00 PKD
ROOT
HETATM    1  C   UNL     1     -10.507   7.537  67.105  1.00  0.00    -0.407 C  
HETATM    2  C   UNL     1      -9.085   7.124  66.583  1.00  0.00    -0.149 C  
HETATM    3  C   UNL     1     -11.160   6.546  68.104  1.00  0.00    -0.332 C  
HETATM    4  O   UNL     1      -8.161   7.059  67.665  1.00  0.00    -0.115 OA 
HETATM    5  C   UNL     1      -9.125   5.715  65.909  1.00  0.00    -0.158 C  
HETATM    6  C   UNL     1     -10.792   6.722  69.583  1.00  0.00    -0.314 C  
HETATM    7  C   UNL     1      -8.548   8.143  65.554  1.00  0.00    -0.173 C  
HETATM    8  C   UNL     1     -10.631   8.979  67.657  1.00  0.00    -0.298 C  
HETATM    9  H   UNL     1      -7.300   6.810  67.349  1.00  0.00     0.000 HD 
HETATM   10  C   UNL     1     -10.566   8.142  70.018  1.00  0.00    -0.239 C  
HETATM   11  C   UNL     1     -10.457   8.397  71.495  1.00  0.00    -0.305 C  
HETATM   12  C   UNL     1     -10.496   9.150  69.137  1.00  0.00    -0.230 C  
ENDROOT
BRANCH   5  13
HETATM   13  C   UNL     1      -7.793   5.274  65.270  1.00  0.00    -0.095 C  
BRANCH  13  14
HETATM   14  C   UNL     1      -7.598   3.782  65.275  1.00  0.00    -0.081 C  
HETATM   15  C   UNL     1      -7.574   3.018  64.166  1.00  0.00    -0.075 C  
HETATM   16  C   UNL     1      -7.718   3.558  62.767  1.00  0.00    -0.059 C  
HETATM   17  C   UNL     1      -7.400   1.521  64.246  1.00  0.00    -0.052 C  
ENDBRANCH  13  14
ENDBRANCH   5  13
TORSDOF 2
ENDMDL
MODEL      148
REMARK 921   NORMALIZED FREE ENERGY PREDICTED BY IDOCK:   -2.67 KCAL/MOL
REMARK 922        TOTAL FREE ENERGY PREDICTED BY IDOCK:   -3.26 KCAL/MOL
REMARK 923 INTER-LIGAND FREE ENERGY PREDICTED BY IDOCK:   -3.06 KCAL/MOL
REMARK 924 INTRA-LIGAND FREE ENERGY PREDICTED BY IDOCK:   -0.20 KCAL/MOL
REMARK 927      BINDING AFFINITY PREDICTED BY RF-SCORE:    0.00 PKD
ROOT
HETATM    1  C   UNL     1      -9.995   8.818  67.369  1.00  0.00    -0.267 C  
HETATM    2  C   UNL     1      -9.402   8.111  68.640  1.00  0.00    -0.143 C  
HETATM    3  C   UNL     1     -11.092   9.878  67.651  1.00  0.00    -0.170 C  
HETATM    4  O   UNL     1      -8.759   9.064  69.481  1.00  0.00    -0.135 OA 
HETATM    5  C   UNL     1     -10.531   7.427  69.475  1.00  0.00    -0.236 C  
HETATM    6  C   UNL     1     -10.607  11.299  67.964  1.00  0.00    -0.230 C  
HETATM    7  C   UNL     1      -8.363   7.037  68.249  1.00  0.00    -0.123 C  
HETATM    8  C   UNL     1      -8.958   9.404  66.378  1.00  0.00    -0.182 C  
HETATM    9  H   UNL     1      -8.400   8.636  70.250  1.00  0.00     0.000 HD 
HETATM   10  C   UNL     1      -9.364  11.724  67.233  1.00  0.00    -0.171 C  
HETATM   11  C   UNL     1      -8.992  13.178  67.301  1.00  0.00    -0.216 C  
HETATM   12  C   UNL     1      -8.631  10.856  66.521  1.00  0.00    -0.156 C  
ENDROOT
BRANCH   5  13
HETATM   13  C   UNL     1     -10.028   6.615  70.685  1.00  0.00    -0.201 C  
BRANCH  13  14
HETATM   14  C   UNL     1     -10.182   5.128  70.507  1.00  0.00    -0.330 C  
HETATM   15  C   UNL     1      -9.502   4.206  71.214  1.00  0.00    -0.230 C  
HETATM   16  C   UNL     1      -8.508   4.539  72.297  1.00  0.00    -0.110 C  
HETATM   17  C   UNL     1      -9.687   2.729  70.965  1.00  0.00    -0.160 C  
ENDBRANCH  13  14
ENDBRANCH   5  13
TORSDOF 2
ENDMDL
MODEL      149
REMARK 921   NORMALIZED FREE ENERGY PREDICTED BY IDOCK:   -2.62 KCAL/MOL
REMARK 922        TOTAL FREE ENERGY PREDICTED BY IDOCK:   -3.20 KCAL/MOL
REMARK 923 INTER-LIGAND FREE ENERGY PREDICTED BY IDOCK:   -2.90 KCAL/MOL
REMARK 924 INTRA-LIGAND FREE ENERGY PREDICTED BY IDOCK:   -0.30 KCAL/MOL
REMARK 927      BINDING AFFINITY PREDICTED BY RF-SCORE:    0.00 PKD
ROOT
HETATM    1  C   UNL     1      -7.794   5.359  68.589  1.00  0.00    -0.087 C  
HETATM    2  C   UNL     1      -8.608   6.081  69.721  1.00  0.00    -0.130 C  
HETATM    3  C   UNL     1      -8.646   4.759  67.440  1.00  0.00    -0.104 C  
HETATM    4  O   UNL     1      -9.311   7.198  69.189  1.00  0.00    -0.143 OA 
HETATM    5  C   UNL     1      -9.660   5.115  70.354  1.00  0.00    -0.252 C  
HETATM    6  C   UNL     1      -9.011   5.708  66.291  1.00  0.00    -0.141 C  
HETATM    7  C   UNL     1      -7.675   6.591  70.842  1.00  0.00    -0.101 C  
HETATM    8  C   UNL     1      -6.615   6.164  67.987  1.00  0.00    -0.062 C  
HETATM    9  H   UNL     1      -9.804   7.635  69.874  1.00  0.00     0.000 HD 
HETATM   10  C   UNL     1      -7.965   6.733  65.954  1.00  0.00    -0.112 C  
HETATM   11  C   UNL     1      -8.153   7.513  64.684  1.00  0.00    -0.101 C  
HETATM   12  C   UNL     1      -6.889   6.926  66.730  1.00  0.00    -0.064 C  
ENDROOT
BRANCH   5  13
HETATM   13  C   UNL     1     -10.432   5.707  71.550  1.00  0.00    -0.298 C  
BRANCH  13  14
HETATM   14  C   UNL     1     -11.790   6.237  71.177  1.00  0.00    -0.234 C  
HETATM   15  C   UNL     1     -12.333   7.358  71.690  1.00  0.00    -0.373 C  
HETATM   16  C   UNL     1     -11.643   8.245  72.693  1.00  0.00    -0.419 C  
HETATM   17  C   UNL     1     -13.713   7.818  71.289  1.00  0.00    -0.280 C  
ENDBRANCH  13  14
ENDBRANCH   5  13
TORSDOF 2
ENDMDL
MODEL      150
REMARK 921   NORMALIZED FREE ENERGY PREDICTED BY IDOCK:   -2.59 KCAL/MOL
REMARK 922        TOTAL FREE ENERGY PREDICTED BY IDOCK:   -3.17 KCAL/MOL
REMARK 923 INTER-LIGAND FREE ENERGY PREDICTED BY IDOCK:   -2.96 KCAL/MOL
REMARK 924 INTRA-LIGAND FREE ENERGY PREDICTED BY IDOCK:   -0.21 KCAL/MOL
REMARK 927      BINDING AFFINITY PREDICTED BY RF-SCORE:    0.00 PKD
ROOT
HETATM    1  C   UNL     1      -8.047   5.859  68.325  1.00  0.00    -0.109 C  
HETATM    2  C   UNL     1      -8.725   7.152  67.747  1.00  0.00    -0.125 C  
HETATM    3  C   UNL     1      -9.017   4.700  68.674  1.00  0.00    -0.142 C  
HETATM    4  O   UNL     1      -9.378   6.860  66.516  1.00  0.00    -0.159 OA 
HETATM    5  C   UNL     1      -9.803   7.705  68.735  1.00  0.00    -0.165 C  
HETATM    6  C   UNL     1      -9.386   3.748  67.529  1.00  0.00    -0.238 C  
HETATM    7  C   UNL     1      -7.684   8.262  67.487  1.00  0.00    -0.099 C  
HETATM    8  C   UNL     1      -6.854   5.301  67.509  1.00  0.00    -0.060 C  
HETATM    9  H   UNL     1      -9.788   7.642  66.166  1.00  0.00     0.000 HD 
HETATM   10  C   UNL     1      -8.292   3.496  66.531  1.00  0.00    -0.101 C  
HETATM   11  C   UNL     1      -8.506   2.385  65.544  1.00  0.00    -0.104 C  
HETATM   12  C   UNL     1      -7.154   4.206  66.536  1.00  0.00    -0.064 C  
ENDROOT
BRANCH   5  13
HETATM   13  C   UNL     1     -10.445   9.036  68.299  1.00  0.00    -0.247 C  
BRANCH  13  14
HETATM   14  C   UNL     1     -11.053   9.805  69.442  1.00  0.00    -0.205 C  
HETATM   15  C   UNL     1     -11.686  10.985  69.309  1.00  0.00    -0.397 C  
HETATM   16  C   UNL     1     -11.892  11.688  67.992  1.00  0.00    -0.295 C  
HETATM   17  C   UNL     1     -12.250  11.715  70.504  1.00  0.00    -0.451 C  
ENDBRANCH  13  14
ENDBRANCH   5  13
TORSDOF 2
ENDMDL
MODEL      151
REMARK 921   NORMALIZED FREE ENERGY PREDICTED BY IDOCK:   -2.51 KCAL/MOL
REMARK 922        TOTAL FREE ENERGY PREDICTED BY IDOCK:   -3.08 KCAL/MOL
REMARK 923 INTER-LIGAND FREE ENERGY PREDICTED BY IDOCK:   -2.91 KCAL/MOL
REMARK 924 INTRA-LIGAND FREE ENERGY PREDICTED BY IDOCK:   -0.17 KCAL/MOL
REMARK 927      BINDING AFFINITY PREDICTED BY RF-SCORE:    0.00 PKD
ROOT
HETATM    1  C   UNL     1      -9.055   5.807  67.009  1.00  0.00    -0.114 C  
HETATM    2  C   UNL     1      -8.588   7.123  66.291  1.00  0.00    -0.139 C  
HETATM    3  C   UNL     1     -10.541   5.421  66.784  1.00  0.00    -0.339 C  
HETATM    4  O   UNL     1      -8.703   6.984  64.879  1.00  0.00    -0.361 OA 
HETATM    5  C   UNL     1      -9.472   8.337  66.722  1.00  0.00    -0.256 C  
HETATM    6  C   UNL     1     -10.853   4.603  65.525  1.00  0.00    -0.109 C  
HETATM    7  C   UNL     1      -7.115   7.449  66.622  1.00  0.00    -0.075 C  
HETATM    8  C   UNL     1      -8.161   4.561  66.782  1.00  0.00    -0.102 C  
HETATM    9  H   UNL     1      -8.421   7.781  64.445  1.00  0.00     0.000 HD 
HETATM   10  C   UNL     1      -9.785   3.628  65.117  1.00  0.00    -0.157 C  
HETATM   11  C   UNL     1     -10.140   2.627  64.054  1.00  0.00    -0.111 C  
HETATM   12  C   UNL     1      -8.575   3.621  65.694  1.00  0.00    -0.113 C  
ENDROOT
BRANCH   5  13
HETATM   13  C   UNL     1      -9.017   9.694  66.150  1.00  0.00    -0.186 C  
BRANCH  13  14
HETATM   14  C   UNL     1      -9.941  10.828  66.506  1.00  0.00    -0.260 C  
HETATM   15  C   UNL     1     -10.003  11.402  67.723  1.00  0.00    -0.192 C  
HETATM   16  C   UNL     1      -9.137  10.999  68.888  1.00  0.00    -0.132 C  
HETATM   17  C   UNL     1     -10.973  12.519  68.017  1.00  0.00    -0.266 C  
ENDBRANCH  13  14
ENDBRANCH   5  13
TORSDOF 2
ENDMDL
MODEL      152
REMARK 921   NORMALIZED FREE ENERGY PREDICTED BY IDOCK:   -2.50 KCAL/MOL
REMARK 922        TOTAL FREE ENERGY PREDICTED BY IDOCK:   -3.07 KCAL/MOL
REMARK 923 INTER-LIGAND FREE ENERGY PREDICTED BY IDOCK:   -3.07 KCAL/MOL
REMARK 924 INTRA-LIGAND FREE ENERGY PREDICTED BY IDOCK:   -0.00 KCAL/MOL
REMARK 927      BINDING AFFINITY PREDICTED BY RF-SCORE:    0.00 PKD
ROOT
HETATM    1  C   UNL     1      -9.185  10.017  67.596  1.00  0.00    -0.148 C  
HETATM    2  C   UNL     1      -9.293   8.455  67.474  1.00  0.00    -0.147 C  
HETATM    3  C   UNL     1      -9.024  10.560  69.040  1.00  0.00    -0.183 C  
HETATM    4  O   UNL     1      -8.100   7.839  67.947  1.00  0.00    -0.122 OA 
HETATM    5  C   UNL     1     -10.480   7.910  68.330  1.00  0.00    -0.207 C  
HETATM    6  C   UNL     1      -7.594  10.623  69.592  1.00  0.00    -0.100 C  
HETATM    7  C   UNL     1      -9.508   8.021  66.007  1.00  0.00    -0.123 C  
HETATM    8  C   UNL     1      -8.141  10.695  66.673  1.00  0.00    -0.136 C  
HETATM    9  H   UNL     1      -8.165   6.894  67.874  1.00  0.00     0.000 HD 
HETATM   10  C   UNL     1      -6.532  10.943  68.578  1.00  0.00    -0.054 C  
HETATM   11  C   UNL     1      -5.162  11.270  69.099  1.00  0.00    -0.043 C  
HETATM   12  C   UNL     1      -6.796  10.973  67.263  1.00  0.00    -0.088 C  
ENDROOT
BRANCH   5  13
HETATM   13  C   UNL     1     -10.730   6.396  68.185  1.00  0.00    -0.359 C  
BRANCH  13  14
HETATM   14  C   UNL     1     -10.276   5.602  69.381  1.00  0.00    -0.315 C  
HETATM   15  C   UNL     1     -10.754   5.772  70.629  1.00  0.00    -0.351 C  
HETATM   16  C   UNL     1     -11.825   6.767  70.992  1.00  0.00    -0.427 C  
HETATM   17  C   UNL     1     -10.234   4.958  71.788  1.00  0.00    -0.268 C  
ENDBRANCH  13  14
ENDBRANCH   5  13
TORSDOF 2
ENDMDL
MODEL      153
REMARK 921   NORMALIZED FREE ENERGY PREDICTED BY IDOCK:   -2.47 KCAL/MOL
REMARK 922        TOTAL FREE ENERGY PREDICTED BY IDOCK:   -3.04 KCAL/MOL
REMARK 923 INTER-LIGAND FREE ENERGY PREDICTED BY IDOCK:   -2.80 KCAL/MOL
REMARK 924 INTRA-LIGAND FREE ENERGY PREDICTED BY IDOCK:   -0.24 KCAL/MOL
REMARK 927      BINDING AFFINITY PREDICTED BY RF-SCORE:    0.00 PKD
ROOT
HETATM    1  C   UNL     1      -7.414   7.443  66.773  1.00  0.00    -0.096 C  
HETATM    2  C   UNL     1      -8.675   8.079  67.458  1.00  0.00    -0.125 C  
HETATM    3  C   UNL     1      -7.639   6.047  66.135  1.00  0.00    -0.087 C  
HETATM    4  O   UNL     1      -9.703   8.296  66.498  1.00  0.00    -0.225 OA 
HETATM    5  C   UNL     1      -9.249   7.132  68.560  1.00  0.00    -0.134 C  
HETATM    6  C   UNL     1      -8.176   6.029  64.698  1.00  0.00    -0.108 C  
HETATM    7  C   UNL     1      -8.333   9.437  68.110  1.00  0.00    -0.119 C  
HETATM    8  C   UNL     1      -6.662   8.351  65.767  1.00  0.00    -0.053 C  
HETATM    9  H   UNL     1     -10.467   8.681  66.912  1.00  0.00     0.000 HD 
HETATM   10  C   UNL     1      -7.694   7.152  63.824  1.00  0.00    -0.119 C  
HETATM   11  C   UNL     1      -7.976   7.045  62.352  1.00  0.00    -0.127 C  
HETATM   12  C   UNL     1      -7.011   8.193  64.322  1.00  0.00    -0.069 C  
ENDROOT
BRANCH   5  13
HETATM   13  C   UNL     1     -10.425   7.723  69.362  1.00  0.00    -0.221 C  
BRANCH  13  14
HETATM   14  C   UNL     1     -10.193   7.713  70.850  1.00  0.00    -0.202 C  
HETATM   15  C   UNL     1     -11.166   7.547  71.766  1.00  0.00    -0.281 C  
HETATM   16  C   UNL     1     -12.617   7.328  71.425  1.00  0.00    -0.423 C  
HETATM   17  C   UNL     1     -10.866   7.574  73.245  1.00  0.00    -0.409 C  
ENDBRANCH  13  14
ENDBRANCH   5  13
TORSDOF 2
ENDMDL
MODEL      154
REMARK 921   NORMALIZED FREE ENERGY PREDICTED BY IDOCK:   -2.45 KCAL/MOL
REMARK 922        TOTAL FREE ENERGY PREDICTED BY IDOCK:   -3.02 KCAL/MOL
REMARK 923 INTER-LIGAND FREE ENERGY PREDICTED BY IDOCK:   -2.61 KCAL/MOL
REMARK 924 INTRA-LIGAND FREE ENERGY PREDICTED BY IDOCK:   -0.40 KCAL/MOL
REMARK 927      BINDING AFFINITY PREDICTED BY RF-SCORE:    0.00 PKD
ROOT
HETATM    1  C   UNL     1     -10.198   4.878  69.517  1.00  0.00    -0.247 C  
HETATM    2  C   UNL     1      -9.783   5.535  68.152  1.00  0.00    -0.132 C  
HETATM    3  C   UNL     1      -9.112   3.994  70.184  1.00  0.00    -0.186 C  
HETATM    4  O   UNL     1      -8.682   6.418  68.342  1.00  0.00    -0.115 OA 
HETATM    5  C   UNL     1      -9.345   4.447  67.120  1.00  0.00    -0.173 C  
HETATM    6  C   UNL     1      -8.093   4.716  71.075  1.00  0.00    -0.086 C  
HETATM    7  C   UNL     1     -10.948   6.346  67.543  1.00  0.00    -0.454 C  
HETATM    8  C   UNL     1     -10.797   5.840  70.573  1.00  0.00    -0.348 C  
HETATM    9  H   UNL     1      -8.431   6.815  67.516  1.00  0.00     0.000 HD 
HETATM   10  C   UNL     1      -8.634   5.893  71.837  1.00  0.00    -0.137 C  
HETATM   11  C   UNL     1      -7.760   6.475  72.911  1.00  0.00    -0.101 C  
HETATM   12  C   UNL     1      -9.857   6.388  71.599  1.00  0.00    -0.184 C  
ENDROOT
BRANCH   5  13
HETATM   13  C   UNL     1      -9.024   4.992  65.714  1.00  0.00    -0.145 C  
BRANCH  13  14
HETATM   14  C   UNL     1      -7.564   5.301  65.517  1.00  0.00    -0.082 C  
HETATM   15  C   UNL     1      -7.081   6.524  65.226  1.00  0.00    -0.061 C  
HETATM   16  C   UNL     1      -7.938   7.755  65.081  1.00  0.00    -0.129 C  
HETATM   17  C   UNL     1      -5.605   6.758  65.015  1.00  0.00    -0.031 C  
ENDBRANCH  13  14
ENDBRANCH   5  13
TORSDOF 2
ENDMDL
MODEL      155
REMARK 921   NORMALIZED FREE ENERGY PREDICTED BY IDOCK:   -2.45 KCAL/MOL
REMARK 922        TOTAL FREE ENERGY PREDICTED BY IDOCK:   -3.01 KCAL/MOL
REMARK 923 INTER-LIGAND FREE ENERGY PREDICTED BY IDOCK:   -2.69 KCAL/MOL
REMARK 924 INTRA-LIGAND FREE ENERGY PREDICTED BY IDOCK:   -0.33 KCAL/MOL
REMARK 927      BINDING AFFINITY PREDICTED BY RF-SCORE:    0.00 PKD
ROOT
HETATM    1  C   UNL     1      -8.535   6.306  66.868  1.00  0.00    -0.109 C  
HETATM    2  C   UNL     1      -8.464   7.868  66.731  1.00  0.00    -0.129 C  
HETATM    3  C   UNL     1      -9.158   5.562  65.658  1.00  0.00    -0.131 C  
HETATM    4  O   UNL     1      -7.632   8.231  65.634  1.00  0.00    -0.078 OA 
HETATM    5  C   UNL     1      -9.881   8.471  66.471  1.00  0.00    -0.342 C  
HETATM    6  C   UNL     1      -8.206   5.213  64.506  1.00  0.00    -0.133 C  
HETATM    7  C   UNL     1      -7.883   8.517  68.007  1.00  0.00    -0.103 C  
HETATM    8  C   UNL     1      -7.217   5.604  67.280  1.00  0.00    -0.075 C  
HETATM    9  H   UNL     1      -7.589   9.176  65.550  1.00  0.00     0.000 HD 
HETATM   10  C   UNL     1      -6.803   4.870  64.920  1.00  0.00    -0.049 C  
HETATM   11  C   UNL     1      -5.905   4.275  63.872  1.00  0.00    -0.014 C  
HETATM   12  C   UNL     1      -6.372   5.051  66.176  1.00  0.00    -0.039 C  
ENDROOT
BRANCH   5  13
HETATM   13  C   UNL     1      -9.923  10.011  66.431  1.00  0.00    -0.300 C  
BRANCH  13  14
HETATM   14  C   UNL     1     -10.966  10.600  67.343  1.00  0.00    -0.361 C  
HETATM   15  C   UNL     1     -10.790  11.719  68.072  1.00  0.00    -0.256 C  
HETATM   16  C   UNL     1      -9.530  12.544  68.057  1.00  0.00    -0.209 C  
HETATM   17  C   UNL     1     -11.871  12.240  68.987  1.00  0.00    -0.358 C  
ENDBRANCH  13  14
ENDBRANCH   5  13
TORSDOF 2
ENDMDL
MODEL      156
REMARK 921   NORMALIZED FREE ENERGY PREDICTED BY IDOCK:   -2.41 KCAL/MOL
REMARK 922        TOTAL FREE ENERGY PREDICTED BY IDOCK:   -2.97 KCAL/MOL
REMARK 923 INTER-LIGAND FREE ENERGY PREDICTED BY IDOCK:   -2.69 KCAL/MOL
REMARK 924 INTRA-LIGAND FREE ENERGY PREDICTED BY IDOCK:   -0.27 KCAL/MOL
REMARK 927      BINDING AFFINITY PREDICTED BY RF-SCORE:    0.00 PKD
ROOT
HETATM    1  C   UNL     1      -8.067   5.742  70.545  1.00  0.00    -0.110 C  
HETATM    2  C   UNL     1      -8.886   4.614  69.822  1.00  0.00    -0.089 C  
HETATM    3  C   UNL     1      -7.868   7.045  69.727  1.00  0.00    -0.115 C  
HETATM    4  O   UNL     1     -10.210   5.061  69.550  1.00  0.00    -0.234 OA 
HETATM    5  C   UNL     1      -8.225   4.231  68.459  1.00  0.00    -0.087 C  
HETATM    6  C   UNL     1      -8.990   8.087  69.814  1.00  0.00    -0.145 C  
HETATM    7  C   UNL     1      -8.980   3.343  70.695  1.00  0.00    -0.165 C  
HETATM    8  C   UNL     1      -8.535   6.102  71.978  1.00  0.00    -0.121 C  
HETATM    9  H   UNL     1     -10.706   4.379  69.112  1.00  0.00     0.000 HD 
HETATM   10  C   UNL     1      -9.681   8.170  71.146  1.00  0.00    -0.200 C  
HETATM   11  C   UNL     1     -10.603   9.335  71.369  1.00  0.00    -0.417 C  
HETATM   12  C   UNL     1      -9.464   7.267  72.113  1.00  0.00    -0.157 C  
ENDROOT
BRANCH   5  13
HETATM   13  C   UNL     1      -8.901   3.054  67.730  1.00  0.00    -0.161 C  
BRANCH  13  14
HETATM   14  C   UNL     1      -8.697   3.084  66.238  1.00  0.00    -0.132 C  
HETATM   15  C   UNL     1      -9.452   3.802  65.385  1.00  0.00    -0.168 C  
HETATM   16  C   UNL     1     -10.591   4.691  65.811  1.00  0.00    -0.264 C  
HETATM   17  C   UNL     1      -9.208   3.765  63.896  1.00  0.00    -0.131 C  
ENDBRANCH  13  14
ENDBRANCH   5  13
TORSDOF 2
ENDMDL
MODEL      157
REMARK 921   NORMALIZED FREE ENERGY PREDICTED BY IDOCK:   -2.30 KCAL/MOL
REMARK 922        TOTAL FREE ENERGY PREDICTED BY IDOCK:   -2.85 KCAL/MOL
REMARK 923 INTER-LIGAND FREE ENERGY PREDICTED BY IDOCK:   -2.89 KCAL/MOL
REMARK 924 INTRA-LIGAND FREE ENERGY PREDICTED BY IDOCK:    0.04 KCAL/MOL
REMARK 927      BINDING AFFINITY PREDICTED BY RF-SCORE:    0.00 PKD
ROOT
HETATM    1  C   UNL     1      -8.672   6.289  72.097  1.00  0.00    -0.133 C  
HETATM    2  C   UNL     1      -8.149   6.013  70.642  1.00  0.00    -0.116 C  
HETATM    3  C   UNL     1     -10.208   6.469  72.225  1.00  0.00    -0.203 C  
HETATM    4  O   UNL     1      -8.685   4.790  70.147  1.00  0.00    -0.090 OA 
HETATM    5  C   UNL     1      -8.585   7.152  69.666  1.00  0.00    -0.137 C  
HETATM    6  C   UNL     1     -11.035   5.187  72.391  1.00  0.00    -0.244 C  
HETATM    7  C   UNL     1      -6.608   5.907  70.612  1.00  0.00    -0.047 C  
HETATM    8  C   UNL     1      -8.176   5.310  73.190  1.00  0.00    -0.112 C  
HETATM    9  H   UNL     1      -8.369   4.623  69.267  1.00  0.00     0.000 HD 
HETATM   10  C   UNL     1     -10.368   4.095  73.177  1.00  0.00    -0.237 C  
HETATM   11  C   UNL     1     -11.220   2.927  73.588  1.00  0.00    -0.305 C  
HETATM   12  C   UNL     1      -9.077   4.165  73.531  1.00  0.00    -0.105 C  
ENDROOT
BRANCH   5  13
HETATM   13  C   UNL     1      -8.023   7.019  68.237  1.00  0.00    -0.123 C  
BRANCH  13  14
HETATM   14  C   UNL     1      -8.701   5.945  67.430  1.00  0.00    -0.108 C  
HETATM   15  C   UNL     1      -9.922   6.070  66.877  1.00  0.00    -0.207 C  
HETATM   16  C   UNL     1     -10.768   7.313  66.974  1.00  0.00    -0.406 C  
HETATM   17  C   UNL     1     -10.554   4.940  66.100  1.00  0.00    -0.322 C  
ENDBRANCH  13  14
ENDBRANCH   5  13
TORSDOF 2
ENDMDL
MODEL      158
REMARK 921   NORMALIZED FREE ENERGY PREDICTED BY IDOCK:   -2.24 KCAL/MOL
REMARK 922        TOTAL FREE ENERGY PREDICTED BY IDOCK:   -2.78 KCAL/MOL
REMARK 923 INTER-LIGAND FREE ENERGY PREDICTED BY IDOCK:   -2.58 KCAL/MOL
REMARK 924 INTRA-LIGAND FREE ENERGY PREDICTED BY IDOCK:   -0.20 KCAL/MOL
REMARK 927      BINDING AFFINITY PREDICTED BY RF-SCORE:    0.00 PKD
ROOT
HETATM    1  C   UNL     1      -8.004   3.983  66.978  1.00  0.00    -0.096 C  
HETATM    2  C   UNL     1      -7.991   5.352  67.747  1.00  0.00    -0.100 C  
HETATM    3  C   UNL     1      -9.392   3.531  66.451  1.00  0.00    -0.184 C  
HETATM    4  O   UNL     1      -8.397   6.408  66.883  1.00  0.00    -0.109 OA 
HETATM    5  C   UNL     1      -8.980   5.322  68.956  1.00  0.00    -0.126 C  
HETATM    6  C   UNL     1      -9.813   4.073  65.079  1.00  0.00    -0.204 C  
HETATM    7  C   UNL     1      -6.579   5.683  68.278  1.00  0.00    -0.049 C  
HETATM    8  C   UNL     1      -6.953   3.833  65.849  1.00  0.00    -0.062 C  
HETATM    9  H   UNL     1      -8.390   7.237  67.348  1.00  0.00     0.000 HD 
HETATM   10  C   UNL     1      -8.692   4.256  64.095  1.00  0.00    -0.127 C  
HETATM   11  C   UNL     1      -9.071   4.534  62.668  1.00  0.00    -0.125 C  
HETATM   12  C   UNL     1      -7.406   4.144  64.458  1.00  0.00    -0.071 C  
ENDROOT
BRANCH   5  13
HETATM   13  C   UNL     1      -8.953   6.587  69.835  1.00  0.00    -0.143 C  
BRANCH  13  14
HETATM   14  C   UNL     1      -9.678   6.417  71.143  1.00  0.00    -0.191 C  
HETATM   15  C   UNL     1     -10.045   7.435  71.944  1.00  0.00    -0.204 C  
HETATM   16  C   UNL     1      -9.800   8.887  71.626  1.00  0.00    -0.387 C  
HETATM   17  C   UNL     1     -10.747   7.190  73.257  1.00  0.00    -0.403 C  
ENDBRANCH  13  14
ENDBRANCH   5  13
TORSDOF 2
ENDMDL
MODEL      159
REMARK 921   NORMALIZED FREE ENERGY PREDICTED BY IDOCK:   -2.16 KCAL/MOL
REMARK 922        TOTAL FREE ENERGY PREDICTED BY IDOCK:   -2.69 KCAL/MOL
REMARK 923 INTER-LIGAND FREE ENERGY PREDICTED BY IDOCK:   -2.40 KCAL/MOL
REMARK 924 INTRA-LIGAND FREE ENERGY PREDICTED BY IDOCK:   -0.29 KCAL/MOL
REMARK 927      BINDING AFFINITY PREDICTED BY RF-SCORE:    0.00 PKD
ROOT
HETATM    1  C   UNL     1      -7.837   5.773  67.481  1.00  0.00    -0.101 C  
HETATM    2  C   UNL     1      -8.596   6.917  68.244  1.00  0.00    -0.125 C  
HETATM    3  C   UNL     1      -8.363   4.338  67.743  1.00  0.00    -0.098 C  
HETATM    4  O   UNL     1      -9.959   6.964  67.834  1.00  0.00    -0.138 OA 
HETATM    5  C   UNL     1      -8.574   6.668  69.786  1.00  0.00    -0.136 C  
HETATM    6  C   UNL     1      -9.532   3.867  66.868  1.00  0.00    -0.225 C  
HETATM    7  C   UNL     1      -7.962   8.296  67.961  1.00  0.00    -0.123 C  
HETATM    8  C   UNL     1      -7.657   5.984  65.956  1.00  0.00    -0.087 C  
HETATM    9  H   UNL     1     -10.418   7.656  68.295  1.00  0.00     0.000 HD 
HETATM   10  C   UNL     1      -9.521   4.385  65.457  1.00  0.00    -0.175 C  
HETATM   11  C   UNL     1     -10.486   3.759  64.490  1.00  0.00    -0.193 C  
HETATM   12  C   UNL     1      -8.668   5.340  65.061  1.00  0.00    -0.136 C  
ENDROOT
BRANCH   5  13
HETATM   13  C   UNL     1      -9.202   7.799  70.624  1.00  0.00    -0.161 C  
BRANCH  13  14
HETATM   14  C   UNL     1      -8.277   8.338  71.682  1.00  0.00    -0.174 C  
HETATM   15  C   UNL     1      -8.288   7.944  72.970  1.00  0.00    -0.218 C  
HETATM   16  C   UNL     1      -9.215   6.893  73.522  1.00  0.00    -0.179 C  
HETATM   17  C   UNL     1      -7.347   8.547  73.985  1.00  0.00    -0.130 C  
ENDBRANCH  13  14
ENDBRANCH   5  13
TORSDOF 2
ENDMDL
MODEL      160
REMARK 921   NORMALIZED FREE ENERGY PREDICTED BY IDOCK:   -2.09 KCAL/MOL
REMARK 922        TOTAL FREE ENERGY PREDICTED BY IDOCK:   -2.61 KCAL/MOL
REMARK 923 INTER-LIGAND FREE ENERGY PREDICTED BY IDOCK:   -2.26 KCAL/MOL
REMARK 924 INTRA-LIGAND FREE ENERGY PREDICTED BY IDOCK:   -0.35 KCAL/MOL
REMARK 927      BINDING AFFINITY PREDICTED BY RF-SCORE:    0.00 PKD
ROOT
HETATM    1  C   UNL     1      -7.984   7.895  70.894  1.00  0.00    -0.093 C  
HETATM    2  C   UNL     1      -7.570   6.717  69.941  1.00  0.00    -0.100 C  
HETATM    3  C   UNL     1      -8.947   8.942  70.273  1.00  0.00    -0.201 C  
HETATM    4  O   UNL     1      -8.715   5.959  69.565  1.00  0.00    -0.115 OA 
HETATM    5  C   UNL     1      -6.913   7.263  68.633  1.00  0.00    -0.082 C  
HETATM    6  C   UNL     1     -10.446   8.623  70.350  1.00  0.00    -0.233 C  
HETATM    7  C   UNL     1      -6.569   5.764  70.631  1.00  0.00    -0.044 C  
HETATM    8  C   UNL     1      -8.509   7.479  72.291  1.00  0.00    -0.138 C  
HETATM    9  H   UNL     1      -8.465   5.246  68.989  1.00  0.00     0.000 HD 
HETATM   10  C   UNL     1     -10.879   7.888  71.587  1.00  0.00    -0.275 C  
HETATM   11  C   UNL     1     -12.356   7.778  71.838  1.00  0.00    -0.342 C  
HETATM   12  C   UNL     1      -9.992   7.378  72.454  1.00  0.00    -0.221 C  
ENDROOT
BRANCH   5  13
HETATM   13  C   UNL     1      -6.375   6.172  67.685  1.00  0.00    -0.041 C  
BRANCH  13  14
HETATM   14  C   UNL     1      -6.998   6.216  66.316  1.00  0.00    -0.066 C  
HETATM   15  C   UNL     1      -7.589   5.163  65.718  1.00  0.00    -0.083 C  
HETATM   16  C   UNL     1      -7.724   3.803  66.351  1.00  0.00    -0.089 C  
HETATM   17  C   UNL     1      -8.171   5.271  64.330  1.00  0.00    -0.135 C  
ENDBRANCH  13  14
ENDBRANCH   5  13
TORSDOF 2
ENDMDL
MODEL      161
REMARK 921   NORMALIZED FREE ENERGY PREDICTED BY IDOCK:   -2.05 KCAL/MOL
REMARK 922        TOTAL FREE ENERGY PREDICTED BY IDOCK:   -2.57 KCAL/MOL
REMARK 923 INTER-LIGAND FREE ENERGY PREDICTED BY IDOCK:   -2.25 KCAL/MOL
REMARK 924 INTRA-LIGAND FREE ENERGY PREDICTED BY IDOCK:   -0.32 KCAL/MOL
REMARK 927      BINDING AFFINITY PREDICTED BY RF-SCORE:    0.00 PKD
ROOT
HETATM    1  C   UNL     1      -6.862  13.234  67.900  1.00  0.00    -0.140 C  
HETATM    2  C   UNL     1      -6.650  11.878  68.662  1.00  0.00    -0.066 C  
HETATM    3  C   UNL     1      -8.177  13.337  67.083  1.00  0.00    -0.123 C  
HETATM    4  O   UNL     1      -7.677  11.688  69.629  1.00  0.00    -0.296 OA 
HETATM    5  C   UNL     1      -6.701  10.669  67.673  1.00  0.00    -0.072 C  
HETATM    6  C   UNL     1      -9.422  13.807  67.847  1.00  0.00    -0.214 C  
HETATM    7  C   UNL     1      -5.291  11.854  69.395  1.00  0.00    -0.061 C  
HETATM    8  C   UNL     1      -6.681  14.519  68.747  1.00  0.00    -0.091 C  
HETATM    9  H   UNL     1      -7.549  10.867  70.090  1.00  0.00     0.000 HD 
HETATM   10  C   UNL     1      -9.163  14.818  68.928  1.00  0.00    -0.177 C  
HETATM   11  C   UNL     1     -10.358  15.501  69.530  1.00  0.00    -0.271 C  
HETATM   12  C   UNL     1      -7.919  15.129  69.323  1.00  0.00    -0.213 C  
ENDROOT
BRANCH   5  13
HETATM   13  C   UNL     1      -6.394   9.303  68.318  1.00  0.00    -0.054 C  
BRANCH  13  14
HETATM   14  C   UNL     1      -7.106   8.158  67.650  1.00  0.00    -0.087 C  
HETATM   15  C   UNL     1      -8.309   7.687  68.032  1.00  0.00    -0.124 C  
HETATM   16  C   UNL     1      -9.115   8.260  69.168  1.00  0.00    -0.148 C  
HETATM   17  C   UNL     1      -8.954   6.516  67.332  1.00  0.00    -0.110 C  
ENDBRANCH  13  14
ENDBRANCH   5  13
TORSDOF 2
ENDMDL
MODEL      162
REMARK 921   NORMALIZED FREE ENERGY PREDICTED BY IDOCK:   -1.32 KCAL/MOL
REMARK 922        TOTAL FREE ENERGY PREDICTED BY IDOCK:   -1.75 KCAL/MOL
REMARK 923 INTER-LIGAND FREE ENERGY PREDICTED BY IDOCK:   -2.33 KCAL/MOL
REMARK 924 INTRA-LIGAND FREE ENERGY PREDICTED BY IDOCK:    0.58 KCAL/MOL
REMARK 927      BINDING AFFINITY PREDICTED BY RF-SCORE:    0.00 PKD
ROOT
HETATM    1  C   UNL     1      -8.470  13.823  68.966  1.00  0.00     0.251 C  
HETATM    2  C   UNL     1      -9.657  14.080  67.971  1.00  0.00    -0.217 C  
HETATM    3  C   UNL     1      -8.220  12.336  69.329  1.00  0.00     0.674 C  
HETATM    4  O   UNL     1      -9.398  13.453  66.719  1.00  0.00    -0.246 OA 
HETATM    5  C   UNL     1     -10.991  13.489  68.531  1.00  0.00    -0.291 C  
HETATM    6  C   UNL     1      -7.323  11.539  68.374  1.00  0.00    -0.097 C  
HETATM    7  C   UNL     1      -9.860  15.590  67.719  1.00  0.00    -0.213 C  
HETATM    8  C   UNL     1      -7.123  14.495  68.596  1.00  0.00    -0.113 C  
HETATM    9  H   UNL     1     -10.117  13.609  66.118  1.00  0.00     0.000 HD 
HETATM   10  C   UNL     1      -6.209  12.324  67.741  1.00  0.00    -0.101 C  
HETATM   11  C   UNL     1      -5.154  11.547  67.005  1.00  0.00    -0.094 C  
HETATM   12  C   UNL     1      -6.132  13.658  67.851  1.00  0.00    -0.154 C  
ENDROOT
BRANCH   5  13
HETATM   13  C   UNL     1     -12.234  13.790  67.670  1.00  0.00    -0.229 C  
BRANCH  13  14
HETATM   14  C   UNL     1     -12.181  13.152  66.308  1.00  0.00    -0.423 C  
HETATM   15  C   UNL     1     -11.953  13.826  65.164  1.00  0.00    -0.393 C  
HETATM   16  C   UNL     1     -11.699  15.309  65.097  1.00  0.00    -0.114 C  
HETATM   17  C   UNL     1     -11.940  13.125  63.827  1.00  0.00    -0.572 C  
ENDBRANCH  13  14
ENDBRANCH   5  13
TORSDOF 2
ENDMDL
MODEL      163
REMARK 921   NORMALIZED FREE ENERGY PREDICTED BY IDOCK:    5.21 KCAL/MOL
REMARK 922        TOTAL FREE ENERGY PREDICTED BY IDOCK:    5.54 KCAL/MOL
REMARK 923 INTER-LIGAND FREE ENERGY PREDICTED BY IDOCK:    5.61 KCAL/MOL
REMARK 924 INTRA-LIGAND FREE ENERGY PREDICTED BY IDOCK:   -0.08 KCAL/MOL
REMARK 927      BINDING AFFINITY PREDICTED BY RF-SCORE:    0.00 PKD
ROOT
HETATM    1  C   UNL     1      -7.929   9.390  68.264  1.00  0.00    -0.094 C  
HETATM    2  C   UNL     1      -6.949  10.275  67.414  1.00  0.00    -0.082 C  
HETATM    3  C   UNL     1      -9.354   9.974  68.452  1.00  0.00    -0.139 C  
HETATM    4  O   UNL     1      -7.443  10.426  66.087  1.00  0.00    -0.118 OA 
HETATM    5  C   UNL     1      -6.808  11.702  68.033  1.00  0.00    -0.072 C  
HETATM    6  C   UNL     1     -10.370   9.673  67.343  1.00  0.00    -0.306 C  
HETATM    7  C   UNL     1      -5.545   9.635  67.333  1.00  0.00    -0.040 C  
HETATM    8  C   UNL     1      -8.035   7.903  67.840  1.00  0.00    -0.128 C  
HETATM    9  H   UNL     1      -6.850  10.961  65.573  1.00  0.00     0.000 HD 
HETATM   10  C   UNL     1     -10.222   8.327  66.691  1.00  0.00    -0.333 C  
HETATM   11  C   UNL     1     -11.335   7.877  65.787  1.00  0.00     5.435 C  
HETATM   12  C   UNL     1      -9.163   7.540  66.926  1.00  0.00    -0.181 C  
ENDROOT
BRANCH   5  13
HETATM   13  C   UNL     1      -5.779  12.606  67.325  1.00  0.00    -0.051 C  
BRANCH  13  14
HETATM   14  C   UNL     1      -6.120  14.070  67.407  1.00  0.00     0.207 C  
HETATM   15  C   UNL     1      -7.241  14.616  66.897  1.00  0.00     0.605 C  
HETATM   16  C   UNL     1      -8.317  13.830  66.194  1.00  0.00     1.176 C  
HETATM   17  C   UNL     1      -7.507  16.099  66.992  1.00  0.00    -0.264 C  
ENDBRANCH  13  14
ENDBRANCH   5  13
TORSDOF 2
ENDMDL
MODEL      164
REMARK 921   NORMALIZED FREE ENERGY PREDICTED BY IDOCK:   23.45 KCAL/MOL
REMARK 922        TOTAL FREE ENERGY PREDICTED BY IDOCK:   25.91 KCAL/MOL
REMARK 923 INTER-LIGAND FREE ENERGY PREDICTED BY IDOCK:   26.12 KCAL/MOL
REMARK 924 INTRA-LIGAND FREE ENERGY PREDICTED BY IDOCK:   -0.21 KCAL/MOL
REMARK 927      BINDING AFFINITY PREDICTED BY RF-SCORE:    0.00 PKD
ROOT
HETATM    1  C   UNL     1      -7.169  16.649  71.591  1.00  0.00     6.418 C  
HETATM    2  C   UNL     1      -7.348  16.281  70.075  1.00  0.00     0.675 C  
HETATM    3  C   UNL     1      -8.079  15.867  72.575  1.00  0.00    11.350 C  
HETATM    4  O   UNL     1      -7.008  14.916  69.854  1.00  0.00    -0.178 OA 
HETATM    5  C   UNL     1      -8.830  16.480  69.624  1.00  0.00     0.451 C  
HETATM    6  C   UNL     1      -7.558  14.506  73.054  1.00  0.00     6.032 C  
HETATM    7  C   UNL     1      -6.441  17.152  69.177  1.00  0.00    -0.223 C  
HETATM    8  C   UNL     1      -5.713  16.639  72.121  1.00  0.00     1.469 C  
HETATM    9  H   UNL     1      -7.117  14.693  68.937  1.00  0.00     0.000 HD 
HETATM   10  C   UNL     1      -6.068  14.417  73.224  1.00  0.00     0.503 C  
HETATM   11  C   UNL     1      -5.529  13.205  73.930  1.00  0.00     0.304 C  
HETATM   12  C   UNL     1      -5.248  15.389  72.798  1.00  0.00     0.434 C  
ENDROOT
BRANCH   5  13
HETATM   13  C   UNL     1      -9.077  16.247  68.120  1.00  0.00    -0.188 C  
BRANCH  13  14
HETATM   14  C   UNL     1     -10.365  15.522  67.836  1.00  0.00    -0.250 C  
HETATM   15  C   UNL     1     -10.968  15.494  66.632  1.00  0.00    -0.248 C  
HETATM   16  C   UNL     1     -10.423  16.169  65.401  1.00  0.00    -0.396 C  
HETATM   17  C   UNL     1     -12.274  14.767  66.424  1.00  0.00    -0.031 C  
ENDBRANCH  13  14
ENDBRANCH   5  13
TORSDOF 2
ENDMDL
