MODEL        1
REMARK 921   NORMALIZED FREE ENERGY PREDICTED BY IDOCK:   -6.62 KCAL/MOL
REMARK 922        TOTAL FREE ENERGY PREDICTED BY IDOCK:   -7.56 KCAL/MOL
REMARK 923 INTER-LIGAND FREE ENERGY PREDICTED BY IDOCK:   -7.40 KCAL/MOL
REMARK 924 INTRA-LIGAND FREE ENERGY PREDICTED BY IDOCK:   -0.16 KCAL/MOL
REMARK 927      BINDING AFFINITY PREDICTED BY RF-SCORE:    0.00 PKD
ROOT
HETATM    1  C   UNL     1      -9.445  13.624  67.286  1.00  0.00    -0.230 C  
HETATM    2  C   UNL     1      -8.293  13.380  68.077  1.00  0.00    -0.165 C  
HETATM    3  C   UNL     1      -9.500  12.609  68.455  1.00  0.00    -0.094 C  
HETATM    4  C   UNL     1     -11.057  12.718  67.123  1.00  0.00    -0.277 C  
HETATM    5  C   UNL     1     -10.885  16.691  69.922  1.00  0.00    -0.206 C  
HETATM    6  O   UNL     1     -12.285  11.995  67.053  1.00  0.00    -0.516 OA 
HETATM    7  C   UNL     1     -10.059  11.780  67.135  1.00  0.00    -0.224 C  
HETATM    8  C   UNL     1     -10.971  11.001  68.573  1.00  0.00    -0.276 C  
HETATM    9  C   UNL     1     -10.624  14.634  68.326  1.00  0.00    -0.235 C  
HETATM   10  C   UNL     1     -11.739  15.826  70.830  1.00  0.00    -0.441 C  
HETATM   11  H   UNL     1     -13.005  12.045  66.436  1.00  0.00     0.000 HD 
HETATM   12  C   UNL     1     -11.880  12.178  69.467  1.00  0.00    -0.386 C  
HETATM   13  C   UNL     1      -9.984  15.905  68.939  1.00  0.00    -0.225 C  
HETATM   14  C   UNL     1     -11.456  13.785  69.573  1.00  0.00    -0.327 C  
HETATM   15  C   UNL     1     -12.539  14.750  70.117  1.00  0.00    -0.319 C  
HETATM   16  C   UNL     1     -13.645  14.136  70.981  1.00  0.00    -0.171 C  
HETATM   17  C   UNL     1     -13.352  13.967  72.461  1.00  0.00    -0.656 C  
HETATM   18  C   UNL     1     -12.421  14.991  73.057  1.00  0.00    -0.409 C  
HETATM   19  C   UNL     1     -11.680  15.921  72.170  1.00  0.00    -0.586 C  
HETATM   20  O   UNL     1     -12.233  15.056  74.272  1.00  0.00    -0.604 OA 
ENDROOT
BRANCH   4  21
HETATM   21  C   UNL     1     -11.077  13.313  65.673  1.00  0.00    -0.299 C  
HETATM   22  C   UNL     1     -11.138  13.829  64.593  1.00  0.00    -0.391 C  
ENDBRANCH   4  21
BRANCH   7  23
HETATM   23  C   UNL     1      -9.562  10.801  66.104  1.00  0.00    -0.236 C  
HETATM   24  C   UNL     1      -8.224  10.209  66.545  1.00  0.00    -0.124 C  
ENDBRANCH   7  23
TORSDOF 2
ENDMDL
MODEL        2
REMARK 921   NORMALIZED FREE ENERGY PREDICTED BY IDOCK:   -6.52 KCAL/MOL
REMARK 922        TOTAL FREE ENERGY PREDICTED BY IDOCK:   -7.45 KCAL/MOL
REMARK 923 INTER-LIGAND FREE ENERGY PREDICTED BY IDOCK:   -7.26 KCAL/MOL
REMARK 924 INTRA-LIGAND FREE ENERGY PREDICTED BY IDOCK:   -0.18 KCAL/MOL
REMARK 927      BINDING AFFINITY PREDICTED BY RF-SCORE:    0.00 PKD
ROOT
HETATM    1  C   UNL     1      -9.703  12.802  67.594  1.00  0.00    -0.205 C  
HETATM    2  C   UNL     1      -8.488  12.844  68.325  1.00  0.00    -0.161 C  
HETATM    3  C   UNL     1      -9.597  12.108  68.976  1.00  0.00     0.270 C  
HETATM    4  C   UNL     1     -11.236  11.773  67.787  1.00  0.00    -0.266 C  
HETATM    5  C   UNL     1     -11.243  16.320  69.513  1.00  0.00    -0.308 C  
HETATM    6  O   UNL     1     -12.397  10.971  67.994  1.00  0.00    -0.544 OA 
HETATM    7  C   UNL     1     -10.160  10.941  67.946  1.00  0.00    -0.199 C  
HETATM    8  C   UNL     1     -10.911  10.481  69.599  1.00  0.00    -0.333 C  
HETATM    9  C   UNL     1     -10.901  13.953  68.449  1.00  0.00    -0.269 C  
HETATM   10  C   UNL     1     -11.961  15.650  70.670  1.00  0.00    -0.438 C  
HETATM   11  H   UNL     1     -13.156  10.816  67.444  1.00  0.00     0.000 HD 
HETATM   12  C   UNL     1     -11.863  11.777  70.251  1.00  0.00    -0.382 C  
HETATM   13  C   UNL     1     -10.338  15.379  68.681  1.00  0.00    -0.234 C  
HETATM   14  C   UNL     1     -11.576  13.386  69.928  1.00  0.00    -0.270 C  
HETATM   15  C   UNL     1     -12.705  14.377  70.307  1.00  0.00    -0.318 C  
HETATM   16  C   UNL     1     -13.698  13.921  71.381  1.00  0.00    -0.241 C  
HETATM   17  C   UNL     1     -13.301  14.147  72.829  1.00  0.00    -0.618 C  
HETATM   18  C   UNL     1     -12.430  15.349  73.081  1.00  0.00    -0.456 C  
HETATM   19  C   UNL     1     -11.828  16.079  71.937  1.00  0.00    -0.619 C  
HETATM   20  O   UNL     1     -12.174  15.728  74.224  1.00  0.00    -0.562 OA 
ENDROOT
BRANCH   4  21
HETATM   21  C   UNL     1     -11.396  11.986  66.243  1.00  0.00    -0.415 C  
HETATM   22  C   UNL     1     -11.598  12.134  65.071  1.00  0.00    -0.365 C  
ENDBRANCH   4  21
BRANCH   7  23
HETATM   23  C   UNL     1      -9.643   9.773  67.148  1.00  0.00    -0.211 C  
HETATM   24  C   UNL     1      -8.198   9.468  67.539  1.00  0.00    -0.121 C  
ENDBRANCH   7  23
TORSDOF 2
ENDMDL
MODEL        3
REMARK 921   NORMALIZED FREE ENERGY PREDICTED BY IDOCK:   -6.33 KCAL/MOL
REMARK 922        TOTAL FREE ENERGY PREDICTED BY IDOCK:   -7.23 KCAL/MOL
REMARK 923 INTER-LIGAND FREE ENERGY PREDICTED BY IDOCK:   -7.05 KCAL/MOL
REMARK 924 INTRA-LIGAND FREE ENERGY PREDICTED BY IDOCK:   -0.18 KCAL/MOL
REMARK 927      BINDING AFFINITY PREDICTED BY RF-SCORE:    0.00 PKD
ROOT
HETATM    1  C   UNL     1     -10.821  15.857  67.185  1.00  0.00    -0.267 C  
HETATM    2  C   UNL     1     -10.581  15.801  65.788  1.00  0.00    -0.369 C  
HETATM    3  C   UNL     1      -9.382  15.659  66.647  1.00  0.00    -0.291 C  
HETATM    4  C   UNL     1      -9.767  15.416  68.648  1.00  0.00    -0.210 C  
HETATM    5  C   UNL     1     -10.135  20.092  67.362  1.00  0.00    -0.556 C  
HETATM    6  O   UNL     1      -8.906  15.082  69.735  1.00  0.00    -0.451 OA 
HETATM    7  C   UNL     1      -9.618  14.420  67.720  1.00  0.00    -0.216 C  
HETATM    8  C   UNL     1      -7.780  14.759  67.824  1.00  0.00    -0.170 C  
HETATM    9  C   UNL     1     -10.189  17.510  67.787  1.00  0.00    -0.349 C  
HETATM   10  C   UNL     1      -8.647  20.068  67.658  1.00  0.00    -0.385 C  
HETATM   11  H   UNL     1      -9.084  14.969  70.661  1.00  0.00     0.000 HD 
HETATM   12  C   UNL     1      -7.457  16.407  68.261  1.00  0.00    -0.161 C  
HETATM   13  C   UNL     1     -10.744  18.718  66.990  1.00  0.00    -0.435 C  
HETATM   14  C   UNL     1      -8.479  17.673  67.905  1.00  0.00    -0.233 C  
HETATM   15  C   UNL     1      -8.213  19.005  68.651  1.00  0.00    -0.399 C  
HETATM   16  C   UNL     1      -6.799  19.222  69.201  1.00  0.00    -0.371 C  
HETATM   17  C   UNL     1      -5.767  19.794  68.245  1.00  0.00    -0.241 C  
HETATM   18  C   UNL     1      -6.308  20.722  67.189  1.00  0.00    -0.277 C  
HETATM   19  C   UNL     1      -7.773  20.837  66.986  1.00  0.00    -0.271 C  
HETATM   20  O   UNL     1      -5.557  21.371  66.460  1.00  0.00    -0.250 OA 
ENDROOT
BRANCH   4  21
HETATM   21  C   UNL     1     -11.133  15.143  69.365  1.00  0.00    -0.283 C  
HETATM   22  C   UNL     1     -12.141  14.951  69.984  1.00  0.00    -0.387 C  
ENDBRANCH   4  21
BRANCH   7  23
HETATM   23  C   UNL     1      -9.987  12.960  67.718  1.00  0.00    -0.230 C  
HETATM   24  C   UNL     1      -9.717  12.351  66.343  1.00  0.00    -0.246 C  
ENDBRANCH   7  23
TORSDOF 2
ENDMDL
MODEL        4
REMARK 921   NORMALIZED FREE ENERGY PREDICTED BY IDOCK:   -6.19 KCAL/MOL
REMARK 922        TOTAL FREE ENERGY PREDICTED BY IDOCK:   -7.07 KCAL/MOL
REMARK 923 INTER-LIGAND FREE ENERGY PREDICTED BY IDOCK:   -6.90 KCAL/MOL
REMARK 924 INTRA-LIGAND FREE ENERGY PREDICTED BY IDOCK:   -0.17 KCAL/MOL
REMARK 927      BINDING AFFINITY PREDICTED BY RF-SCORE:    0.00 PKD
ROOT
HETATM    1  C   UNL     1      -9.347  14.982  69.073  1.00  0.00    -0.206 C  
HETATM    2  C   UNL     1      -8.014  15.050  68.593  1.00  0.00    -0.153 C  
HETATM    3  C   UNL     1      -9.060  15.446  67.622  1.00  0.00    -0.183 C  
HETATM    4  C   UNL     1     -10.943  15.658  68.410  1.00  0.00    -0.308 C  
HETATM    5  C   UNL     1      -9.896  10.970  67.648  1.00  0.00    -0.192 C  
HETATM    6  O   UNL     1     -12.144  16.181  67.843  1.00  0.00     0.056 OA 
HETATM    7  C   UNL     1      -9.998  16.640  68.282  1.00  0.00    -0.261 C  
HETATM    8  C   UNL     1     -10.446  16.671  66.464  1.00  0.00    -0.262 C  
HETATM    9  C   UNL     1     -10.149  13.501  68.264  1.00  0.00    -0.247 C  
HETATM   10  C   UNL     1     -10.449  11.292  66.272  1.00  0.00    -0.308 C  
HETATM   11  H   UNL     1     -13.016  16.279  68.208  1.00  0.00     0.000 HD 
HETATM   12  C   UNL     1     -11.032  15.129  65.924  1.00  0.00    -0.339 C  
HETATM   13  C   UNL     1      -9.340  12.189  68.424  1.00  0.00    -0.170 C  
HETATM   14  C   UNL     1     -10.578  13.679  66.606  1.00  0.00    -0.277 C  
HETATM   15  C   UNL     1     -11.437  12.444  66.237  1.00  0.00    -0.423 C  
HETATM   16  C   UNL     1     -12.241  12.521  64.934  1.00  0.00    -0.534 C  
HETATM   17  C   UNL     1     -11.519  12.139  63.654  1.00  0.00    -0.566 C  
HETATM   18  C   UNL     1     -10.441  11.097  63.806  1.00  0.00    -0.381 C  
HETATM   19  C   UNL     1      -9.989  10.693  65.160  1.00  0.00    -0.366 C  
HETATM   20  O   UNL     1      -9.897  10.590  62.825  1.00  0.00    -0.294 OA 
ENDROOT
BRANCH   4  21
HETATM   21  C   UNL     1     -11.390  15.676  69.912  1.00  0.00    -0.340 C  
HETATM   22  C   UNL     1     -11.773  15.757  71.044  1.00  0.00    -0.462 C  
ENDBRANCH   4  21
BRANCH   7  23
HETATM   23  C   UNL     1      -9.844  18.000  68.912  1.00  0.00    -0.321 C  
HETATM   24  C   UNL     1      -8.489  18.600  68.539  1.00  0.00    -0.367 C  
ENDBRANCH   7  23
TORSDOF 2
ENDMDL
MODEL        5
REMARK 921   NORMALIZED FREE ENERGY PREDICTED BY IDOCK:   -6.16 KCAL/MOL
REMARK 922        TOTAL FREE ENERGY PREDICTED BY IDOCK:   -7.04 KCAL/MOL
REMARK 923 INTER-LIGAND FREE ENERGY PREDICTED BY IDOCK:   -6.87 KCAL/MOL
REMARK 924 INTRA-LIGAND FREE ENERGY PREDICTED BY IDOCK:   -0.17 KCAL/MOL
REMARK 927      BINDING AFFINITY PREDICTED BY RF-SCORE:    0.00 PKD
ROOT
HETATM    1  C   UNL     1      -8.934   8.755  66.208  1.00  0.00    -0.211 C  
HETATM    2  C   UNL     1      -7.625   9.236  65.949  1.00  0.00    -0.098 C  
HETATM    3  C   UNL     1      -8.336   9.896  67.069  1.00  0.00    -0.121 C  
HETATM    4  C   UNL     1     -10.084   8.988  67.646  1.00  0.00    -0.216 C  
HETATM    5  C   UNL     1     -10.761  11.682  63.654  1.00  0.00    -0.500 C  
HETATM    6  O   UNL     1     -10.935   9.219  68.767  1.00  0.00    -0.418 OA 
HETATM    7  C   UNL     1      -8.835   8.749  68.154  1.00  0.00    -0.141 C  
HETATM    8  C   UNL     1      -9.034  10.363  69.083  1.00  0.00    -0.188 C  
HETATM    9  C   UNL     1     -10.130  10.059  65.607  1.00  0.00    -0.321 C  
HETATM   10  C   UNL     1     -10.998  12.768  64.687  1.00  0.00    -0.355 C  
HETATM   11  H   UNL     1     -11.744   8.799  69.035  1.00  0.00     0.000 HD 
HETATM   12  C   UNL     1     -10.082  11.460  68.242  1.00  0.00    -0.204 C  
HETATM   13  C   UNL     1      -9.886  10.503  64.143  1.00  0.00    -0.401 C  
HETATM   14  C   UNL     1     -10.274  11.467  66.588  1.00  0.00    -0.254 C  
HETATM   15  C   UNL     1     -11.482  12.267  66.037  1.00  0.00    -0.434 C  
HETATM   16  C   UNL     1     -12.049  13.373  66.933  1.00  0.00    -0.406 C  
HETATM   17  C   UNL     1     -11.381  14.735  66.855  1.00  0.00    -0.358 C  
HETATM   18  C   UNL     1     -10.787  15.089  65.517  1.00  0.00    -0.351 C  
HETATM   19  C   UNL     1     -10.671  14.052  64.462  1.00  0.00    -0.355 C  
HETATM   20  O   UNL     1     -10.363  16.220  65.283  1.00  0.00    -0.552 OA 
ENDROOT
BRANCH   4  21
HETATM   21  C   UNL     1     -10.658   7.592  67.226  1.00  0.00    -0.394 C  
HETATM   22  C   UNL     1     -11.104   6.507  66.983  1.00  0.00    -0.411 C  
ENDBRANCH   4  21
BRANCH   7  23
HETATM   23  C   UNL     1      -8.261   7.622  68.972  1.00  0.00    -0.127 C  
HETATM   24  C   UNL     1      -6.737   7.726  69.013  1.00  0.00    -0.049 C  
ENDBRANCH   7  23
TORSDOF 2
ENDMDL
MODEL        6
REMARK 921   NORMALIZED FREE ENERGY PREDICTED BY IDOCK:   -6.08 KCAL/MOL
REMARK 922        TOTAL FREE ENERGY PREDICTED BY IDOCK:   -6.95 KCAL/MOL
REMARK 923 INTER-LIGAND FREE ENERGY PREDICTED BY IDOCK:   -6.77 KCAL/MOL
REMARK 924 INTRA-LIGAND FREE ENERGY PREDICTED BY IDOCK:   -0.18 KCAL/MOL
REMARK 927      BINDING AFFINITY PREDICTED BY RF-SCORE:    0.00 PKD
ROOT
HETATM    1  C   UNL     1      -8.838  17.564  68.889  1.00  0.00    -0.136 C  
HETATM    2  C   UNL     1      -7.769  16.802  69.426  1.00  0.00     0.051 C  
HETATM    3  C   UNL     1      -8.140  16.481  68.028  1.00  0.00    -0.168 C  
HETATM    4  C   UNL     1      -9.454  17.792  67.153  1.00  0.00    -0.265 C  
HETATM    5  C   UNL     1     -11.789  14.678  70.069  1.00  0.00    -0.363 C  
HETATM    6  O   UNL     1      -9.899  17.914  65.803  1.00  0.00    -0.540 OA 
HETATM    7  C   UNL     1      -8.087  17.861  67.115  1.00  0.00    -0.225 C  
HETATM    8  C   UNL     1      -8.171  16.487  65.845  1.00  0.00     0.126 C  
HETATM    9  C   UNL     1     -10.327  16.438  68.799  1.00  0.00    -0.275 C  
HETATM   10  C   UNL     1     -11.803  13.839  68.804  1.00  0.00    -0.398 C  
HETATM   11  H   UNL     1     -10.507  18.521  65.397  1.00  0.00     0.000 HD 
HETATM   12  C   UNL     1      -9.576  15.495  66.069  1.00  0.00    -0.380 C  
HETATM   13  C   UNL     1     -10.653  15.727  70.137  1.00  0.00    -0.334 C  
HETATM   14  C   UNL     1     -10.315  15.261  67.543  1.00  0.00    -0.244 C  
HETATM   15  C   UNL     1     -11.732  14.633  67.513  1.00  0.00    -0.403 C  
HETATM   16  C   UNL     1     -12.103  13.817  66.270  1.00  0.00    -0.484 C  
HETATM   17  C   UNL     1     -11.686  12.357  66.254  1.00  0.00    -0.457 C  
HETATM   18  C   UNL     1     -11.632  11.684  67.601  1.00  0.00    -0.279 C  
HETATM   19  C   UNL     1     -11.744  12.496  68.838  1.00  0.00    -0.367 C  
HETATM   20  O   UNL     1     -11.464  10.469  67.705  1.00  0.00    -0.444 OA 
ENDROOT
BRANCH   4  21
HETATM   21  C   UNL     1      -9.947  19.188  67.667  1.00  0.00    -0.440 C  
HETATM   22  C   UNL     1     -10.336  20.276  67.983  1.00  0.00    -0.382 C  
ENDBRANCH   4  21
BRANCH   7  23
HETATM   23  C   UNL     1      -7.128  18.971  66.774  1.00  0.00    -0.216 C  
HETATM   24  C   UNL     1      -5.720  18.612  67.246  1.00  0.00    -0.148 C  
ENDBRANCH   7  23
TORSDOF 2
ENDMDL
MODEL        7
REMARK 921   NORMALIZED FREE ENERGY PREDICTED BY IDOCK:   -6.05 KCAL/MOL
REMARK 922        TOTAL FREE ENERGY PREDICTED BY IDOCK:   -6.92 KCAL/MOL
REMARK 923 INTER-LIGAND FREE ENERGY PREDICTED BY IDOCK:   -6.73 KCAL/MOL
REMARK 924 INTRA-LIGAND FREE ENERGY PREDICTED BY IDOCK:   -0.19 KCAL/MOL
REMARK 927      BINDING AFFINITY PREDICTED BY RF-SCORE:    0.00 PKD
ROOT
HETATM    1  C   UNL     1      -9.259  10.772  67.178  1.00  0.00    -0.160 C  
HETATM    2  C   UNL     1      -9.979  10.037  66.202  1.00  0.00    -0.322 C  
HETATM    3  C   UNL     1     -10.800  10.901  67.082  1.00  0.00    -0.337 C  
HETATM    4  C   UNL     1      -9.737  12.198  68.265  1.00  0.00    -0.216 C  
HETATM    5  C   UNL     1      -9.730   7.718  70.158  1.00  0.00    -0.183 C  
HETATM    6  O   UNL     1     -10.166  13.279  69.092  1.00  0.00    -0.430 OA 
HETATM    7  C   UNL     1     -10.230  12.454  67.013  1.00  0.00    -0.232 C  
HETATM    8  C   UNL     1     -11.903  12.626  67.836  1.00  0.00    -0.388 C  
HETATM    9  C   UNL     1      -9.594   9.970  68.832  1.00  0.00    -0.181 C  
HETATM   10  C   UNL     1     -11.017   8.215  70.790  1.00  0.00    -0.261 C  
HETATM   11  H   UNL     1      -9.674  13.880  69.640  1.00  0.00     0.000 HD 
HETATM   12  C   UNL     1     -12.009  11.667  69.278  1.00  0.00    -0.382 C  
HETATM   13  C   UNL     1      -9.328   8.444  68.851  1.00  0.00    -0.147 C  
HETATM   14  C   UNL     1     -11.147  10.262  69.517  1.00  0.00    -0.310 C  
HETATM   15  C   UNL     1     -11.098   9.721  70.968  1.00  0.00    -0.431 C  
HETATM   16  C   UNL     1     -12.220  10.166  71.913  1.00  0.00    -0.211 C  
HETATM   17  C   UNL     1     -13.509   9.363  71.881  1.00  0.00    -0.500 C  
HETATM   18  C   UNL     1     -13.354   7.904  71.541  1.00  0.00    -0.303 C  
HETATM   19  C   UNL     1     -12.053   7.396  71.040  1.00  0.00    -0.330 C  
HETATM   20  O   UNL     1     -14.297   7.119  71.639  1.00  0.00    -0.417 OA 
ENDROOT
BRANCH   4  21
HETATM   21  C   UNL     1      -8.213  12.558  68.216  1.00  0.00    -0.168 C  
HETATM   22  C   UNL     1      -7.064  12.899  68.223  1.00  0.00    -0.102 C  
ENDBRANCH   4  21
BRANCH   7  23
HETATM   23  C   UNL     1      -9.923  13.515  65.990  1.00  0.00    -0.308 C  
HETATM   24  C   UNL     1     -10.587  13.169  64.658  1.00  0.00    -0.410 C  
ENDBRANCH   7  23
TORSDOF 2
ENDMDL
MODEL        8
REMARK 921   NORMALIZED FREE ENERGY PREDICTED BY IDOCK:   -5.85 KCAL/MOL
REMARK 922        TOTAL FREE ENERGY PREDICTED BY IDOCK:   -6.70 KCAL/MOL
REMARK 923 INTER-LIGAND FREE ENERGY PREDICTED BY IDOCK:   -6.51 KCAL/MOL
REMARK 924 INTRA-LIGAND FREE ENERGY PREDICTED BY IDOCK:   -0.19 KCAL/MOL
REMARK 927      BINDING AFFINITY PREDICTED BY RF-SCORE:    0.00 PKD
ROOT
HETATM    1  C   UNL     1      -9.240   9.616  64.953  1.00  0.00    -0.306 C  
HETATM    2  C   UNL     1      -8.306  10.051  63.979  1.00  0.00    -0.170 C  
HETATM    3  C   UNL     1      -8.284  10.796  65.259  1.00  0.00    -0.052 C  
HETATM    4  C   UNL     1      -9.398   9.965  66.769  1.00  0.00    -0.151 C  
HETATM    5  C   UNL     1     -12.231  12.413  63.665  1.00  0.00    -0.653 C  
HETATM    6  O   UNL     1      -9.484  10.285  68.157  1.00  0.00    -0.144 OA 
HETATM    7  C   UNL     1      -8.074   9.732  66.510  1.00  0.00    -0.116 C  
HETATM    8  C   UNL     1      -7.750  11.406  67.286  1.00  0.00    -0.145 C  
HETATM    9  C   UNL     1     -10.591  10.904  65.037  1.00  0.00    -0.287 C  
HETATM   10  C   UNL     1     -11.872  13.567  64.583  1.00  0.00    -0.428 C  
HETATM   11  H   UNL     1     -10.000   9.900  68.856  1.00  0.00     0.000 HD 
HETATM   12  C   UNL     1      -9.108  12.469  67.101  1.00  0.00    -0.205 C  
HETATM   13  C   UNL     1     -11.211  11.248  63.659  1.00  0.00    -0.221 C  
HETATM   14  C   UNL     1     -10.189  12.375  65.838  1.00  0.00    -0.273 C  
HETATM   15  C   UNL     1     -11.512  13.164  66.002  1.00  0.00    -0.370 C  
HETATM   16  C   UNL     1     -11.504  14.337  66.988  1.00  0.00    -0.377 C  
HETATM   17  C   UNL     1     -11.016  15.676  66.463  1.00  0.00    -0.206 C  
HETATM   18  C   UNL     1     -11.275  15.931  65.001  1.00  0.00    -0.290 C  
HETATM   19  C   UNL     1     -11.748  14.827  64.130  1.00  0.00    -0.165 C  
HETATM   20  O   UNL     1     -11.073  17.036  64.497  1.00  0.00    -1.098 OA 
ENDROOT
BRANCH   4  21
HETATM   21  C   UNL     1     -10.084   8.557  66.832  1.00  0.00    -0.364 C  
HETATM   22  C   UNL     1     -10.660   7.512  66.933  1.00  0.00    -0.367 C  
ENDBRANCH   4  21
BRANCH   7  23
HETATM   23  C   UNL     1      -7.122   8.647  66.941  1.00  0.00    -0.075 C  
HETATM   24  C   UNL     1      -5.843   8.708  66.107  1.00  0.00    -0.047 C  
ENDBRANCH   7  23
TORSDOF 2
ENDMDL
MODEL        9
REMARK 921   NORMALIZED FREE ENERGY PREDICTED BY IDOCK:   -5.85 KCAL/MOL
REMARK 922        TOTAL FREE ENERGY PREDICTED BY IDOCK:   -6.69 KCAL/MOL
REMARK 923 INTER-LIGAND FREE ENERGY PREDICTED BY IDOCK:   -6.52 KCAL/MOL
REMARK 924 INTRA-LIGAND FREE ENERGY PREDICTED BY IDOCK:   -0.18 KCAL/MOL
REMARK 927      BINDING AFFINITY PREDICTED BY RF-SCORE:    0.00 PKD
ROOT
HETATM    1  C   UNL     1      -8.962   9.050  65.954  1.00  0.00    -0.233 C  
HETATM    2  C   UNL     1      -7.705   9.533  65.510  1.00  0.00    -0.105 C  
HETATM    3  C   UNL     1      -8.241  10.179  66.731  1.00  0.00    -0.122 C  
HETATM    4  C   UNL     1      -9.886   9.265  67.549  1.00  0.00    -0.175 C  
HETATM    5  C   UNL     1     -11.140  12.011  63.736  1.00  0.00    -0.510 C  
HETATM    6  O   UNL     1     -10.561   9.482  68.788  1.00  0.00    -0.215 OA 
HETATM    7  C   UNL     1      -8.576   9.019  67.864  1.00  0.00    -0.125 C  
HETATM    8  C   UNL     1      -8.630  10.620  68.833  1.00  0.00    -0.158 C  
HETATM    9  C   UNL     1     -10.231  10.363  65.554  1.00  0.00    -0.316 C  
HETATM   10  C   UNL     1     -11.218  13.084  64.807  1.00  0.00    -0.344 C  
HETATM   11  H   UNL     1     -11.322   9.059  69.166  1.00  0.00     0.000 HD 
HETATM   12  C   UNL     1      -9.789  11.730  68.170  1.00  0.00    -0.190 C  
HETATM   13  C   UNL     1     -10.205  10.825  64.075  1.00  0.00    -0.390 C  
HETATM   14  C   UNL     1     -10.224  11.758  66.563  1.00  0.00    -0.240 C  
HETATM   15  C   UNL     1     -11.497  12.566  66.207  1.00  0.00    -0.421 C  
HETATM   16  C   UNL     1     -11.922  13.661  67.191  1.00  0.00    -0.434 C  
HETATM   17  C   UNL     1     -11.269  15.023  67.033  1.00  0.00    -0.328 C  
HETATM   18  C   UNL     1     -10.880  15.394  65.626  1.00  0.00    -0.355 C  
HETATM   19  C   UNL     1     -10.924  14.370  64.552  1.00  0.00    -0.290 C  
HETATM   20  O   UNL     1     -10.491  16.528  65.345  1.00  0.00    -0.543 OA 
ENDROOT
BRANCH   4  21
HETATM   21  C   UNL     1     -10.519   7.875  67.201  1.00  0.00    -0.414 C  
HETATM   22  C   UNL     1     -11.019   6.802  67.014  1.00  0.00    -0.439 C  
ENDBRANCH   4  21
BRANCH   7  23
HETATM   23  C   UNL     1      -7.891   7.881  68.573  1.00  0.00    -0.119 C  
HETATM   24  C   UNL     1      -6.383   7.946  68.337  1.00  0.00    -0.049 C  
ENDBRANCH   7  23
TORSDOF 2
ENDMDL
MODEL       10
REMARK 921   NORMALIZED FREE ENERGY PREDICTED BY IDOCK:   -5.83 KCAL/MOL
REMARK 922        TOTAL FREE ENERGY PREDICTED BY IDOCK:   -6.67 KCAL/MOL
REMARK 923 INTER-LIGAND FREE ENERGY PREDICTED BY IDOCK:   -6.49 KCAL/MOL
REMARK 924 INTRA-LIGAND FREE ENERGY PREDICTED BY IDOCK:   -0.18 KCAL/MOL
REMARK 927      BINDING AFFINITY PREDICTED BY RF-SCORE:    0.00 PKD
ROOT
HETATM    1  C   UNL     1     -11.504  13.541  67.839  1.00  0.00    -0.353 C  
HETATM    2  C   UNL     1     -11.114  14.414  68.886  1.00  0.00    -0.277 C  
HETATM    3  C   UNL     1     -10.054  13.510  68.382  1.00  0.00    -0.240 C  
HETATM    4  C   UNL     1     -10.524  12.488  66.666  1.00  0.00    -0.233 C  
HETATM    5  C   UNL     1     -12.556  10.385  70.553  1.00  0.00    -0.384 C  
HETATM    6  O   UNL     1      -9.722  11.681  65.805  1.00  0.00    -0.225 OA 
HETATM    7  C   UNL     1      -9.900  13.703  66.745  1.00  0.00    -0.271 C  
HETATM    8  C   UNL     1      -8.363  12.750  67.231  1.00  0.00    -0.187 C  
HETATM    9  C   UNL     1     -11.639  11.827  68.570  1.00  0.00    -0.380 C  
HETATM   10  C   UNL     1     -11.218   9.670  70.597  1.00  0.00    -0.385 C  
HETATM   11  H   UNL     1      -9.940  11.207  65.011  1.00  0.00     0.000 HD 
HETATM   12  C   UNL     1      -8.760  11.258  68.024  1.00  0.00    -0.144 C  
HETATM   13  C   UNL     1     -12.534  11.756  69.834  1.00  0.00    -0.086 C  
HETATM   14  C   UNL     1     -10.153  11.026  68.908  1.00  0.00    -0.212 C  
HETATM   15  C   UNL     1     -10.510   9.560  69.259  1.00  0.00    -0.226 C  
HETATM   16  C   UNL     1      -9.363   8.545  69.255  1.00  0.00    -0.154 C  
HETATM   17  C   UNL     1      -8.541   8.426  70.527  1.00  0.00    -0.137 C  
HETATM   18  C   UNL     1      -9.286   8.707  71.806  1.00  0.00    -0.273 C  
HETATM   19  C   UNL     1     -10.649   9.292  71.755  1.00  0.00    -0.286 C  
HETATM   20  O   UNL     1      -8.777   8.490  72.905  1.00  0.00    -0.337 OA 
ENDROOT
BRANCH   4  21
HETATM   21  C   UNL     1     -11.742  12.686  65.700  1.00  0.00    -0.458 C  
HETATM   22  C   UNL     1     -12.627  12.809  64.902  1.00  0.00    -0.541 C  
ENDBRANCH   4  21
BRANCH   7  23
HETATM   23  C   UNL     1      -9.664  14.800  65.740  1.00  0.00    -0.347 C  
HETATM   24  C   UNL     1      -9.049  16.019  66.427  1.00  0.00    -0.354 C  
ENDBRANCH   7  23
TORSDOF 2
ENDMDL
MODEL       11
REMARK 921   NORMALIZED FREE ENERGY PREDICTED BY IDOCK:   -5.81 KCAL/MOL
REMARK 922        TOTAL FREE ENERGY PREDICTED BY IDOCK:   -6.65 KCAL/MOL
REMARK 923 INTER-LIGAND FREE ENERGY PREDICTED BY IDOCK:   -7.05 KCAL/MOL
REMARK 924 INTRA-LIGAND FREE ENERGY PREDICTED BY IDOCK:    0.40 KCAL/MOL
REMARK 927      BINDING AFFINITY PREDICTED BY RF-SCORE:    0.00 PKD
ROOT
HETATM    1  C   UNL     1     -11.600   7.658  72.068  1.00  0.00    -0.334 C  
HETATM    2  C   UNL     1     -12.874   7.269  71.580  1.00  0.00    -0.415 C  
HETATM    3  C   UNL     1     -11.758   7.154  70.612  1.00  0.00    -0.348 C  
HETATM    4  C   UNL     1      -9.884   7.403  71.408  1.00  0.00    -0.185 C  
HETATM    5  C   UNL     1     -12.050  11.697  70.686  1.00  0.00    -0.432 C  
HETATM    6  O   UNL     1      -8.589   7.198  70.844  1.00  0.00    -0.135 OA 
HETATM    7  C   UNL     1     -10.558   6.220  71.266  1.00  0.00    -0.285 C  
HETATM    8  C   UNL     1     -10.109   6.320  69.450  1.00  0.00    -0.215 C  
HETATM    9  C   UNL     1     -11.184   9.300  71.279  1.00  0.00    -0.425 C  
HETATM   10  C   UNL     1     -11.430  11.536  69.310  1.00  0.00    -0.370 C  
HETATM   11  H   UNL     1      -7.722   7.313  71.213  1.00  0.00     0.000 HD 
HETATM   12  C   UNL     1      -9.920   7.964  68.928  1.00  0.00    -0.194 C  
HETATM   13  C   UNL     1     -12.292  10.371  71.447  1.00  0.00    -0.500 C  
HETATM   14  C   UNL     1     -10.719   9.250  69.622  1.00  0.00    -0.244 C  
HETATM   15  C   UNL     1     -10.189  10.663  69.269  1.00  0.00    -0.235 C  
HETATM   16  C   UNL     1      -9.386  10.800  67.971  1.00  0.00    -0.152 C  
HETATM   17  C   UNL     1     -10.176  11.007  66.690  1.00  0.00    -0.280 C  
HETATM   18  C   UNL     1     -11.477  11.749  66.846  1.00  0.00    -0.293 C  
HETATM   19  C   UNL     1     -12.019  12.016  68.201  1.00  0.00    -0.231 C  
HETATM   20  O   UNL     1     -12.126  12.118  65.866  1.00  0.00    -0.594 OA 
ENDROOT
BRANCH   4  21
HETATM   21  C   UNL     1      -9.451   7.480  72.913  1.00  0.00    -0.239 C  
HETATM   22  C   UNL     1      -9.068   7.478  74.048  1.00  0.00    -0.295 C  
ENDBRANCH   4  21
BRANCH   7  23
HETATM   23  C   UNL     1     -10.375   4.858  71.881  1.00  0.00    -0.259 C  
HETATM   24  C   UNL     1     -11.259   4.718  73.120  1.00  0.00    -0.390 C  
ENDBRANCH   7  23
TORSDOF 2
ENDMDL
MODEL       12
REMARK 921   NORMALIZED FREE ENERGY PREDICTED BY IDOCK:   -5.80 KCAL/MOL
REMARK 922        TOTAL FREE ENERGY PREDICTED BY IDOCK:   -6.64 KCAL/MOL
REMARK 923 INTER-LIGAND FREE ENERGY PREDICTED BY IDOCK:   -6.47 KCAL/MOL
REMARK 924 INTRA-LIGAND FREE ENERGY PREDICTED BY IDOCK:   -0.16 KCAL/MOL
REMARK 927      BINDING AFFINITY PREDICTED BY RF-SCORE:    0.00 PKD
ROOT
HETATM    1  C   UNL     1     -11.711  14.070  68.140  1.00  0.00    -0.387 C  
HETATM    2  C   UNL     1     -11.439  14.766  69.346  1.00  0.00    -0.330 C  
HETATM    3  C   UNL     1     -10.250  14.274  68.612  1.00  0.00    -0.246 C  
HETATM    4  C   UNL     1     -10.624  13.561  66.725  1.00  0.00    -0.272 C  
HETATM    5  C   UNL     1     -11.775  10.248  70.094  1.00  0.00    -0.364 C  
HETATM    6  O   UNL     1      -9.739  13.176  65.675  1.00  0.00    -0.436 OA 
HETATM    7  C   UNL     1     -10.288  14.846  67.059  1.00  0.00    -0.264 C  
HETATM    8  C   UNL     1      -8.538  14.210  67.260  1.00  0.00    -0.231 C  
HETATM    9  C   UNL     1     -11.388  12.258  68.464  1.00  0.00    -0.332 C  
HETATM   10  C   UNL     1     -10.311   9.884  69.927  1.00  0.00    -0.298 C  
HETATM   11  H   UNL     1      -9.912  12.845  64.801  1.00  0.00     0.000 HD 
HETATM   12  C   UNL     1      -8.515  12.532  67.703  1.00  0.00    -0.171 C  
HETATM   13  C   UNL     1     -12.128  11.705  69.708  1.00  0.00    -0.357 C  
HETATM   14  C   UNL     1      -9.734  11.787  68.558  1.00  0.00    -0.181 C  
HETATM   15  C   UNL     1      -9.717  10.238  68.575  1.00  0.00    -0.167 C  
HETATM   16  C   UNL     1      -8.374   9.555  68.300  1.00  0.00    -0.118 C  
HETATM   17  C   UNL     1      -7.438   9.368  69.482  1.00  0.00    -0.083 C  
HETATM   18  C   UNL     1      -8.112   9.179  70.816  1.00  0.00    -0.174 C  
HETATM   19  C   UNL     1      -9.571   9.416  70.947  1.00  0.00    -0.301 C  
HETATM   20  O   UNL     1      -7.472   8.861  71.818  1.00  0.00    -0.271 OA 
ENDROOT
BRANCH   4  21
HETATM   21  C   UNL     1     -11.935  13.662  65.872  1.00  0.00    -0.438 C  
HETATM   22  C   UNL     1     -12.904  13.688  65.168  1.00  0.00    -0.382 C  
ENDBRANCH   4  21
BRANCH   7  23
HETATM   23  C   UNL     1     -10.397  16.156  66.324  1.00  0.00    -0.337 C  
HETATM   24  C   UNL     1     -10.358  17.318  67.315  1.00  0.00    -0.331 C  
ENDBRANCH   7  23
TORSDOF 2
ENDMDL
MODEL       13
REMARK 921   NORMALIZED FREE ENERGY PREDICTED BY IDOCK:   -5.77 KCAL/MOL
REMARK 922        TOTAL FREE ENERGY PREDICTED BY IDOCK:   -6.61 KCAL/MOL
REMARK 923 INTER-LIGAND FREE ENERGY PREDICTED BY IDOCK:   -6.49 KCAL/MOL
REMARK 924 INTRA-LIGAND FREE ENERGY PREDICTED BY IDOCK:   -0.12 KCAL/MOL
REMARK 927      BINDING AFFINITY PREDICTED BY RF-SCORE:    0.00 PKD
ROOT
HETATM    1  C   UNL     1      -8.491  18.180  66.886  1.00  0.00    -0.265 C  
HETATM    2  C   UNL     1      -9.461  18.600  67.831  1.00  0.00    -0.331 C  
HETATM    3  C   UNL     1      -8.603  17.470  68.258  1.00  0.00    -0.266 C  
HETATM    4  C   UNL     1      -7.003  17.080  67.034  1.00  0.00    -0.193 C  
HETATM    5  C   UNL     1     -11.100  15.228  65.180  1.00  0.00    -0.412 C  
HETATM    6  O   UNL     1      -5.884  16.210  67.200  1.00  0.00    -0.286 OA 
HETATM    7  C   UNL     1      -7.012  17.907  68.125  1.00  0.00    -0.218 C  
HETATM    8  C   UNL     1      -6.963  16.347  69.160  1.00  0.00    -0.218 C  
HETATM    9  C   UNL     1      -9.076  16.551  66.181  1.00  0.00    -0.342 C  
HETATM   10  C   UNL     1     -10.706  14.049  66.050  1.00  0.00    -0.294 C  
HETATM   11  H   UNL     1      -5.144  16.030  66.634  1.00  0.00     0.000 HD 
HETATM   12  C   UNL     1      -7.701  15.010  68.336  1.00  0.00    -0.113 C  
HETATM   13  C   UNL     1     -10.527  16.592  65.640  1.00  0.00    -0.341 C  
HETATM   14  C   UNL     1      -8.914  15.178  67.207  1.00  0.00    -0.213 C  
HETATM   15  C   UNL     1      -9.219  13.935  66.333  1.00  0.00    -0.174 C  
HETATM   16  C   UNL     1      -8.806  12.572  66.896  1.00  0.00    -0.203 C  
HETATM   17  C   UNL     1      -9.783  11.888  67.837  1.00  0.00    -0.192 C  
HETATM   18  C   UNL     1     -11.238  12.180  67.582  1.00  0.00    -0.286 C  
HETATM   19  C   UNL     1     -11.621  13.255  66.632  1.00  0.00    -0.408 C  
HETATM   20  O   UNL     1     -12.128  11.566  68.170  1.00  0.00    -0.604 OA 
ENDROOT
BRANCH   4  21
HETATM   21  C   UNL     1      -6.436  17.932  65.847  1.00  0.00    -0.294 C  
HETATM   22  C   UNL     1      -5.938  18.598  64.984  1.00  0.00    -0.286 C  
ENDBRANCH   4  21
BRANCH   7  23
HETATM   23  C   UNL     1      -6.082  18.997  68.591  1.00  0.00    -0.237 C  
HETATM   24  C   UNL     1      -6.818  19.947  69.535  1.00  0.00    -0.313 C  
ENDBRANCH   7  23
TORSDOF 2
ENDMDL
MODEL       14
REMARK 921   NORMALIZED FREE ENERGY PREDICTED BY IDOCK:   -5.73 KCAL/MOL
REMARK 922        TOTAL FREE ENERGY PREDICTED BY IDOCK:   -6.56 KCAL/MOL
REMARK 923 INTER-LIGAND FREE ENERGY PREDICTED BY IDOCK:   -6.39 KCAL/MOL
REMARK 924 INTRA-LIGAND FREE ENERGY PREDICTED BY IDOCK:   -0.18 KCAL/MOL
REMARK 927      BINDING AFFINITY PREDICTED BY RF-SCORE:    0.00 PKD
ROOT
HETATM    1  C   UNL     1     -10.299  10.405  69.739  1.00  0.00    -0.252 C  
HETATM    2  C   UNL     1     -11.700  10.403  69.963  1.00  0.00    -0.366 C  
HETATM    3  C   UNL     1     -11.254   9.741  68.715  1.00  0.00    -0.070 C  
HETATM    4  C   UNL     1      -9.227   9.460  68.555  1.00  0.00    -0.131 C  
HETATM    5  C   UNL     1     -10.439  14.042  67.461  1.00  0.00    -0.252 C  
HETATM    6  O   UNL     1      -8.454   8.723  67.609  1.00  0.00    -0.123 OA 
HETATM    7  C   UNL     1     -10.133   8.578  69.081  1.00  0.00    -0.207 C  
HETATM    8  C   UNL     1     -10.613   8.197  67.311  1.00  0.00    -0.344 C  
HETATM    9  C   UNL     1      -9.961  11.636  68.374  1.00  0.00    -0.201 C  
HETATM   10  C   UNL     1     -10.620  13.437  66.081  1.00  0.00    -0.294 C  
HETATM   11  H   UNL     1      -7.516   8.593  67.534  1.00  0.00     0.000 HD 
HETATM   12  C   UNL     1     -10.335   9.555  66.267  1.00  0.00    -0.226 C  
HETATM   13  C   UNL     1     -10.573  13.036  68.631  1.00  0.00    -0.257 C  
HETATM   14  C   UNL     1     -10.383  11.139  66.781  1.00  0.00    -0.284 C  
HETATM   15  C   UNL     1      -9.788  12.195  65.816  1.00  0.00    -0.264 C  
HETATM   16  C   UNL     1      -9.709  11.816  64.334  1.00  0.00    -0.166 C  
HETATM   17  C   UNL     1     -10.951  12.056  63.493  1.00  0.00    -0.514 C  
HETATM   18  C   UNL     1     -11.807  13.218  63.922  1.00  0.00    -0.465 C  
HETATM   19  C   UNL     1     -11.547  13.889  65.219  1.00  0.00    -0.332 C  
HETATM   20  O   UNL     1     -12.747  13.611  63.231  1.00  0.00    -0.765 OA 
ENDROOT
BRANCH   4  21
HETATM   21  C   UNL     1      -8.115   9.644  69.643  1.00  0.00    -0.143 C  
HETATM   22  C   UNL     1      -7.210   9.788  70.415  1.00  0.00    -0.149 C  
ENDBRANCH   4  21
BRANCH   7  23
HETATM   23  C   UNL     1      -9.987   7.367  69.965  1.00  0.00    -0.185 C  
HETATM   24  C   UNL     1     -11.364   6.819  70.335  1.00  0.00    -0.399 C  
ENDBRANCH   7  23
TORSDOF 2
ENDMDL
MODEL       15
REMARK 921   NORMALIZED FREE ENERGY PREDICTED BY IDOCK:   -5.70 KCAL/MOL
REMARK 922        TOTAL FREE ENERGY PREDICTED BY IDOCK:   -6.53 KCAL/MOL
REMARK 923 INTER-LIGAND FREE ENERGY PREDICTED BY IDOCK:   -6.39 KCAL/MOL
REMARK 924 INTRA-LIGAND FREE ENERGY PREDICTED BY IDOCK:   -0.14 KCAL/MOL
REMARK 927      BINDING AFFINITY PREDICTED BY RF-SCORE:    0.00 PKD
ROOT
HETATM    1  C   UNL     1      -9.579  14.260  68.570  1.00  0.00    -0.220 C  
HETATM    2  C   UNL     1      -8.281  14.778  68.324  1.00  0.00    -0.142 C  
HETATM    3  C   UNL     1      -9.220  14.839  67.178  1.00  0.00    -0.233 C  
HETATM    4  C   UNL     1     -11.172  14.395  67.628  1.00  0.00    -0.313 C  
HETATM    5  C   UNL     1      -8.528  10.339  67.174  1.00  0.00    -0.125 C  
HETATM    6  O   UNL     1     -12.364  14.514  66.852  1.00  0.00    -0.535 OA 
HETATM    7  C   UNL     1     -10.595  15.637  67.639  1.00  0.00    -0.294 C  
HETATM    8  C   UNL     1     -10.714  15.579  65.771  1.00  0.00    -0.362 C  
HETATM    9  C   UNL     1      -9.700  12.625  67.674  1.00  0.00    -0.197 C  
HETATM   10  C   UNL     1      -8.915  10.507  65.716  1.00  0.00    -0.199 C  
HETATM   11  H   UNL     1     -13.267  14.309  67.060  1.00  0.00     0.000 HD 
HETATM   12  C   UNL     1     -10.659  13.949  65.177  1.00  0.00    -0.391 C  
HETATM   13  C   UNL     1      -8.544  11.646  68.003  1.00  0.00    -0.152 C  
HETATM   14  C   UNL     1      -9.876  12.707  65.963  1.00  0.00    -0.260 C  
HETATM   15  C   UNL     1     -10.206  11.271  65.484  1.00  0.00    -0.312 C  
HETATM   16  C   UNL     1     -10.757  11.123  64.062  1.00  0.00    -0.409 C  
HETATM   17  C   UNL     1      -9.744  11.041  62.933  1.00  0.00    -0.353 C  
HETATM   18  C   UNL     1      -8.426  10.406  63.293  1.00  0.00    -0.177 C  
HETATM   19  C   UNL     1      -8.102  10.128  64.714  1.00  0.00    -0.153 C  
HETATM   20  O   UNL     1      -7.588  10.138  62.432  1.00  0.00    -0.119 OA 
ENDROOT
BRANCH   4  21
HETATM   21  C   UNL     1     -11.847  14.216  69.030  1.00  0.00    -0.384 C  
HETATM   22  C   UNL     1     -12.393  14.154  70.095  1.00  0.00    -0.413 C  
ENDBRANCH   4  21
BRANCH   7  23
HETATM   23  C   UNL     1     -11.005  16.951  68.251  1.00  0.00    -0.298 C  
HETATM   24  C   UNL     1      -9.809  17.900  68.308  1.00  0.00    -0.348 C  
ENDBRANCH   7  23
TORSDOF 2
ENDMDL
MODEL       16
REMARK 921   NORMALIZED FREE ENERGY PREDICTED BY IDOCK:   -5.68 KCAL/MOL
REMARK 922        TOTAL FREE ENERGY PREDICTED BY IDOCK:   -6.51 KCAL/MOL
REMARK 923 INTER-LIGAND FREE ENERGY PREDICTED BY IDOCK:   -6.36 KCAL/MOL
REMARK 924 INTRA-LIGAND FREE ENERGY PREDICTED BY IDOCK:   -0.15 KCAL/MOL
REMARK 927      BINDING AFFINITY PREDICTED BY RF-SCORE:    0.00 PKD
ROOT
HETATM    1  C   UNL     1      -6.604  17.929  67.482  1.00  0.00    -0.183 C  
HETATM    2  C   UNL     1      -6.310  17.514  66.158  1.00  0.00    -0.255 C  
HETATM    3  C   UNL     1      -7.711  17.930  66.399  1.00  0.00    -0.311 C  
HETATM    4  C   UNL     1      -8.054  18.829  68.211  1.00  0.00    -0.324 C  
HETATM    5  C   UNL     1      -7.828  13.994  68.685  1.00  0.00    -0.130 C  
HETATM    6  O   UNL     1      -9.203  19.504  68.722  1.00  0.00    -0.366 OA 
HETATM    7  C   UNL     1      -7.729  19.457  67.039  1.00  0.00    -0.268 C  
HETATM    8  C   UNL     1      -9.507  19.164  66.527  1.00  0.00    -0.395 C  
HETATM    9  C   UNL     1      -7.612  16.569  68.275  1.00  0.00    -0.170 C  
HETATM   10  C   UNL     1      -9.307  14.109  68.362  1.00  0.00    -0.208 C  
HETATM   11  H   UNL     1      -9.362  19.920  69.561  1.00  0.00     0.000 HD 
HETATM   12  C   UNL     1     -10.169  17.755  67.294  1.00  0.00    -0.350 C  
HETATM   13  C   UNL     1      -6.960  15.167  68.169  1.00  0.00    -0.132 C  
HETATM   14  C   UNL     1      -9.253  16.448  67.770  1.00  0.00    -0.201 C  
HETATM   15  C   UNL     1      -9.937  15.441  68.729  1.00  0.00    -0.208 C  
HETATM   16  C   UNL     1     -11.469  15.413  68.731  1.00  0.00    -0.352 C  
HETATM   17  C   UNL     1     -12.145  14.550  67.680  1.00  0.00    -0.266 C  
HETATM   18  C   UNL     1     -11.377  13.325  67.257  1.00  0.00    -0.314 C  
HETATM   19  C   UNL     1      -9.965  13.155  67.680  1.00  0.00    -0.219 C  
HETATM   20  O   UNL     1     -11.885  12.466  66.536  1.00  0.00    -0.491 OA 
ENDROOT
BRANCH   4  21
HETATM   21  C   UNL     1      -7.020  19.332  69.276  1.00  0.00    -0.349 C  
HETATM   22  C   UNL     1      -6.284  19.773  70.112  1.00  0.00    -0.342 C  
ENDBRANCH   4  21
BRANCH   7  23
HETATM   23  C   UNL     1      -7.206  20.834  66.726  1.00  0.00    -0.290 C  
HETATM   24  C   UNL     1      -6.512  20.836  65.366  1.00  0.00    -0.234 C  
ENDBRANCH   7  23
TORSDOF 2
ENDMDL
MODEL       17
REMARK 921   NORMALIZED FREE ENERGY PREDICTED BY IDOCK:   -5.65 KCAL/MOL
REMARK 922        TOTAL FREE ENERGY PREDICTED BY IDOCK:   -6.48 KCAL/MOL
REMARK 923 INTER-LIGAND FREE ENERGY PREDICTED BY IDOCK:   -6.31 KCAL/MOL
REMARK 924 INTRA-LIGAND FREE ENERGY PREDICTED BY IDOCK:   -0.16 KCAL/MOL
REMARK 927      BINDING AFFINITY PREDICTED BY RF-SCORE:    0.00 PKD
ROOT
HETATM    1  C   UNL     1      -9.055   7.651  70.985  1.00  0.00    -0.150 C  
HETATM    2  C   UNL     1      -8.288   8.337  71.961  1.00  0.00    -0.219 C  
HETATM    3  C   UNL     1      -9.699   8.771  71.839  1.00  0.00    -0.386 C  
HETATM    4  C   UNL     1     -10.882   7.571  70.668  1.00  0.00    -0.240 C  
HETATM    5  C   UNL     1      -8.165  10.535  67.931  1.00  0.00    -0.107 C  
HETATM    6  O   UNL     1     -12.293   7.563  70.457  1.00  0.00    -0.527 OA 
HETATM    7  C   UNL     1     -10.695   7.461  72.020  1.00  0.00    -0.254 C  
HETATM    8  C   UNL     1     -11.849   8.927  72.179  1.00  0.00    -0.417 C  
HETATM    9  C   UNL     1      -9.305   8.827  69.554  1.00  0.00    -0.157 C  
HETATM   10  C   UNL     1      -9.344  11.464  68.148  1.00  0.00    -0.181 C  
HETATM   11  H   UNL     1     -12.841   7.008  69.915  1.00  0.00     0.000 HD 
HETATM   12  C   UNL     1     -11.788   9.945  70.775  1.00  0.00    -0.415 C  
HETATM   13  C   UNL     1      -7.989   9.447  69.019  1.00  0.00    -0.091 C  
HETATM   14  C   UNL     1     -10.445  10.093  69.801  1.00  0.00    -0.301 C  
HETATM   15  C   UNL     1     -10.664  10.766  68.423  1.00  0.00    -0.255 C  
HETATM   16  C   UNL     1     -11.883  11.683  68.283  1.00  0.00    -0.335 C  
HETATM   17  C   UNL     1     -11.715  13.127  68.725  1.00  0.00    -0.363 C  
HETATM   18  C   UNL     1     -10.330  13.695  68.562  1.00  0.00    -0.243 C  
HETATM   19  C   UNL     1      -9.197  12.798  68.226  1.00  0.00    -0.186 C  
HETATM   20  O   UNL     1     -10.105  14.894  68.733  1.00  0.00    -0.226 OA 
ENDROOT
BRANCH   4  21
HETATM   21  C   UNL     1     -10.568   6.158  70.068  1.00  0.00    -0.323 C  
HETATM   22  C   UNL     1     -10.356   5.104  69.538  1.00  0.00    -0.292 C  
ENDBRANCH   4  21
BRANCH   7  23
HETATM   23  C   UNL     1     -10.955   6.349  73.002  1.00  0.00    -0.269 C  
HETATM   24  C   UNL     1     -10.158   6.583  74.284  1.00  0.00    -0.379 C  
ENDBRANCH   7  23
TORSDOF 2
ENDMDL
MODEL       18
REMARK 921   NORMALIZED FREE ENERGY PREDICTED BY IDOCK:   -5.63 KCAL/MOL
REMARK 922        TOTAL FREE ENERGY PREDICTED BY IDOCK:   -6.45 KCAL/MOL
REMARK 923 INTER-LIGAND FREE ENERGY PREDICTED BY IDOCK:   -6.29 KCAL/MOL
REMARK 924 INTRA-LIGAND FREE ENERGY PREDICTED BY IDOCK:   -0.16 KCAL/MOL
REMARK 927      BINDING AFFINITY PREDICTED BY RF-SCORE:    0.00 PKD
ROOT
HETATM    1  C   UNL     1      -9.759  13.178  67.270  1.00  0.00    -0.230 C  
HETATM    2  C   UNL     1      -8.845  12.841  68.301  1.00  0.00    -0.168 C  
HETATM    3  C   UNL     1      -9.957  13.735  68.702  1.00  0.00    -0.175 C  
HETATM    4  C   UNL     1     -11.444  13.956  67.306  1.00  0.00    -0.344 C  
HETATM    5  C   UNL     1      -7.610  16.741  66.215  1.00  0.00    -0.275 C  
HETATM    6  O   UNL     1     -12.726  14.577  67.391  1.00  0.00    -0.340 OA 
HETATM    7  C   UNL     1     -11.400  13.026  68.310  1.00  0.00    -0.323 C  
HETATM    8  C   UNL     1     -11.884  14.420  69.462  1.00  0.00    -0.376 C  
HETATM    9  C   UNL     1      -9.432  14.958  66.802  1.00  0.00    -0.269 C  
HETATM   10  C   UNL     1      -8.333  17.719  67.122  1.00  0.00    -0.236 C  
HETATM   11  H   UNL     1     -13.415  14.679  66.745  1.00  0.00     0.000 HD 
HETATM   12  C   UNL     1     -11.336  15.957  68.871  1.00  0.00    -0.377 C  
HETATM   13  C   UNL     1      -7.948  15.252  66.467  1.00  0.00     0.171 C  
HETATM   14  C   UNL     1      -9.988  16.150  67.913  1.00  0.00    -0.239 C  
HETATM   15  C   UNL     1      -9.836  17.519  67.204  1.00  0.00    -0.297 C  
HETATM   16  C   UNL     1     -10.579  18.708  67.823  1.00  0.00    -0.433 C  
HETATM   17  C   UNL     1      -9.878  19.450  68.948  1.00  0.00    -0.523 C  
HETATM   18  C   UNL     1      -8.374  19.466  68.873  1.00  0.00    -0.300 C  
HETATM   19  C   UNL     1      -7.672  18.598  67.895  1.00  0.00    -0.273 C  
HETATM   20  O   UNL     1      -7.702  20.165  69.632  1.00  0.00     0.112 OA 
ENDROOT
BRANCH   4  21
HETATM   21  C   UNL     1     -11.682  13.155  65.980  1.00  0.00    -0.424 C  
HETATM   22  C   UNL     1     -11.876  12.614  64.929  1.00  0.00    -0.436 C  
ENDBRANCH   4  21
BRANCH   7  23
HETATM   23  C   UNL     1     -12.142  11.736  68.543  1.00  0.00    -0.134 C  
HETATM   24  C   UNL     1     -11.620  11.051  69.805  1.00  0.00    -0.401 C  
ENDBRANCH   7  23
TORSDOF 2
ENDMDL
MODEL       19
REMARK 921   NORMALIZED FREE ENERGY PREDICTED BY IDOCK:   -5.61 KCAL/MOL
REMARK 922        TOTAL FREE ENERGY PREDICTED BY IDOCK:   -6.43 KCAL/MOL
REMARK 923 INTER-LIGAND FREE ENERGY PREDICTED BY IDOCK:   -6.89 KCAL/MOL
REMARK 924 INTRA-LIGAND FREE ENERGY PREDICTED BY IDOCK:    0.46 KCAL/MOL
REMARK 927      BINDING AFFINITY PREDICTED BY RF-SCORE:    0.00 PKD
ROOT
HETATM    1  C   UNL     1     -11.028  12.940  67.268  1.00  0.00    -0.289 C  
HETATM    2  C   UNL     1     -12.136  13.463  67.983  1.00  0.00    -0.283 C  
HETATM    3  C   UNL     1     -11.765  14.201  66.753  1.00  0.00    -0.432 C  
HETATM    4  C   UNL     1     -10.384  13.265  65.559  1.00  0.00    -0.291 C  
HETATM    5  C   UNL     1      -8.223  15.458  69.324  1.00  0.00    -0.252 C  
HETATM    6  O   UNL     1      -9.920  13.570  64.244  1.00  0.00    -0.732 OA 
HETATM    7  C   UNL     1     -11.746  13.155  65.469  1.00  0.00    -0.393 C  
HETATM    8  C   UNL     1     -11.711  14.848  64.669  1.00  0.00    -0.406 C  
HETATM    9  C   UNL     1      -9.591  14.099  67.554  1.00  0.00    -0.223 C  
HETATM   10  C   UNL     1      -8.234  16.636  68.368  1.00  0.00    -0.206 C  
HETATM   11  H   UNL     1      -9.280  13.137  63.691  1.00  0.00     0.000 HD 
HETATM   12  C   UNL     1     -10.354  15.784  65.212  1.00  0.00    -0.387 C  
HETATM   13  C   UNL     1      -9.312  14.391  69.050  1.00  0.00    -0.028 C  
HETATM   14  C   UNL     1      -9.643  15.597  66.705  1.00  0.00    -0.257 C  
HETATM   15  C   UNL     1      -8.256  16.261  66.897  1.00  0.00    -0.261 C  
HETATM   16  C   UNL     1      -7.909  17.426  65.963  1.00  0.00    -0.218 C  
HETATM   17  C   UNL     1      -8.392  18.806  66.373  1.00  0.00    -0.294 C  
HETATM   18  C   UNL     1      -8.491  19.043  67.857  1.00  0.00    -0.296 C  
HETATM   19  C   UNL     1      -8.355  17.904  68.798  1.00  0.00    -0.222 C  
HETATM   20  O   UNL     1      -8.715  20.164  68.314  1.00  0.00    -0.187 OA 
ENDROOT
BRANCH   4  21
HETATM   21  C   UNL     1      -9.833  11.800  65.645  1.00  0.00    -0.265 C  
HETATM   22  C   UNL     1      -9.371  10.695  65.643  1.00  0.00    -0.239 C  
ENDBRANCH   4  21
BRANCH   7  23
HETATM   23  C   UNL     1     -12.650  12.160  64.791  1.00  0.00    -0.178 C  
HETATM   24  C   UNL     1     -12.358  12.122  63.292  1.00  0.00    -0.547 C  
ENDBRANCH   7  23
TORSDOF 2
ENDMDL
MODEL       20
REMARK 921   NORMALIZED FREE ENERGY PREDICTED BY IDOCK:   -5.53 KCAL/MOL
REMARK 922        TOTAL FREE ENERGY PREDICTED BY IDOCK:   -6.34 KCAL/MOL
REMARK 923 INTER-LIGAND FREE ENERGY PREDICTED BY IDOCK:   -6.17 KCAL/MOL
REMARK 924 INTRA-LIGAND FREE ENERGY PREDICTED BY IDOCK:   -0.17 KCAL/MOL
REMARK 927      BINDING AFFINITY PREDICTED BY RF-SCORE:    0.00 PKD
ROOT
HETATM    1  C   UNL     1      -9.963   9.702  69.795  1.00  0.00    -0.252 C  
HETATM    2  C   UNL     1     -11.285   9.222  69.974  1.00  0.00    -0.190 C  
HETATM    3  C   UNL     1     -10.623   8.808  68.715  1.00  0.00    -0.174 C  
HETATM    4  C   UNL     1      -8.617   9.228  68.608  1.00  0.00    -0.127 C  
HETATM    5  C   UNL     1     -11.273  13.191  67.663  1.00  0.00    -0.313 C  
HETATM    6  O   UNL     1      -7.626   8.838  67.658  1.00  0.00    -0.095 OA 
HETATM    7  C   UNL     1      -9.184   8.070  69.069  1.00  0.00    -0.148 C  
HETATM    8  C   UNL     1      -9.479   7.638  67.271  1.00  0.00    -0.185 C  
HETATM    9  C   UNL     1     -10.033  11.041  68.493  1.00  0.00    -0.198 C  
HETATM   10  C   UNL     1     -11.218  12.629  66.255  1.00  0.00    -0.354 C  
HETATM   11  H   UNL     1      -6.697   9.032  67.608  1.00  0.00     0.000 HD 
HETATM   12  C   UNL     1      -9.654   9.060  66.292  1.00  0.00    -0.327 C  
HETATM   13  C   UNL     1     -11.082  12.142  68.787  1.00  0.00    -0.297 C  
HETATM   14  C   UNL     1     -10.238  10.510  66.868  1.00  0.00    -0.280 C  
HETATM   15  C   UNL     1     -10.014  11.750  65.966  1.00  0.00    -0.258 C  
HETATM   16  C   UNL     1      -9.789  11.492  64.473  1.00  0.00    -0.278 C  
HETATM   17  C   UNL     1     -11.025  11.345  63.603  1.00  0.00    -0.443 C  
HETATM   18  C   UNL     1     -12.228  12.133  64.051  1.00  0.00    -0.446 C  
HETATM   19  C   UNL     1     -12.229  12.788  65.383  1.00  0.00    -0.532 C  
HETATM   20  O   UNL     1     -13.234  12.223  63.347  1.00  0.00    -0.660 OA 
ENDROOT
BRANCH   4  21
HETATM   21  C   UNL     1      -7.648   9.718  69.738  1.00  0.00    -0.137 C  
HETATM   22  C   UNL     1      -6.854  10.037  70.577  1.00  0.00    -0.110 C  
ENDBRANCH   4  21
BRANCH   7  23
HETATM   23  C   UNL     1      -8.656   6.935  69.907  1.00  0.00    -0.141 C  
HETATM   24  C   UNL     1      -9.808   6.044  70.370  1.00  0.00    -0.222 C  
ENDBRANCH   7  23
TORSDOF 2
ENDMDL
MODEL       21
REMARK 921   NORMALIZED FREE ENERGY PREDICTED BY IDOCK:   -5.53 KCAL/MOL
REMARK 922        TOTAL FREE ENERGY PREDICTED BY IDOCK:   -6.34 KCAL/MOL
REMARK 923 INTER-LIGAND FREE ENERGY PREDICTED BY IDOCK:   -6.24 KCAL/MOL
REMARK 924 INTRA-LIGAND FREE ENERGY PREDICTED BY IDOCK:   -0.10 KCAL/MOL
REMARK 927      BINDING AFFINITY PREDICTED BY RF-SCORE:    0.00 PKD
ROOT
HETATM    1  C   UNL     1     -11.381  12.013  67.673  1.00  0.00    -0.375 C  
HETATM    2  C   UNL     1     -11.753  12.428  66.369  1.00  0.00    -0.453 C  
HETATM    3  C   UNL     1     -10.304  12.497  66.670  1.00  0.00    -0.244 C  
HETATM    4  C   UNL     1      -9.735  11.599  68.425  1.00  0.00    -0.199 C  
HETATM    5  C   UNL     1     -11.647  15.992  69.262  1.00  0.00    -0.331 C  
HETATM    6  O   UNL     1      -8.443  11.314  68.958  1.00  0.00    -0.327 OA 
HETATM    7  C   UNL     1      -9.779  11.015  67.188  1.00  0.00    -0.198 C  
HETATM    8  C   UNL     1      -8.197  11.948  66.822  1.00  0.00    -0.129 C  
HETATM    9  C   UNL     1     -10.938  13.552  68.637  1.00  0.00    -0.289 C  
HETATM   10  C   UNL     1     -10.210  16.424  69.032  1.00  0.00    -0.269 C  
HETATM   11  H   UNL     1      -8.179  10.898  69.770  1.00  0.00     0.000 HD 
HETATM   12  C   UNL     1      -8.095  13.417  67.740  1.00  0.00    -0.173 C  
HETATM   13  C   UNL     1     -12.033  14.648  68.598  1.00  0.00    -0.305 C  
HETATM   14  C   UNL     1      -9.424  14.278  68.255  1.00  0.00    -0.209 C  
HETATM   15  C   UNL     1      -9.170  15.360  69.334  1.00  0.00    -0.268 C  
HETATM   16  C   UNL     1      -7.744  15.912  69.442  1.00  0.00    -0.199 C  
HETATM   17  C   UNL     1      -7.373  17.053  68.510  1.00  0.00    -0.220 C  
HETATM   18  C   UNL     1      -8.504  17.974  68.134  1.00  0.00    -0.269 C  
HETATM   19  C   UNL     1      -9.901  17.607  68.473  1.00  0.00    -0.346 C  
HETATM   20  O   UNL     1      -8.300  19.021  67.519  1.00  0.00    -0.273 OA 
ENDROOT
BRANCH   4  21
HETATM   21  C   UNL     1     -10.567  10.670  69.375  1.00  0.00    -0.270 C  
HETATM   22  C   UNL     1     -11.170   9.999  70.164  1.00  0.00    -0.367 C  
ENDBRANCH   4  21
BRANCH   7  23
HETATM   23  C   UNL     1      -9.778   9.579  66.733  1.00  0.00    -0.254 C  
HETATM   24  C   UNL     1      -9.720   9.511  65.208  1.00  0.00    -0.268 C  
ENDBRANCH   7  23
TORSDOF 2
ENDMDL
MODEL       22
REMARK 921   NORMALIZED FREE ENERGY PREDICTED BY IDOCK:   -5.45 KCAL/MOL
REMARK 922        TOTAL FREE ENERGY PREDICTED BY IDOCK:   -6.25 KCAL/MOL
REMARK 923 INTER-LIGAND FREE ENERGY PREDICTED BY IDOCK:   -6.06 KCAL/MOL
REMARK 924 INTRA-LIGAND FREE ENERGY PREDICTED BY IDOCK:   -0.18 KCAL/MOL
REMARK 927      BINDING AFFINITY PREDICTED BY RF-SCORE:    0.00 PKD
ROOT
HETATM    1  C   UNL     1     -11.304  14.872  67.310  1.00  0.00    -0.355 C  
HETATM    2  C   UNL     1     -11.334  15.208  65.932  1.00  0.00    -0.225 C  
HETATM    3  C   UNL     1     -10.045  14.673  66.429  1.00  0.00    -0.288 C  
HETATM    4  C   UNL     1     -10.100  13.891  68.326  1.00  0.00    -0.241 C  
HETATM    5  C   UNL     1      -9.851  18.746  68.456  1.00  0.00    -0.444 C  
HETATM    6  O   UNL     1      -9.131  13.146  69.062  1.00  0.00    -0.353 OA 
HETATM    7  C   UNL     1     -10.302  13.208  67.156  1.00  0.00    -0.247 C  
HETATM    8  C   UNL     1      -8.444  13.277  66.933  1.00  0.00    -0.074 C  
HETATM    9  C   UNL     1     -10.289  16.181  68.174  1.00  0.00    -0.269 C  
HETATM   10  C   UNL     1      -8.363  18.457  68.393  1.00  0.00    -0.328 C  
HETATM   11  H   UNL     1      -9.157  12.784  69.940  1.00  0.00     0.000 HD 
HETATM   12  C   UNL     1      -7.758  14.668  67.711  1.00  0.00    -0.169 C  
HETATM   13  C   UNL     1     -10.753  17.629  67.875  1.00  0.00    -0.341 C  
HETATM   14  C   UNL     1      -8.584  16.095  67.946  1.00  0.00    -0.169 C  
HETATM   15  C   UNL     1      -7.954  17.101  68.941  1.00  0.00    -0.208 C  
HETATM   16  C   UNL     1      -6.449  16.973  69.198  1.00  0.00    -0.221 C  
HETATM   17  C   UNL     1      -5.520  17.678  68.225  1.00  0.00    -0.149 C  
HETATM   18  C   UNL     1      -6.067  18.936  67.604  1.00  0.00    -0.199 C  
HETATM   19  C   UNL     1      -7.501  19.281  67.773  1.00  0.00    -0.289 C  
HETATM   20  O   UNL     1      -5.356  19.679  66.927  1.00  0.00    -0.164 OA 
ENDROOT
BRANCH   4  21
HETATM   21  C   UNL     1     -11.341  13.581  69.231  1.00  0.00    -0.317 C  
HETATM   22  C   UNL     1     -12.241  13.350  69.988  1.00  0.00    -0.367 C  
ENDBRANCH   4  21
BRANCH   7  23
HETATM   23  C   UNL     1     -10.920  11.870  66.846  1.00  0.00    -0.335 C  
HETATM   24  C   UNL     1     -11.214  11.761  65.351  1.00  0.00    -0.310 C  
ENDBRANCH   7  23
TORSDOF 2
ENDMDL
MODEL       23
REMARK 921   NORMALIZED FREE ENERGY PREDICTED BY IDOCK:   -5.44 KCAL/MOL
REMARK 922        TOTAL FREE ENERGY PREDICTED BY IDOCK:   -6.23 KCAL/MOL
REMARK 923 INTER-LIGAND FREE ENERGY PREDICTED BY IDOCK:   -6.05 KCAL/MOL
REMARK 924 INTRA-LIGAND FREE ENERGY PREDICTED BY IDOCK:   -0.19 KCAL/MOL
REMARK 927      BINDING AFFINITY PREDICTED BY RF-SCORE:    0.00 PKD
ROOT
HETATM    1  C   UNL     1     -11.318  15.157  67.768  1.00  0.00    -0.335 C  
HETATM    2  C   UNL     1     -11.663  15.417  69.119  1.00  0.00    -0.364 C  
HETATM    3  C   UNL     1     -10.214  15.258  68.850  1.00  0.00    -0.232 C  
HETATM    4  C   UNL     1      -9.697  15.206  66.865  1.00  0.00    -0.239 C  
HETATM    5  C   UNL     1     -11.427  10.901  68.322  1.00  0.00    -0.376 C  
HETATM    6  O   UNL     1      -8.421  15.240  66.227  1.00  0.00    -0.410 OA 
HETATM    7  C   UNL     1      -9.756  16.317  67.663  1.00  0.00    -0.234 C  
HETATM    8  C   UNL     1      -8.134  15.734  68.394  1.00  0.00    -0.143 C  
HETATM    9  C   UNL     1     -10.818  13.359  67.662  1.00  0.00    -0.273 C  
HETATM   10  C   UNL     1      -9.972  10.684  68.694  1.00  0.00    -0.188 C  
HETATM   11  H   UNL     1      -8.182  15.216  65.308  1.00  0.00     0.000 HD 
HETATM   12  C   UNL     1      -7.976  14.008  68.303  1.00  0.00    -0.146 C  
HETATM   13  C   UNL     1     -11.865  12.385  68.259  1.00  0.00    -0.364 C  
HETATM   14  C   UNL     1      -9.272  12.962  68.308  1.00  0.00    -0.187 C  
HETATM   15  C   UNL     1      -8.979  11.500  67.885  1.00  0.00    -0.159 C  
HETATM   16  C   UNL     1      -7.533  11.014  68.021  1.00  0.00    -0.090 C  
HETATM   17  C   UNL     1      -7.107  10.484  69.379  1.00  0.00    -0.110 C  
HETATM   18  C   UNL     1      -8.195   9.825  70.186  1.00  0.00    -0.179 C  
HETATM   19  C   UNL     1      -9.609   9.934  69.749  1.00  0.00    -0.261 C  
HETATM   20  O   UNL     1      -7.943   9.218  71.226  1.00  0.00    -0.322 OA 
ENDROOT
BRANCH   4  21
HETATM   21  C   UNL     1     -10.574  15.527  65.607  1.00  0.00    -0.389 C  
HETATM   22  C   UNL     1     -11.176  15.785  64.603  1.00  0.00    -0.373 C  
ENDBRANCH   4  21
BRANCH   7  23
HETATM   23  C   UNL     1      -9.812  17.792  67.362  1.00  0.00    -0.311 C  
HETATM   24  C   UNL     1     -10.185  18.572  68.622  1.00  0.00    -0.363 C  
ENDBRANCH   7  23
TORSDOF 2
ENDMDL
MODEL       24
REMARK 921   NORMALIZED FREE ENERGY PREDICTED BY IDOCK:   -5.36 KCAL/MOL
REMARK 922        TOTAL FREE ENERGY PREDICTED BY IDOCK:   -6.14 KCAL/MOL
REMARK 923 INTER-LIGAND FREE ENERGY PREDICTED BY IDOCK:   -5.99 KCAL/MOL
REMARK 924 INTRA-LIGAND FREE ENERGY PREDICTED BY IDOCK:   -0.16 KCAL/MOL
REMARK 927      BINDING AFFINITY PREDICTED BY RF-SCORE:    0.00 PKD
ROOT
HETATM    1  C   UNL     1      -9.108   8.277  68.872  1.00  0.00    -0.147 C  
HETATM    2  C   UNL     1      -7.958   9.035  69.208  1.00  0.00    -0.096 C  
HETATM    3  C   UNL     1      -8.916   8.806  70.315  1.00  0.00    -0.174 C  
HETATM    4  C   UNL     1     -10.402   7.449  69.914  1.00  0.00    -0.218 C  
HETATM    5  C   UNL     1     -11.416  11.773  67.931  1.00  0.00    -0.387 C  
HETATM    6  O   UNL     1     -11.381   6.851  70.762  1.00  0.00    -0.274 OA 
HETATM    7  C   UNL     1      -9.185   7.181  70.481  1.00  0.00    -0.158 C  
HETATM    8  C   UNL     1      -9.889   7.915  72.054  1.00  0.00    -0.250 C  
HETATM    9  C   UNL     1     -10.551   9.464  68.806  1.00  0.00    -0.234 C  
HETATM   10  C   UNL     1     -12.025  12.017  69.300  1.00  0.00    -0.329 C  
HETATM   11  H   UNL     1     -12.069   6.223  70.577  1.00  0.00     0.000 HD 
HETATM   12  C   UNL     1     -11.113   9.098  71.715  1.00  0.00    -0.437 C  
HETATM   13  C   UNL     1     -10.304  10.696  67.900  1.00  0.00    -0.231 C  
HETATM   14  C   UNL     1     -11.152  10.013  70.323  1.00  0.00    -0.381 C  
HETATM   15  C   UNL     1     -12.475  10.764  70.029  1.00  0.00    -0.317 C  
HETATM   16  C   UNL     1     -13.394  11.046  71.221  1.00  0.00    -0.087 C  
HETATM   17  C   UNL     1     -13.109  12.299  72.031  1.00  0.00    -0.461 C  
HETATM   18  C   UNL     1     -12.515  13.447  71.258  1.00  0.00    -0.278 C  
HETATM   19  C   UNL     1     -12.033  13.234  69.871  1.00  0.00    -0.400 C  
HETATM   20  O   UNL     1     -12.389  14.563  71.763  1.00  0.00    -0.335 OA 
ENDROOT
BRANCH   4  21
HETATM   21  C   UNL     1     -10.543   6.468  68.700  1.00  0.00    -0.289 C  
HETATM   22  C   UNL     1     -10.712   5.763  67.746  1.00  0.00    -0.306 C  
ENDBRANCH   4  21
BRANCH   7  23
HETATM   23  C   UNL     1      -8.407   5.907  70.679  1.00  0.00    -0.124 C  
HETATM   24  C   UNL     1      -7.022   6.220  71.244  1.00  0.00    -0.072 C  
ENDBRANCH   7  23
TORSDOF 2
ENDMDL
MODEL       25
REMARK 921   NORMALIZED FREE ENERGY PREDICTED BY IDOCK:   -5.35 KCAL/MOL
REMARK 922        TOTAL FREE ENERGY PREDICTED BY IDOCK:   -6.14 KCAL/MOL
REMARK 923 INTER-LIGAND FREE ENERGY PREDICTED BY IDOCK:   -6.60 KCAL/MOL
REMARK 924 INTRA-LIGAND FREE ENERGY PREDICTED BY IDOCK:    0.46 KCAL/MOL
REMARK 927      BINDING AFFINITY PREDICTED BY RF-SCORE:    0.00 PKD
ROOT
HETATM    1  C   UNL     1     -10.919  13.516  66.127  1.00  0.00    -0.289 C  
HETATM    2  C   UNL     1     -12.248  13.203  65.743  1.00  0.00    -0.514 C  
HETATM    3  C   UNL     1     -11.908  12.911  67.156  1.00  0.00    -0.424 C  
HETATM    4  C   UNL     1     -10.105  13.658  67.789  1.00  0.00    -0.242 C  
HETATM    5  C   UNL     1      -9.488   9.568  65.231  1.00  0.00    -0.326 C  
HETATM    6  O   UNL     1      -9.525  13.733  69.091  1.00  0.00    -0.395 OA 
HETATM    7  C   UNL     1     -11.320  14.283  67.873  1.00  0.00    -0.320 C  
HETATM    8  C   UNL     1     -11.675  13.140  69.314  1.00  0.00    -0.376 C  
HETATM    9  C   UNL     1     -10.001  11.897  66.308  1.00  0.00    -0.245 C  
HETATM   10  C   UNL     1      -9.693   8.938  66.596  1.00  0.00    -0.303 C  
HETATM   11  H   UNL     1      -8.691  14.079  69.385  1.00  0.00     0.000 HD 
HETATM   12  C   UNL     1     -10.810  11.642  69.170  1.00  0.00    -0.231 C  
HETATM   13  C   UNL     1     -10.112  10.976  65.067  1.00  0.00    -0.354 C  
HETATM   14  C   UNL     1     -10.366  10.970  67.712  1.00  0.00    -0.218 C  
HETATM   15  C   UNL     1      -9.321   9.827  67.770  1.00  0.00    -0.148 C  
HETATM   16  C   UNL     1      -9.194   9.069  69.095  1.00  0.00    -0.144 C  
HETATM   17  C   UNL     1     -10.156   7.917  69.328  1.00  0.00    -0.197 C  
HETATM   18  C   UNL     1     -10.598   7.184  68.088  1.00  0.00    -0.192 C  
HETATM   19  C   UNL     1     -10.287   7.741  66.748  1.00  0.00    -0.348 C  
HETATM   20  O   UNL     1     -11.246   6.140  68.157  1.00  0.00    -0.314 OA 
ENDROOT
BRANCH   4  21
HETATM   21  C   UNL     1      -9.145  14.667  67.070  1.00  0.00    -0.254 C  
HETATM   22  C   UNL     1      -8.366  15.438  66.587  1.00  0.00    -0.255 C  
ENDBRANCH   4  21
BRANCH   7  23
HETATM   23  C   UNL     1     -11.721  15.717  68.099  1.00  0.00    -0.209 C  
HETATM   24  C   UNL     1     -11.648  16.055  69.587  1.00  0.00    -0.299 C  
ENDBRANCH   7  23
TORSDOF 2
ENDMDL
MODEL       26
REMARK 921   NORMALIZED FREE ENERGY PREDICTED BY IDOCK:   -5.30 KCAL/MOL
REMARK 922        TOTAL FREE ENERGY PREDICTED BY IDOCK:   -6.07 KCAL/MOL
REMARK 923 INTER-LIGAND FREE ENERGY PREDICTED BY IDOCK:   -5.94 KCAL/MOL
REMARK 924 INTRA-LIGAND FREE ENERGY PREDICTED BY IDOCK:   -0.13 KCAL/MOL
REMARK 927      BINDING AFFINITY PREDICTED BY RF-SCORE:    0.00 PKD
ROOT
HETATM    1  C   UNL     1      -9.563   9.712  65.106  1.00  0.00    -0.324 C  
HETATM    2  C   UNL     1      -8.803  10.068  63.963  1.00  0.00    -0.246 C  
HETATM    3  C   UNL     1      -8.357  10.677  65.238  1.00  0.00    -0.127 C  
HETATM    4  C   UNL     1      -9.246   9.914  66.923  1.00  0.00    -0.147 C  
HETATM    5  C   UNL     1     -12.180  13.092  64.698  1.00  0.00    -0.477 C  
HETATM    6  O   UNL     1      -8.961  10.114  68.307  1.00  0.00    -0.118 OA 
HETATM    7  C   UNL     1      -8.081   9.481  66.350  1.00  0.00    -0.111 C  
HETATM    8  C   UNL     1      -7.282  10.994  67.111  1.00  0.00    -0.112 C  
HETATM    9  C   UNL     1     -10.592  11.202  65.569  1.00  0.00    -0.289 C  
HETATM   10  C   UNL     1     -11.414  14.076  65.562  1.00  0.00    -0.318 C  
HETATM   11  H   UNL     1      -9.372   9.762  69.087  1.00  0.00     0.000 HD 
HETATM   12  C   UNL     1      -8.421  12.289  67.304  1.00  0.00    -0.181 C  
HETATM   13  C   UNL     1     -11.426  11.774  64.394  1.00  0.00    -0.349 C  
HETATM   14  C   UNL     1      -9.752  12.500  66.326  1.00  0.00    -0.259 C  
HETATM   15  C   UNL     1     -10.832  13.488  66.836  1.00  0.00    -0.286 C  
HETATM   16  C   UNL     1     -10.384  14.545  67.849  1.00  0.00    -0.231 C  
HETATM   17  C   UNL     1      -9.779  15.823  67.293  1.00  0.00    -0.223 C  
HETATM   18  C   UNL     1     -10.302  16.253  65.948  1.00  0.00    -0.365 C  
HETATM   19  C   UNL     1     -11.157  15.332  65.158  1.00  0.00    -0.412 C  
HETATM   20  O   UNL     1     -10.011  17.348  65.467  1.00  0.00    -0.555 OA 
ENDROOT
BRANCH   4  21
HETATM   21  C   UNL     1     -10.155   8.647  67.074  1.00  0.00    -0.342 C  
HETATM   22  C   UNL     1     -10.785   7.637  67.214  1.00  0.00    -0.344 C  
ENDBRANCH   4  21
BRANCH   7  23
HETATM   23  C   UNL     1      -7.281   8.213  66.490  1.00  0.00    -0.080 C  
HETATM   24  C   UNL     1      -6.100   8.226  65.521  1.00  0.00    -0.045 C  
ENDBRANCH   7  23
TORSDOF 2
ENDMDL
MODEL       27
REMARK 921   NORMALIZED FREE ENERGY PREDICTED BY IDOCK:   -5.26 KCAL/MOL
REMARK 922        TOTAL FREE ENERGY PREDICTED BY IDOCK:   -6.04 KCAL/MOL
REMARK 923 INTER-LIGAND FREE ENERGY PREDICTED BY IDOCK:   -5.98 KCAL/MOL
REMARK 924 INTRA-LIGAND FREE ENERGY PREDICTED BY IDOCK:   -0.06 KCAL/MOL
REMARK 927      BINDING AFFINITY PREDICTED BY RF-SCORE:    0.00 PKD
ROOT
HETATM    1  C   UNL     1     -10.481   9.362  70.463  1.00  0.00    -0.335 C  
HETATM    2  C   UNL     1     -11.867   9.092  70.595  1.00  0.00    -0.193 C  
HETATM    3  C   UNL     1     -11.246   8.628  69.332  1.00  0.00     0.187 C  
HETATM    4  C   UNL     1      -9.197   8.727  69.282  1.00  0.00    -0.149 C  
HETATM    5  C   UNL     1     -11.167  13.097  68.460  1.00  0.00    -0.307 C  
HETATM    6  O   UNL     1      -8.256   8.222  68.336  1.00  0.00    -0.128 OA 
HETATM    7  C   UNL     1      -9.952   7.656  69.682  1.00  0.00    -0.185 C  
HETATM    8  C   UNL     1     -10.265   7.349  67.861  1.00  0.00    -0.242 C  
HETATM    9  C   UNL     1     -10.305  10.745  69.219  1.00  0.00    -0.228 C  
HETATM   10  C   UNL     1     -11.166  12.590  67.029  1.00  0.00    -0.353 C  
HETATM   11  H   UNL     1      -7.307   8.268  68.313  1.00  0.00     0.000 HD 
HETATM   12  C   UNL     1     -10.187   8.819  66.942  1.00  0.00    -0.357 C  
HETATM   13  C   UNL     1     -11.174  11.987  69.540  1.00  0.00    -0.220 C  
HETATM   14  C   UNL     1     -10.549  10.319  67.569  1.00  0.00    -0.320 C  
HETATM   15  C   UNL     1     -10.109  11.543  66.726  1.00  0.00    -0.245 C  
HETATM   16  C   UNL     1      -9.888  11.311  65.228  1.00  0.00    -0.291 C  
HETATM   17  C   UNL     1     -11.109  11.398  64.329  1.00  0.00    -0.356 C  
HETATM   18  C   UNL     1     -12.184  12.349  64.787  1.00  0.00    -0.423 C  
HETATM   19  C   UNL     1     -12.116  12.942  66.146  1.00  0.00    -0.458 C  
HETATM   20  O   UNL     1     -13.144  12.626  64.069  1.00  0.00    -0.684 OA 
ENDROOT
BRANCH   4  21
HETATM   21  C   UNL     1      -8.192   9.012  70.451  1.00  0.00    -0.163 C  
HETATM   22  C   UNL     1      -7.437   9.154  71.371  1.00  0.00    -0.016 C  
ENDBRANCH   4  21
BRANCH   7  23
HETATM   23  C   UNL     1      -9.632   6.420  70.480  1.00  0.00    -0.179 C  
HETATM   24  C   UNL     1     -10.884   5.921  71.199  1.00  0.00    -0.334 C  
ENDBRANCH   7  23
TORSDOF 2
ENDMDL
MODEL       28
REMARK 921   NORMALIZED FREE ENERGY PREDICTED BY IDOCK:   -5.25 KCAL/MOL
REMARK 922        TOTAL FREE ENERGY PREDICTED BY IDOCK:   -6.03 KCAL/MOL
REMARK 923 INTER-LIGAND FREE ENERGY PREDICTED BY IDOCK:   -5.86 KCAL/MOL
REMARK 924 INTRA-LIGAND FREE ENERGY PREDICTED BY IDOCK:   -0.16 KCAL/MOL
REMARK 927      BINDING AFFINITY PREDICTED BY RF-SCORE:    0.00 PKD
ROOT
HETATM    1  C   UNL     1      -9.222   9.076  66.102  1.00  0.00    -0.272 C  
HETATM    2  C   UNL     1      -8.086   9.710  65.538  1.00  0.00    -0.122 C  
HETATM    3  C   UNL     1      -8.353  10.029  66.960  1.00  0.00    -0.121 C  
HETATM    4  C   UNL     1      -9.791   8.873  67.858  1.00  0.00    -0.169 C  
HETATM    5  C   UNL     1     -11.815  12.360  65.138  1.00  0.00    -0.437 C  
HETATM    6  O   UNL     1     -10.191   8.765  69.223  1.00  0.00    -0.200 OA 
HETATM    7  C   UNL     1      -8.444   8.624  67.831  1.00  0.00    -0.129 C  
HETATM    8  C   UNL     1      -8.293   9.955  69.140  1.00  0.00    -0.145 C  
HETATM    9  C   UNL     1     -10.546  10.382  66.291  1.00  0.00    -0.180 C  
HETATM   10  C   UNL     1     -11.665  13.151  66.424  1.00  0.00    -0.429 C  
HETATM   11  H   UNL     1     -10.856   8.229  69.639  1.00  0.00     0.000 HD 
HETATM   12  C   UNL     1      -9.564  11.129  69.008  1.00  0.00    -0.099 C  
HETATM   13  C   UNL     1     -10.830  11.174  64.989  1.00  0.00    -0.244 C  
HETATM   14  C   UNL     1     -10.326  11.506  67.577  1.00  0.00    -0.220 C  
HETATM   15  C   UNL     1     -11.645  12.311  67.689  1.00  0.00    -0.421 C  
HETATM   16  C   UNL     1     -11.854  13.128  68.969  1.00  0.00    -0.358 C  
HETATM   17  C   UNL     1     -11.247  14.520  69.007  1.00  0.00    -0.289 C  
HETATM   18  C   UNL     1     -11.161  15.223  67.677  1.00  0.00    -0.320 C  
HETATM   19  C   UNL     1     -11.431  14.474  66.425  1.00  0.00    -0.362 C  
HETATM   20  O   UNL     1     -10.839  16.409  67.599  1.00  0.00    -0.327 OA 
ENDROOT
BRANCH   4  21
HETATM   21  C   UNL     1     -10.484   7.571  67.329  1.00  0.00    -0.391 C  
HETATM   22  C   UNL     1     -11.018   6.549  67.000  1.00  0.00    -0.466 C  
ENDBRANCH   4  21
BRANCH   7  23
HETATM   23  C   UNL     1      -7.626   7.388  68.097  1.00  0.00    -0.114 C  
HETATM   24  C   UNL     1      -6.238   7.533  67.475  1.00  0.00    -0.049 C  
ENDBRANCH   7  23
TORSDOF 2
ENDMDL
MODEL       29
REMARK 921   NORMALIZED FREE ENERGY PREDICTED BY IDOCK:   -5.25 KCAL/MOL
REMARK 922        TOTAL FREE ENERGY PREDICTED BY IDOCK:   -6.02 KCAL/MOL
REMARK 923 INTER-LIGAND FREE ENERGY PREDICTED BY IDOCK:   -5.86 KCAL/MOL
REMARK 924 INTRA-LIGAND FREE ENERGY PREDICTED BY IDOCK:   -0.16 KCAL/MOL
REMARK 927      BINDING AFFINITY PREDICTED BY RF-SCORE:    0.00 PKD
ROOT
HETATM    1  C   UNL     1      -8.647   7.089  70.493  1.00  0.00    -0.141 C  
HETATM    2  C   UNL     1      -7.599   7.968  70.870  1.00  0.00    -0.078 C  
HETATM    3  C   UNL     1      -8.746   7.905  71.806  1.00  0.00    -0.157 C  
HETATM    4  C   UNL     1     -10.097   6.408  71.429  1.00  0.00    -0.189 C  
HETATM    5  C   UNL     1     -10.809  10.181  68.445  1.00  0.00    -0.284 C  
HETATM    6  O   UNL     1     -11.206   5.931  72.190  1.00  0.00    -0.266 OA 
HETATM    7  C   UNL     1      -9.006   6.332  72.252  1.00  0.00    -0.136 C  
HETATM    8  C   UNL     1     -10.014   7.320  73.483  1.00  0.00    -0.366 C  
HETATM    9  C   UNL     1     -10.076   8.149  69.921  1.00  0.00    -0.195 C  
HETATM   10  C   UNL     1     -11.674  10.655  69.598  1.00  0.00    -0.368 C  
HETATM   11  H   UNL     1     -11.832   5.238  72.016  1.00  0.00     0.000 HD 
HETATM   12  C   UNL     1     -11.176   8.335  72.690  1.00  0.00    -0.410 C  
HETATM   13  C   UNL     1      -9.688   9.189  68.840  1.00  0.00    -0.165 C  
HETATM   14  C   UNL     1     -10.968   8.951  71.156  1.00  0.00    -0.356 C  
HETATM   15  C   UNL     1     -12.227   9.546  70.476  1.00  0.00    -0.096 C  
HETATM   16  C   UNL     1     -13.363  10.004  71.396  1.00  0.00    -0.432 C  
HETATM   17  C   UNL     1     -13.267  11.407  71.968  1.00  0.00    -0.432 C  
HETATM   18  C   UNL     1     -12.561  12.413  71.096  1.00  0.00    -0.251 C  
HETATM   19  C   UNL     1     -11.818  11.958  69.894  1.00  0.00    -0.418 C  
HETATM   20  O   UNL     1     -12.558  13.612  71.373  1.00  0.00    -0.349 OA 
ENDROOT
BRANCH   4  21
HETATM   21  C   UNL     1      -9.981   5.198  70.440  1.00  0.00    -0.316 C  
HETATM   22  C   UNL     1      -9.901   4.223  69.747  1.00  0.00    -0.258 C  
ENDBRANCH   4  21
BRANCH   7  23
HETATM   23  C   UNL     1      -8.251   5.173  72.848  1.00  0.00    -0.109 C  
HETATM   24  C   UNL     1      -6.927   5.655  73.438  1.00  0.00    -0.085 C  
ENDBRANCH   7  23
TORSDOF 2
ENDMDL
MODEL       30
REMARK 921   NORMALIZED FREE ENERGY PREDICTED BY IDOCK:   -5.21 KCAL/MOL
REMARK 922        TOTAL FREE ENERGY PREDICTED BY IDOCK:   -5.98 KCAL/MOL
REMARK 923 INTER-LIGAND FREE ENERGY PREDICTED BY IDOCK:   -5.96 KCAL/MOL
REMARK 924 INTRA-LIGAND FREE ENERGY PREDICTED BY IDOCK:   -0.03 KCAL/MOL
REMARK 927      BINDING AFFINITY PREDICTED BY RF-SCORE:    0.00 PKD
ROOT
HETATM    1  C   UNL     1     -10.919   7.301  71.601  1.00  0.00    -0.253 C  
HETATM    2  C   UNL     1     -11.977   6.674  70.893  1.00  0.00    -0.413 C  
HETATM    3  C   UNL     1     -10.756   6.952  70.100  1.00  0.00    -0.270 C  
HETATM    4  C   UNL     1      -9.127   7.555  71.192  1.00  0.00    -0.147 C  
HETATM    5  C   UNL     1     -12.223  11.243  70.510  1.00  0.00    -0.474 C  
HETATM    6  O   UNL     1      -7.763   7.742  70.817  1.00  0.00    -0.081 OA 
HETATM    7  C   UNL     1      -9.447   6.269  70.849  1.00  0.00    -0.185 C  
HETATM    8  C   UNL     1      -8.815   6.693  69.138  1.00  0.00    -0.129 C  
HETATM    9  C   UNL     1     -10.847   9.077  71.025  1.00  0.00    -0.345 C  
HETATM   10  C   UNL     1     -11.414  11.404  69.236  1.00  0.00    -0.370 C  
HETATM   11  H   UNL     1      -7.008   8.021  71.322  1.00  0.00     0.000 HD 
HETATM   12  C   UNL     1      -8.993   8.384  68.791  1.00  0.00    -0.140 C  
HETATM   13  C   UNL     1     -12.207   9.816  71.111  1.00  0.00    -0.453 C  
HETATM   14  C   UNL     1     -10.180   9.342  69.460  1.00  0.00    -0.219 C  
HETATM   15  C   UNL     1      -9.994  10.873  69.313  1.00  0.00    -0.137 C  
HETATM   16  C   UNL     1      -9.097  11.357  68.168  1.00  0.00    -0.174 C  
HETATM   17  C   UNL     1      -9.744  11.517  66.804  1.00  0.00    -0.220 C  
HETATM   18  C   UNL     1     -11.202  11.894  66.820  1.00  0.00    -0.327 C  
HETATM   19  C   UNL     1     -11.962  11.855  68.095  1.00  0.00    -0.222 C  
HETATM   20  O   UNL     1     -11.796  12.207  65.788  1.00  0.00    -0.469 OA 
ENDROOT
BRANCH   4  21
HETATM   21  C   UNL     1      -8.923   7.554  72.745  1.00  0.00    -0.195 C  
HETATM   22  C   UNL     1      -8.817   7.616  73.937  1.00  0.00    -0.311 C  
ENDBRANCH   4  21
BRANCH   7  23
HETATM   23  C   UNL     1      -8.997   4.929  71.368  1.00  0.00    -0.162 C  
HETATM   24  C   UNL     1      -9.539   3.811  70.478  1.00  0.00    -0.262 C  
ENDBRANCH   7  23
TORSDOF 2
ENDMDL
MODEL       31
REMARK 921   NORMALIZED FREE ENERGY PREDICTED BY IDOCK:   -5.18 KCAL/MOL
REMARK 922        TOTAL FREE ENERGY PREDICTED BY IDOCK:   -5.94 KCAL/MOL
REMARK 923 INTER-LIGAND FREE ENERGY PREDICTED BY IDOCK:   -5.80 KCAL/MOL
REMARK 924 INTRA-LIGAND FREE ENERGY PREDICTED BY IDOCK:   -0.14 KCAL/MOL
REMARK 927      BINDING AFFINITY PREDICTED BY RF-SCORE:    0.00 PKD
ROOT
HETATM    1  C   UNL     1      -8.653   8.281  66.975  1.00  0.00    -0.124 C  
HETATM    2  C   UNL     1      -7.334   8.788  67.094  1.00  0.00    -0.080 C  
HETATM    3  C   UNL     1      -8.322   9.356  68.041  1.00  0.00    -0.119 C  
HETATM    4  C   UNL     1     -10.136   8.397  68.085  1.00  0.00    -0.200 C  
HETATM    5  C   UNL     1      -9.845  11.385  64.259  1.00  0.00    -0.301 C  
HETATM    6  O   UNL     1     -11.250   8.537  68.966  1.00  0.00    -0.412 OA 
HETATM    7  C   UNL     1      -9.052   8.127  68.876  1.00  0.00    -0.147 C  
HETATM    8  C   UNL     1      -9.520   9.664  69.839  1.00  0.00    -0.260 C  
HETATM    9  C   UNL     1      -9.690   9.621  66.186  1.00  0.00    -0.317 C  
HETATM   10  C   UNL     1     -10.363  12.387  65.274  1.00  0.00    -0.308 C  
HETATM   11  H   UNL     1     -12.089   8.093  68.987  1.00  0.00     0.000 HD 
HETATM   12  C   UNL     1     -10.347  10.816  68.840  1.00  0.00    -0.220 C  
HETATM   13  C   UNL     1      -9.093  10.177  64.868  1.00  0.00    -0.256 C  
HETATM   14  C   UNL     1     -10.113  10.949  67.197  1.00  0.00    -0.235 C  
HETATM   15  C   UNL     1     -11.160  11.782  66.416  1.00  0.00    -0.360 C  
HETATM   16  C   UNL     1     -11.964  12.813  67.215  1.00  0.00    -0.345 C  
HETATM   17  C   UNL     1     -11.332  14.181  67.410  1.00  0.00    -0.346 C  
HETATM   18  C   UNL     1     -10.427  14.639  66.297  1.00  0.00    -0.298 C  
HETATM   19  C   UNL     1     -10.021  13.687  65.234  1.00  0.00    -0.229 C  
HETATM   20  O   UNL     1      -9.985  15.788  66.262  1.00  0.00    -0.258 OA 
ENDROOT
BRANCH   4  21
HETATM   21  C   UNL     1     -10.550   7.034  67.433  1.00  0.00    -0.372 C  
HETATM   22  C   UNL     1     -10.887   6.033  66.867  1.00  0.00    -0.396 C  
ENDBRANCH   4  21
BRANCH   7  23
HETATM   23  C   UNL     1      -8.677   6.944  69.729  1.00  0.00    -0.141 C  
HETATM   24  C   UNL     1      -7.253   7.109  70.260  1.00  0.00    -0.071 C  
ENDBRANCH   7  23
TORSDOF 2
ENDMDL
MODEL       32
REMARK 921   NORMALIZED FREE ENERGY PREDICTED BY IDOCK:   -5.15 KCAL/MOL
REMARK 922        TOTAL FREE ENERGY PREDICTED BY IDOCK:   -5.92 KCAL/MOL
REMARK 923 INTER-LIGAND FREE ENERGY PREDICTED BY IDOCK:   -5.83 KCAL/MOL
REMARK 924 INTRA-LIGAND FREE ENERGY PREDICTED BY IDOCK:   -0.08 KCAL/MOL
REMARK 927      BINDING AFFINITY PREDICTED BY RF-SCORE:    0.00 PKD
ROOT
HETATM    1  C   UNL     1     -11.037   6.086  70.894  1.00  0.00    -0.352 C  
HETATM    2  C   UNL     1      -9.877   5.271  70.939  1.00  0.00    -0.257 C  
HETATM    3  C   UNL     1      -9.636   6.729  71.052  1.00  0.00    -0.175 C  
HETATM    4  C   UNL     1     -11.320   7.873  71.311  1.00  0.00    -0.260 C  
HETATM    5  C   UNL     1     -10.770   6.623  66.643  1.00  0.00    -0.216 C  
HETATM    6  O   UNL     1     -11.476   9.256  71.625  1.00  0.00    -0.355 OA 
HETATM    7  C   UNL     1     -10.536   7.340  72.299  1.00  0.00    -0.257 C  
HETATM    8  C   UNL     1      -9.320   8.710  71.911  1.00  0.00    -0.357 C  
HETATM    9  C   UNL     1     -11.053   6.930  69.226  1.00  0.00    -0.229 C  
HETATM   10  C   UNL     1      -9.929   7.887  66.627  1.00  0.00    -0.316 C  
HETATM   11  H   UNL     1     -12.255   9.786  71.745  1.00  0.00     0.000 HD 
HETATM   12  C   UNL     1      -9.438   9.219  70.255  1.00  0.00    -0.277 C  
HETATM   13  C   UNL     1     -10.906   5.954  68.032  1.00  0.00    -0.321 C  
HETATM   14  C   UNL     1      -9.934   8.222  69.017  1.00  0.00    -0.193 C  
HETATM   15  C   UNL     1     -10.303   8.914  67.681  1.00  0.00    -0.313 C  
HETATM   16  C   UNL     1      -9.700  10.299  67.426  1.00  0.00    -0.189 C  
HETATM   17  C   UNL     1      -8.307  10.346  66.823  1.00  0.00    -0.126 C  
HETATM   18  C   UNL     1      -7.961   9.201  65.907  1.00  0.00    -0.106 C  
HETATM   19  C   UNL     1      -8.853   8.018  65.832  1.00  0.00    -0.189 C  
HETATM   20  O   UNL     1      -6.929   9.207  65.236  1.00  0.00    -0.082 OA 
ENDROOT
BRANCH   4  21
HETATM   21  C   UNL     1     -12.786   7.417  71.624  1.00  0.00    -0.406 C  
HETATM   22  C   UNL     1     -13.928   7.093  71.789  1.00  0.00    -0.406 C  
ENDBRANCH   4  21
BRANCH   7  23
HETATM   23  C   UNL     1     -10.764   7.103  73.769  1.00  0.00    -0.191 C  
HETATM   24  C   UNL     1      -9.941   5.906  74.242  1.00  0.00    -0.262 C  
ENDBRANCH   7  23
TORSDOF 2
ENDMDL
MODEL       33
REMARK 921   NORMALIZED FREE ENERGY PREDICTED BY IDOCK:   -5.11 KCAL/MOL
REMARK 922        TOTAL FREE ENERGY PREDICTED BY IDOCK:   -5.86 KCAL/MOL
REMARK 923 INTER-LIGAND FREE ENERGY PREDICTED BY IDOCK:   -5.68 KCAL/MOL
REMARK 924 INTRA-LIGAND FREE ENERGY PREDICTED BY IDOCK:   -0.19 KCAL/MOL
REMARK 927      BINDING AFFINITY PREDICTED BY RF-SCORE:    0.00 PKD
ROOT
HETATM    1  C   UNL     1     -10.223  10.406  66.900  1.00  0.00    -0.281 C  
HETATM    2  C   UNL     1     -10.023  10.440  65.497  1.00  0.00    -0.348 C  
HETATM    3  C   UNL     1      -8.949  11.059  66.308  1.00  0.00    -0.195 C  
HETATM    4  C   UNL     1      -9.080  10.723  68.328  1.00  0.00    -0.157 C  
HETATM    5  C   UNL     1     -12.130  14.252  66.951  1.00  0.00    -0.440 C  
HETATM    6  O   UNL     1      -8.164  10.999  69.387  1.00  0.00    -0.365 OA 
HETATM    7  C   UNL     1      -8.398   9.961  67.418  1.00  0.00    -0.118 C  
HETATM    8  C   UNL     1      -7.099  11.310  67.439  1.00  0.00    -0.109 C  
HETATM    9  C   UNL     1     -10.661  12.142  67.438  1.00  0.00    -0.268 C  
HETATM   10  C   UNL     1     -10.901  15.111  67.186  1.00  0.00    -0.320 C  
HETATM   11  H   UNL     1      -8.225  10.843  70.322  1.00  0.00     0.000 HD 
HETATM   12  C   UNL     1      -7.789  12.855  67.824  1.00  0.00    -0.158 C  
HETATM   13  C   UNL     1     -11.831  12.766  66.636  1.00  0.00    -0.462 C  
HETATM   14  C   UNL     1      -9.364  13.273  67.482  1.00  0.00    -0.218 C  
HETATM   15  C   UNL     1      -9.909  14.542  68.185  1.00  0.00    -0.223 C  
HETATM   16  C   UNL     1      -8.876  15.564  68.671  1.00  0.00    -0.193 C  
HETATM   17  C   UNL     1      -8.390  16.589  67.661  1.00  0.00    -0.175 C  
HETATM   18  C   UNL     1      -9.391  16.983  66.607  1.00  0.00    -0.255 C  
HETATM   19  C   UNL     1     -10.653  16.215  66.461  1.00  0.00    -0.268 C  
HETATM   20  O   UNL     1      -9.174  17.915  65.833  1.00  0.00    -0.519 OA 
ENDROOT
BRANCH   4  21
HETATM   21  C   UNL     1     -10.017   9.737  69.107  1.00  0.00    -0.195 C  
HETATM   22  C   UNL     1     -10.695   9.005  69.771  1.00  0.00    -0.233 C  
ENDBRANCH   4  21
BRANCH   7  23
HETATM   23  C   UNL     1      -7.846   8.560  67.465  1.00  0.00    -0.099 C  
HETATM   24  C   UNL     1      -7.511   8.080  66.054  1.00  0.00    -0.077 C  
ENDBRANCH   7  23
TORSDOF 2
ENDMDL
MODEL       34
REMARK 921   NORMALIZED FREE ENERGY PREDICTED BY IDOCK:   -5.07 KCAL/MOL
REMARK 922        TOTAL FREE ENERGY PREDICTED BY IDOCK:   -5.82 KCAL/MOL
REMARK 923 INTER-LIGAND FREE ENERGY PREDICTED BY IDOCK:   -5.66 KCAL/MOL
REMARK 924 INTRA-LIGAND FREE ENERGY PREDICTED BY IDOCK:   -0.16 KCAL/MOL
REMARK 927      BINDING AFFINITY PREDICTED BY RF-SCORE:    0.00 PKD
ROOT
HETATM    1  C   UNL     1      -9.666   8.319  69.671  1.00  0.00    -0.173 C  
HETATM    2  C   UNL     1     -11.015   7.917  69.843  1.00  0.00    -0.179 C  
HETATM    3  C   UNL     1     -10.487   7.798  68.464  1.00  0.00    -0.202 C  
HETATM    4  C   UNL     1      -8.461   8.068  68.282  1.00  0.00    -0.123 C  
HETATM    5  C   UNL     1     -10.758  12.341  68.637  1.00  0.00    -0.261 C  
HETATM    6  O   UNL     1      -7.583   7.865  67.176  1.00  0.00    -0.096 OA 
HETATM    7  C   UNL     1      -9.110   6.879  68.481  1.00  0.00    -0.127 C  
HETATM    8  C   UNL     1      -9.571   6.963  66.668  1.00  0.00    -0.218 C  
HETATM    9  C   UNL     1      -9.689   9.955  68.768  1.00  0.00    -0.164 C  
HETATM   10  C   UNL     1     -10.858  12.168  67.132  1.00  0.00    -0.286 C  
HETATM   11  H   UNL     1      -6.645   7.990  67.091  1.00  0.00     0.000 HD 
HETATM   12  C   UNL     1      -9.667   8.602  66.108  1.00  0.00    -0.292 C  
HETATM   13  C   UNL     1     -10.598  11.021  69.431  1.00  0.00    -0.212 C  
HETATM   14  C   UNL     1     -10.059   9.890  67.087  1.00  0.00    -0.270 C  
HETATM   15  C   UNL     1      -9.773  11.302  66.517  1.00  0.00    -0.230 C  
HETATM   16  C   UNL     1      -9.678  11.430  64.993  1.00  0.00    -0.286 C  
HETATM   17  C   UNL     1     -10.980  11.618  64.234  1.00  0.00    -0.418 C  
HETATM   18  C   UNL     1     -12.063  12.354  64.979  1.00  0.00    -0.407 C  
HETATM   19  C   UNL     1     -11.905  12.632  66.429  1.00  0.00    -0.466 C  
HETATM   20  O   UNL     1     -13.100  12.707  64.419  1.00  0.00    -0.752 OA 
ENDROOT
BRANCH   4  21
HETATM   21  C   UNL     1      -7.371   8.164  69.405  1.00  0.00    -0.076 C  
HETATM   22  C   UNL     1      -6.484   8.215  70.208  1.00  0.00    -0.036 C  
ENDBRANCH   4  21
BRANCH   7  23
HETATM   23  C   UNL     1      -8.644   5.525  68.947  1.00  0.00    -0.100 C  
HETATM   24  C   UNL     1      -9.828   4.713  69.469  1.00  0.00    -0.286 C  
ENDBRANCH   7  23
TORSDOF 2
ENDMDL
MODEL       35
REMARK 921   NORMALIZED FREE ENERGY PREDICTED BY IDOCK:   -5.05 KCAL/MOL
REMARK 922        TOTAL FREE ENERGY PREDICTED BY IDOCK:   -5.80 KCAL/MOL
REMARK 923 INTER-LIGAND FREE ENERGY PREDICTED BY IDOCK:   -5.63 KCAL/MOL
REMARK 924 INTRA-LIGAND FREE ENERGY PREDICTED BY IDOCK:   -0.17 KCAL/MOL
REMARK 927      BINDING AFFINITY PREDICTED BY RF-SCORE:    0.00 PKD
ROOT
HETATM    1  C   UNL     1      -9.515  16.315  68.295  1.00  0.00    -0.214 C  
HETATM    2  C   UNL     1      -8.719  16.386  69.466  1.00  0.00     0.177 C  
HETATM    3  C   UNL     1      -8.514  15.181  68.629  1.00  0.00    -0.170 C  
HETATM    4  C   UNL     1      -9.419  15.235  66.788  1.00  0.00    -0.245 C  
HETATM    5  C   UNL     1     -12.625  14.108  70.267  1.00  0.00    -0.367 C  
HETATM    6  O   UNL     1      -9.311  14.365  65.663  1.00  0.00    -0.527 OA 
HETATM    7  C   UNL     1      -8.145  15.643  67.083  1.00  0.00    -0.247 C  
HETATM    8  C   UNL     1      -7.700  13.824  67.125  1.00  0.00     0.009 C  
HETATM    9  C   UNL     1     -10.828  15.020  68.598  1.00  0.00    -0.249 C  
HETATM   10  C   UNL     1     -12.131  12.705  69.969  1.00  0.00    -0.339 C  
HETATM   11  H   UNL     1      -9.730  14.390  64.811  1.00  0.00     0.000 HD 
HETATM   12  C   UNL     1      -9.060  12.844  67.574  1.00  0.00    -0.191 C  
HETATM   13  C   UNL     1     -11.628  15.237  69.907  1.00  0.00    -0.335 C  
HETATM   14  C   UNL     1     -10.305  13.380  68.542  1.00  0.00    -0.240 C  
HETATM   15  C   UNL     1     -11.585  12.507  68.566  1.00  0.00    -0.364 C  
HETATM   16  C   UNL     1     -11.429  11.035  68.172  1.00  0.00    -0.374 C  
HETATM   17  C   UNL     1     -11.003  10.069  69.264  1.00  0.00    -0.264 C  
HETATM   18  C   UNL     1     -11.457  10.426  70.655  1.00  0.00    -0.349 C  
HETATM   19  C   UNL     1     -12.057  11.757  70.919  1.00  0.00    -0.271 C  
HETATM   20  O   UNL     1     -11.314   9.645  71.597  1.00  0.00    -0.374 OA 
ENDROOT
BRANCH   4  21
HETATM   21  C   UNL     1     -10.105  16.441  66.059  1.00  0.00    -0.373 C  
HETATM   22  C   UNL     1     -10.696  17.318  65.495  1.00  0.00    -0.105 C  
ENDBRANCH   4  21
BRANCH   7  23
HETATM   23  C   UNL     1      -7.155  16.513  66.354  1.00  0.00    -0.023 C  
HETATM   24  C   UNL     1      -6.016  16.911  67.292  1.00  0.00    -0.195 C  
ENDBRANCH   7  23
TORSDOF 2
ENDMDL
MODEL       36
REMARK 921   NORMALIZED FREE ENERGY PREDICTED BY IDOCK:   -5.04 KCAL/MOL
REMARK 922        TOTAL FREE ENERGY PREDICTED BY IDOCK:   -5.79 KCAL/MOL
REMARK 923 INTER-LIGAND FREE ENERGY PREDICTED BY IDOCK:   -5.60 KCAL/MOL
REMARK 924 INTRA-LIGAND FREE ENERGY PREDICTED BY IDOCK:   -0.19 KCAL/MOL
REMARK 927      BINDING AFFINITY PREDICTED BY RF-SCORE:    0.00 PKD
ROOT
HETATM    1  C   UNL     1      -9.516   9.068  70.744  1.00  0.00    -0.308 C  
HETATM    2  C   UNL     1      -8.238   8.720  70.237  1.00  0.00    -0.120 C  
HETATM    3  C   UNL     1      -9.295   7.697  70.056  1.00  0.00    -0.154 C  
HETATM    4  C   UNL     1     -11.199   8.326  70.493  1.00  0.00    -0.239 C  
HETATM    5  C   UNL     1      -8.752   7.241  74.554  1.00  0.00    -0.215 C  
HETATM    6  O   UNL     1     -12.464   7.702  70.281  1.00  0.00    -0.301 OA 
HETATM    7  C   UNL     1     -10.585   8.375  69.270  1.00  0.00    -0.193 C  
HETATM    8  C   UNL     1     -10.911   6.534  69.164  1.00  0.00    -0.380 C  
HETATM    9  C   UNL     1      -9.788   8.058  72.294  1.00  0.00    -0.301 C  
HETATM   10  C   UNL     1      -9.292   5.855  74.252  1.00  0.00    -0.144 C  
HETATM   11  H   UNL     1     -13.346   7.992  70.484  1.00  0.00     0.000 HD 
HETATM   12  C   UNL     1     -10.975   5.804  70.738  1.00  0.00    -0.312 C  
HETATM   13  C   UNL     1      -8.634   8.172  73.322  1.00  0.00    -0.308 C  
HETATM   14  C   UNL     1     -10.149   6.391  72.060  1.00  0.00    -0.197 C  
HETATM   15  C   UNL     1     -10.576   5.834  73.442  1.00  0.00    -0.283 C  
HETATM   16  C   UNL     1     -11.285   4.476  73.454  1.00  0.00    -0.404 C  
HETATM   17  C   UNL     1     -10.406   3.237  73.462  1.00  0.00    -0.234 C  
HETATM   18  C   UNL     1      -9.077   3.392  74.154  1.00  0.00    -0.089 C  
HETATM   19  C   UNL     1      -8.608   4.739  74.561  1.00  0.00    -0.105 C  
HETATM   20  O   UNL     1      -8.348   2.423  74.366  1.00  0.00    -0.064 OA 
ENDROOT
BRANCH   4  21
HETATM   21  C   UNL     1     -11.720   9.776  70.777  1.00  0.00    -0.407 C  
HETATM   22  C   UNL     1     -12.194  10.854  70.998  1.00  0.00    -0.464 C  
ENDBRANCH   4  21
BRANCH   7  23
HETATM   23  C   UNL     1     -10.883   9.137  68.005  1.00  0.00    -0.135 C  
HETATM   24  C   UNL     1      -9.699   9.041  67.043  1.00  0.00    -0.247 C  
ENDBRANCH   7  23
TORSDOF 2
ENDMDL
MODEL       37
REMARK 921   NORMALIZED FREE ENERGY PREDICTED BY IDOCK:   -4.99 KCAL/MOL
REMARK 922        TOTAL FREE ENERGY PREDICTED BY IDOCK:   -5.74 KCAL/MOL
REMARK 923 INTER-LIGAND FREE ENERGY PREDICTED BY IDOCK:   -5.55 KCAL/MOL
REMARK 924 INTRA-LIGAND FREE ENERGY PREDICTED BY IDOCK:   -0.18 KCAL/MOL
REMARK 927      BINDING AFFINITY PREDICTED BY RF-SCORE:    0.00 PKD
ROOT
HETATM    1  C   UNL     1     -11.598  12.675  67.549  1.00  0.00    -0.418 C  
HETATM    2  C   UNL     1     -11.715  12.376  68.931  1.00  0.00    -0.372 C  
HETATM    3  C   UNL     1     -10.414  12.948  68.510  1.00  0.00    -0.260 C  
HETATM    4  C   UNL     1     -10.362  13.675  66.592  1.00  0.00    -0.275 C  
HETATM    5  C   UNL     1      -9.922   8.831  66.628  1.00  0.00    -0.355 C  
HETATM    6  O   UNL     1      -9.371  14.437  65.903  1.00  0.00    -0.505 OA 
HETATM    7  C   UNL     1     -10.673  14.381  67.722  1.00  0.00    -0.248 C  
HETATM    8  C   UNL     1      -8.835  14.392  68.079  1.00  0.00    -0.178 C  
HETATM    9  C   UNL     1     -10.475  11.383  66.799  1.00  0.00    -0.284 C  
HETATM   10  C   UNL     1      -8.454   9.181  66.787  1.00  0.00    -0.125 C  
HETATM   11  H   UNL     1      -9.347  14.773  65.015  1.00  0.00     0.000 HD 
HETATM   12  C   UNL     1      -8.043  13.008  67.394  1.00  0.00    -0.180 C  
HETATM   13  C   UNL     1     -10.904   9.927  67.108  1.00  0.00    -0.227 C  
HETATM   14  C   UNL     1      -8.796  11.544  67.145  1.00  0.00    -0.168 C  
HETATM   15  C   UNL     1      -8.058  10.536  66.228  1.00  0.00    -0.142 C  
HETATM   16  C   UNL     1      -6.544  10.716  66.075  1.00  0.00    -0.128 C  
HETATM   17  C   UNL     1      -5.662  10.077  67.133  1.00  0.00    -0.046 C  
HETATM   18  C   UNL     1      -6.205   8.815  67.751  1.00  0.00    -0.056 C  
HETATM   19  C   UNL     1      -7.608   8.409  67.491  1.00  0.00    -0.098 C  
HETATM   20  O   UNL     1      -5.517   8.120  68.499  1.00  0.00    -0.031 OA 
ENDROOT
BRANCH   4  21
HETATM   21  C   UNL     1     -11.545  13.910  65.591  1.00  0.00    -0.338 C  
HETATM   22  C   UNL     1     -12.401  14.138  64.784  1.00  0.00    -0.436 C  
ENDBRANCH   4  21
BRANCH   7  23
HETATM   23  C   UNL     1     -11.362  15.702  67.947  1.00  0.00    -0.302 C  
HETATM   24  C   UNL     1     -11.766  15.841  69.414  1.00  0.00    -0.379 C  
ENDBRANCH   7  23
TORSDOF 2
ENDMDL
MODEL       38
REMARK 921   NORMALIZED FREE ENERGY PREDICTED BY IDOCK:   -4.96 KCAL/MOL
REMARK 922        TOTAL FREE ENERGY PREDICTED BY IDOCK:   -5.70 KCAL/MOL
REMARK 923 INTER-LIGAND FREE ENERGY PREDICTED BY IDOCK:   -5.57 KCAL/MOL
REMARK 924 INTRA-LIGAND FREE ENERGY PREDICTED BY IDOCK:   -0.13 KCAL/MOL
REMARK 927      BINDING AFFINITY PREDICTED BY RF-SCORE:    0.00 PKD
ROOT
HETATM    1  C   UNL     1      -8.860   9.876  67.011  1.00  0.00    -0.144 C  
HETATM    2  C   UNL     1      -9.528   8.893  66.236  1.00  0.00    -0.304 C  
HETATM    3  C   UNL     1     -10.367   9.595  67.236  1.00  0.00    -0.310 C  
HETATM    4  C   UNL     1      -9.488  11.224  68.121  1.00  0.00    -0.184 C  
HETATM    5  C   UNL     1      -7.907   7.090  70.136  1.00  0.00    -0.109 C  
HETATM    6  O   UNL     1     -10.025  12.230  68.978  1.00  0.00    -0.421 OA 
HETATM    7  C   UNL     1     -10.262  11.229  66.991  1.00  0.00    -0.250 C  
HETATM    8  C   UNL     1     -11.729  11.041  68.139  1.00  0.00    -0.277 C  
HETATM    9  C   UNL     1      -8.642   9.170  68.728  1.00  0.00    -0.131 C  
HETATM   10  C   UNL     1      -9.135   7.296  71.004  1.00  0.00    -0.153 C  
HETATM   11  H   UNL     1      -9.618  12.985  69.388  1.00  0.00     0.000 HD 
HETATM   12  C   UNL     1     -11.293  10.224  69.606  1.00  0.00    -0.315 C  
HETATM   13  C   UNL     1      -7.975   7.771  68.748  1.00  0.00    -0.125 C  
HETATM   14  C   UNL     1     -10.055   9.115  69.711  1.00  0.00    -0.211 C  
HETATM   15  C   UNL     1      -9.584   8.740  71.139  1.00  0.00    -0.309 C  
HETATM   16  C   UNL     1     -10.581   8.966  72.281  1.00  0.00    -0.221 C  
HETATM   17  C   UNL     1     -11.587   7.861  72.549  1.00  0.00    -0.443 C  
HETATM   18  C   UNL     1     -11.111   6.465  72.239  1.00  0.00    -0.265 C  
HETATM   19  C   UNL     1      -9.843   6.264  71.496  1.00  0.00    -0.193 C  
HETATM   20  O   UNL     1     -11.771   5.477  72.562  1.00  0.00    -0.272 OA 
ENDROOT
BRANCH   4  21
HETATM   21  C   UNL     1      -8.156  11.958  67.740  1.00  0.00    -0.146 C  
HETATM   22  C   UNL     1      -7.183  12.581  67.424  1.00  0.00    -0.146 C  
ENDBRANCH   4  21
BRANCH   7  23
HETATM   23  C   UNL     1     -10.455  12.235  65.887  1.00  0.00    -0.288 C  
HETATM   24  C   UNL     1     -11.005  11.547  64.639  1.00  0.00    -0.353 C  
ENDBRANCH   7  23
TORSDOF 2
ENDMDL
MODEL       39
REMARK 921   NORMALIZED FREE ENERGY PREDICTED BY IDOCK:   -4.95 KCAL/MOL
REMARK 922        TOTAL FREE ENERGY PREDICTED BY IDOCK:   -5.69 KCAL/MOL
REMARK 923 INTER-LIGAND FREE ENERGY PREDICTED BY IDOCK:   -5.50 KCAL/MOL
REMARK 924 INTRA-LIGAND FREE ENERGY PREDICTED BY IDOCK:   -0.19 KCAL/MOL
REMARK 927      BINDING AFFINITY PREDICTED BY RF-SCORE:    0.00 PKD
ROOT
HETATM    1  C   UNL     1      -9.438   9.864  69.937  1.00  0.00    -0.256 C  
HETATM    2  C   UNL     1      -8.023   9.772  69.940  1.00  0.00    -0.184 C  
HETATM    3  C   UNL     1      -8.666   9.643  68.612  1.00  0.00    -0.124 C  
HETATM    4  C   UNL     1     -10.667  10.097  68.565  1.00  0.00    -0.230 C  
HETATM    5  C   UNL     1      -9.942   5.617  70.316  1.00  0.00    -0.269 C  
HETATM    6  O   UNL     1     -11.568  10.255  67.470  1.00  0.00    -0.537 OA 
HETATM    7  C   UNL     1      -9.630  10.961  68.337  1.00  0.00    -0.177 C  
HETATM    8  C   UNL     1      -9.483  10.155  66.654  1.00  0.00    -0.211 C  
HETATM    9  C   UNL     1     -10.102   8.142  69.644  1.00  0.00    -0.199 C  
HETATM   10  C   UNL     1     -10.000   5.264  68.841  1.00  0.00    -0.250 C  
HETATM   11  H   UNL     1     -12.494  10.465  67.448  1.00  0.00     0.000 HD 
HETATM   12  C   UNL     1     -10.032   8.509  66.683  1.00  0.00    -0.363 C  
HETATM   13  C   UNL     1      -9.529   7.079  70.615  1.00  0.00    -0.165 C  
HETATM   14  C   UNL     1      -9.971   7.540  68.036  1.00  0.00    -0.204 C  
HETATM   15  C   UNL     1     -10.799   6.231  67.986  1.00  0.00    -0.409 C  
HETATM   16  C   UNL     1     -11.143   5.681  66.598  1.00  0.00    -0.013 C  
HETATM   17  C   UNL     1     -10.104   4.800  65.927  1.00  0.00    -0.265 C  
HETATM   18  C   UNL     1      -9.245   3.988  66.861  1.00  0.00    -0.167 C  
HETATM   19  C   UNL     1      -9.284   4.253  68.320  1.00  0.00    -0.190 C  
HETATM   20  O   UNL     1      -8.479   3.121  66.437  1.00  0.00    -0.101 OA 
ENDROOT
BRANCH   4  21
HETATM   21  C   UNL     1     -11.555  10.764  69.671  1.00  0.00    -0.388 C  
HETATM   22  C   UNL     1     -12.295  11.276  70.462  1.00  0.00    -0.446 C  
ENDBRANCH   4  21
BRANCH   7  23
HETATM   23  C   UNL     1      -9.535  12.464  68.322  1.00  0.00    -0.203 C  
HETATM   24  C   UNL     1      -8.071  12.897  68.249  1.00  0.00    -0.151 C  
ENDBRANCH   7  23
TORSDOF 2
ENDMDL
MODEL       40
REMARK 921   NORMALIZED FREE ENERGY PREDICTED BY IDOCK:   -4.90 KCAL/MOL
REMARK 922        TOTAL FREE ENERGY PREDICTED BY IDOCK:   -5.64 KCAL/MOL
REMARK 923 INTER-LIGAND FREE ENERGY PREDICTED BY IDOCK:   -5.45 KCAL/MOL
REMARK 924 INTRA-LIGAND FREE ENERGY PREDICTED BY IDOCK:   -0.18 KCAL/MOL
REMARK 927      BINDING AFFINITY PREDICTED BY RF-SCORE:    0.00 PKD
ROOT
HETATM    1  C   UNL     1     -11.510  11.876  67.620  1.00  0.00    -0.387 C  
HETATM    2  C   UNL     1     -11.541  11.854  69.037  1.00  0.00    -0.376 C  
HETATM    3  C   UNL     1     -10.294  12.382  68.436  1.00  0.00    -0.236 C  
HETATM    4  C   UNL     1     -10.375  12.713  66.413  1.00  0.00    -0.249 C  
HETATM    5  C   UNL     1      -9.688   7.996  67.375  1.00  0.00    -0.216 C  
HETATM    6  O   UNL     1      -9.460  13.362  65.531  1.00  0.00    -0.494 OA 
HETATM    7  C   UNL     1     -10.665  13.618  67.399  1.00  0.00    -0.272 C  
HETATM    8  C   UNL     1      -8.814  13.773  67.637  1.00  0.00    -0.189 C  
HETATM    9  C   UNL     1     -10.361  10.507  67.073  1.00  0.00    -0.289 C  
HETATM   10  C   UNL     1      -8.233   8.429  67.376  1.00  0.00    -0.120 C  
HETATM   11  H   UNL     1      -9.498  13.515  64.594  1.00  0.00     0.000 HD 
HETATM   12  C   UNL     1      -7.988  12.313  67.192  1.00  0.00    -0.161 C  
HETATM   13  C   UNL     1     -10.699   9.125  67.688  1.00  0.00    -0.257 C  
HETATM   14  C   UNL     1      -8.677  10.800  67.281  1.00  0.00    -0.130 C  
HETATM   15  C   UNL     1      -7.935   9.660  66.538  1.00  0.00    -0.112 C  
HETATM   16  C   UNL     1      -6.442   9.866  66.263  1.00  0.00    -0.077 C  
HETATM   17  C   UNL     1      -5.477   9.486  67.373  1.00  0.00    -0.036 C  
HETATM   18  C   UNL     1      -5.923   8.352  68.258  1.00  0.00    -0.046 C  
HETATM   19  C   UNL     1      -7.315   7.847  68.167  1.00  0.00    -0.099 C  
HETATM   20  O   UNL     1      -5.164   7.849  69.087  1.00  0.00    -0.021 OA 
ENDROOT
BRANCH   4  21
HETATM   21  C   UNL     1     -11.617  12.697  65.457  1.00  0.00    -0.409 C  
HETATM   22  C   UNL     1     -12.516  12.674  64.665  1.00  0.00    -0.538 C  
ENDBRANCH   4  21
BRANCH   7  23
HETATM   23  C   UNL     1     -11.408  14.928  67.399  1.00  0.00    -0.354 C  
HETATM   24  C   UNL     1     -11.567  15.441  68.829  1.00  0.00    -0.382 C  
ENDBRANCH   7  23
TORSDOF 2
ENDMDL
MODEL       41
REMARK 921   NORMALIZED FREE ENERGY PREDICTED BY IDOCK:   -4.90 KCAL/MOL
REMARK 922        TOTAL FREE ENERGY PREDICTED BY IDOCK:   -5.63 KCAL/MOL
REMARK 923 INTER-LIGAND FREE ENERGY PREDICTED BY IDOCK:   -5.67 KCAL/MOL
REMARK 924 INTRA-LIGAND FREE ENERGY PREDICTED BY IDOCK:    0.04 KCAL/MOL
REMARK 927      BINDING AFFINITY PREDICTED BY RF-SCORE:    0.00 PKD
ROOT
HETATM    1  C   UNL     1     -11.906  12.954  66.803  1.00  0.00    -0.452 C  
HETATM    2  C   UNL     1     -12.033  13.732  67.983  1.00  0.00    -0.390 C  
HETATM    3  C   UNL     1     -10.658  13.612  67.444  1.00  0.00    -0.260 C  
HETATM    4  C   UNL     1     -10.524  12.769  65.578  1.00  0.00    -0.287 C  
HETATM    5  C   UNL     1     -11.091   9.352  68.993  1.00  0.00    -0.014 C  
HETATM    6  O   UNL     1      -9.422  12.648  64.680  1.00  0.00    -0.431 OA 
HETATM    7  C   UNL     1     -10.643  14.103  65.863  1.00  0.00    -0.301 C  
HETATM    8  C   UNL     1      -8.831  14.044  66.331  1.00  0.00     0.057 C  
HETATM    9  C   UNL     1     -11.100  11.340  67.291  1.00  0.00    -0.367 C  
HETATM   10  C   UNL     1      -9.578   9.455  69.042  1.00  0.00    -0.164 C  
HETATM   11  H   UNL     1      -9.359  12.257  63.817  1.00  0.00     0.000 HD 
HETATM   12  C   UNL     1      -8.366  12.468  66.889  1.00  0.00    -0.097 C  
HETATM   13  C   UNL     1     -11.809  10.618  68.464  1.00  0.00    -0.087 C  
HETATM   14  C   UNL     1      -9.413  11.406  67.630  1.00  0.00    -0.165 C  
HETATM   15  C   UNL     1      -8.931   9.939  67.757  1.00  0.00    -0.134 C  
HETATM   16  C   UNL     1      -7.418   9.697  67.705  1.00  0.00    -0.091 C  
HETATM   17  C   UNL     1      -6.651   9.841  69.007  1.00  0.00    -0.049 C  
HETATM   18  C   UNL     1      -7.421   9.488  70.253  1.00  0.00    -0.143 C  
HETATM   19  C   UNL     1      -8.886   9.265  70.179  1.00  0.00    -0.235 C  
HETATM   20  O   UNL     1      -6.866   9.410  71.349  1.00  0.00    -0.272 OA 
ENDROOT
BRANCH   4  21
HETATM   21  C   UNL     1     -11.667  12.436  64.559  1.00  0.00    -0.427 C  
HETATM   22  C   UNL     1     -12.512  12.241  63.733  1.00  0.00    -0.619 C  
ENDBRANCH   4  21
BRANCH   7  23
HETATM   23  C   UNL     1     -11.037  15.295  65.031  1.00  0.00    -0.436 C  
HETATM   24  C   UNL     1     -10.635  16.587  65.742  1.00  0.00    -0.307 C  
ENDBRANCH   7  23
TORSDOF 2
ENDMDL
MODEL       42
REMARK 921   NORMALIZED FREE ENERGY PREDICTED BY IDOCK:   -4.88 KCAL/MOL
REMARK 922        TOTAL FREE ENERGY PREDICTED BY IDOCK:   -5.61 KCAL/MOL
REMARK 923 INTER-LIGAND FREE ENERGY PREDICTED BY IDOCK:   -5.45 KCAL/MOL
REMARK 924 INTRA-LIGAND FREE ENERGY PREDICTED BY IDOCK:   -0.16 KCAL/MOL
REMARK 927      BINDING AFFINITY PREDICTED BY RF-SCORE:    0.00 PKD
ROOT
HETATM    1  C   UNL     1      -7.927   7.555  68.369  1.00  0.00    -0.123 C  
HETATM    2  C   UNL     1      -8.547   6.289  68.208  1.00  0.00    -0.117 C  
HETATM    3  C   UNL     1      -9.366   7.455  67.802  1.00  0.00    -0.144 C  
HETATM    4  C   UNL     1      -8.361   9.242  67.730  1.00  0.00    -0.116 C  
HETATM    5  C   UNL     1      -9.550   8.102  72.306  1.00  0.00    -0.319 C  
HETATM    6  O   UNL     1      -8.754  10.520  67.229  1.00  0.00    -0.126 OA 
HETATM    7  C   UNL     1      -8.527   8.358  66.698  1.00  0.00    -0.113 C  
HETATM    8  C   UNL     1     -10.277   9.012  66.574  1.00  0.00    -0.318 C  
HETATM    9  C   UNL     1      -8.740   8.384  69.833  1.00  0.00    -0.136 C  
HETATM   10  C   UNL     1     -10.831   8.821  71.925  1.00  0.00    -0.431 C  
HETATM   11  H   UNL     1      -8.289  11.347  67.196  1.00  0.00     0.000 HD 
HETATM   12  C   UNL     1     -10.852   9.593  68.105  1.00  0.00    -0.241 C  
HETATM   13  C   UNL     1      -8.760   7.511  71.113  1.00  0.00    -0.136 C  
HETATM   14  C   UNL     1     -10.324   9.006  69.572  1.00  0.00    -0.211 C  
HETATM   15  C   UNL     1     -10.678   9.852  70.821  1.00  0.00    -0.350 C  
HETATM   16  C   UNL     1     -11.875  10.801  70.700  1.00  0.00    -0.460 C  
HETATM   17  C   UNL     1     -13.250  10.216  70.967  1.00  0.00    -0.412 C  
HETATM   18  C   UNL     1     -13.290   9.087  71.964  1.00  0.00    -0.438 C  
HETATM   19  C   UNL     1     -12.025   8.468  72.431  1.00  0.00    -0.434 C  
HETATM   20  O   UNL     1     -14.358   8.639  72.382  1.00  0.00    -0.482 OA 
ENDROOT
BRANCH   4  21
HETATM   21  C   UNL     1      -6.821   9.515  67.827  1.00  0.00    -0.078 C  
HETATM   22  C   UNL     1      -5.658   9.798  67.871  1.00  0.00    -0.040 C  
ENDBRANCH   4  21
BRANCH   7  23
HETATM   23  C   UNL     1      -7.828   8.187  65.374  1.00  0.00    -0.115 C  
HETATM   24  C   UNL     1      -8.053   6.773  64.840  1.00  0.00    -0.112 C  
ENDBRANCH   7  23
TORSDOF 2
ENDMDL
MODEL       43
REMARK 921   NORMALIZED FREE ENERGY PREDICTED BY IDOCK:   -4.87 KCAL/MOL
REMARK 922        TOTAL FREE ENERGY PREDICTED BY IDOCK:   -5.59 KCAL/MOL
REMARK 923 INTER-LIGAND FREE ENERGY PREDICTED BY IDOCK:   -5.45 KCAL/MOL
REMARK 924 INTRA-LIGAND FREE ENERGY PREDICTED BY IDOCK:   -0.14 KCAL/MOL
REMARK 927      BINDING AFFINITY PREDICTED BY RF-SCORE:    0.00 PKD
ROOT
HETATM    1  C   UNL     1      -9.017  11.011  67.404  1.00  0.00    -0.141 C  
HETATM    2  C   UNL     1      -8.025  11.466  68.310  1.00  0.00    -0.136 C  
HETATM    3  C   UNL     1      -8.059  10.002  68.086  1.00  0.00    -0.108 C  
HETATM    4  C   UNL     1      -9.264   9.384  66.545  1.00  0.00    -0.159 C  
HETATM    5  C   UNL     1     -11.890  10.346  70.524  1.00  0.00    -0.430 C  
HETATM    6  O   UNL     1      -9.419   8.107  65.928  1.00  0.00    -0.399 OA 
HETATM    7  C   UNL     1      -7.933   9.691  66.465  1.00  0.00    -0.112 C  
HETATM    8  C   UNL     1      -7.622   8.027  67.266  1.00  0.00    -0.097 C  
HETATM    9  C   UNL     1     -10.349  10.177  68.416  1.00  0.00    -0.210 C  
HETATM   10  C   UNL     1     -11.560   8.897  70.830  1.00  0.00    -0.331 C  
HETATM   11  H   UNL     1      -9.977   7.821  65.214  1.00  0.00     0.000 HD 
HETATM   12  C   UNL     1      -8.952   7.544  68.271  1.00  0.00    -0.130 C  
HETATM   13  C   UNL     1     -10.890  11.051  69.575  1.00  0.00    -0.267 C  
HETATM   14  C   UNL     1      -9.966   8.619  69.039  1.00  0.00    -0.197 C  
HETATM   15  C   UNL     1     -11.283   8.036  69.611  1.00  0.00     0.080 C  
HETATM   16  C   UNL     1     -11.307   6.533  69.905  1.00  0.00    -0.469 C  
HETATM   17  C   UNL     1     -10.770   6.084  71.253  1.00  0.00    -0.320 C  
HETATM   18  C   UNL     1     -10.947   7.068  72.380  1.00  0.00    -0.248 C  
HETATM   19  C   UNL     1     -11.392   8.454  72.088  1.00  0.00    -0.437 C  
HETATM   20  O   UNL     1     -10.700   6.760  73.546  1.00  0.00    -0.309 OA 
ENDROOT
BRANCH   4  21
HETATM   21  C   UNL     1      -9.976  10.241  65.442  1.00  0.00    -0.371 C  
HETATM   22  C   UNL     1     -10.454  10.886  64.552  1.00  0.00    -0.393 C  
ENDBRANCH   4  21
BRANCH   7  23
HETATM   23  C   UNL     1      -7.023  10.008  65.307  1.00  0.00    -0.132 C  
HETATM   24  C   UNL     1      -5.711  10.602  65.817  1.00  0.00    -0.139 C  
ENDBRANCH   7  23
TORSDOF 2
ENDMDL
MODEL       44
REMARK 921   NORMALIZED FREE ENERGY PREDICTED BY IDOCK:   -4.84 KCAL/MOL
REMARK 922        TOTAL FREE ENERGY PREDICTED BY IDOCK:   -5.57 KCAL/MOL
REMARK 923 INTER-LIGAND FREE ENERGY PREDICTED BY IDOCK:   -5.38 KCAL/MOL
REMARK 924 INTRA-LIGAND FREE ENERGY PREDICTED BY IDOCK:   -0.19 KCAL/MOL
REMARK 927      BINDING AFFINITY PREDICTED BY RF-SCORE:    0.00 PKD
ROOT
HETATM    1  C   UNL     1      -9.574   8.977  68.629  1.00  0.00    -0.158 C  
HETATM    2  C   UNL     1     -10.554   8.228  67.930  1.00  0.00    -0.212 C  
HETATM    3  C   UNL     1      -9.623   9.008  67.081  1.00  0.00    -0.218 C  
HETATM    4  C   UNL     1      -8.020   9.822  68.069  1.00  0.00    -0.097 C  
HETATM    5  C   UNL     1     -12.021  12.503  68.744  1.00  0.00    -0.283 C  
HETATM    6  O   UNL     1      -6.847  10.472  67.580  1.00  0.00    -0.073 OA 
HETATM    7  C   UNL     1      -8.064   8.598  67.458  1.00  0.00    -0.106 C  
HETATM    8  C   UNL     1      -7.904   9.530  65.842  1.00  0.00    -0.100 C  
HETATM    9  C   UNL     1     -10.068  10.776  68.514  1.00  0.00    -0.187 C  
HETATM   10  C   UNL     1     -11.543  13.152  67.458  1.00  0.00    -0.398 C  
HETATM   11  H   UNL     1      -6.105  10.849  68.037  1.00  0.00     0.000 HD 
HETATM   12  C   UNL     1      -8.570  11.129  65.958  1.00  0.00    -0.154 C  
HETATM   13  C   UNL     1     -11.527  11.052  68.959  1.00  0.00    -0.368 C  
HETATM   14  C   UNL     1      -9.807  11.540  66.994  1.00  0.00    -0.212 C  
HETATM   15  C   UNL     1     -10.048  13.055  67.214  1.00  0.00    -0.235 C  
HETATM   16  C   UNL     1      -9.543  14.004  66.122  1.00  0.00    -0.263 C  
HETATM   17  C   UNL     1     -10.462  14.245  64.937  1.00  0.00    -0.454 C  
HETATM   18  C   UNL     1     -11.936  14.168  65.236  1.00  0.00    -0.381 C  
HETATM   19  C   UNL     1     -12.399  13.647  66.547  1.00  0.00    -0.412 C  
HETATM   20  O   UNL     1     -12.778  14.499  64.402  1.00  0.00    -0.655 OA 
ENDROOT
BRANCH   4  21
HETATM   21  C   UNL     1      -7.524   9.561  69.532  1.00  0.00    -0.092 C  
HETATM   22  C   UNL     1      -7.073   9.394  70.630  1.00  0.00    -0.127 C  
ENDBRANCH   4  21
BRANCH   7  23
HETATM   23  C   UNL     1      -7.196   7.371  67.561  1.00  0.00    -0.094 C  
HETATM   24  C   UNL     1      -7.882   6.184  66.886  1.00  0.00    -0.104 C  
ENDBRANCH   7  23
TORSDOF 2
ENDMDL
MODEL       45
REMARK 921   NORMALIZED FREE ENERGY PREDICTED BY IDOCK:   -4.84 KCAL/MOL
REMARK 922        TOTAL FREE ENERGY PREDICTED BY IDOCK:   -5.56 KCAL/MOL
REMARK 923 INTER-LIGAND FREE ENERGY PREDICTED BY IDOCK:   -5.42 KCAL/MOL
REMARK 924 INTRA-LIGAND FREE ENERGY PREDICTED BY IDOCK:   -0.14 KCAL/MOL
REMARK 927      BINDING AFFINITY PREDICTED BY RF-SCORE:    0.00 PKD
ROOT
HETATM    1  C   UNL     1      -8.541   5.903  68.789  1.00  0.00    -0.110 C  
HETATM    2  C   UNL     1      -9.501   4.861  68.726  1.00  0.00    -0.202 C  
HETATM    3  C   UNL     1      -9.953   6.175  68.210  1.00  0.00    -0.162 C  
HETATM    4  C   UNL     1      -8.474   7.583  68.003  1.00  0.00    -0.123 C  
HETATM    5  C   UNL     1      -9.899   7.230  72.639  1.00  0.00    -0.207 C  
HETATM    6  O   UNL     1      -8.485   8.872  67.390  1.00  0.00    -0.115 OA 
HETATM    7  C   UNL     1      -8.898   6.700  67.046  1.00  0.00    -0.114 C  
HETATM    8  C   UNL     1     -10.386   7.818  66.841  1.00  0.00    -0.396 C  
HETATM    9  C   UNL     1      -9.066   7.054  70.165  1.00  0.00    -0.149 C  
HETATM   10  C   UNL     1     -10.921   8.253  72.178  1.00  0.00    -0.396 C  
HETATM   11  H   UNL     1      -7.801   9.524  67.294  1.00  0.00     0.000 HD 
HETATM   12  C   UNL     1     -10.753   8.669  68.308  1.00  0.00    -0.107 C  
HETATM   13  C   UNL     1      -9.325   6.336  71.513  1.00  0.00    -0.155 C  
HETATM   14  C   UNL     1     -10.404   8.082  69.827  1.00  0.00    -0.219 C  
HETATM   15  C   UNL     1     -10.487   9.098  70.994  1.00  0.00    -0.368 C  
HETATM   16  C   UNL     1     -11.359  10.339  70.775  1.00  0.00    -0.421 C  
HETATM   17  C   UNL     1     -12.843  10.201  71.068  1.00  0.00    -0.474 C  
HETATM   18  C   UNL     1     -13.198   9.221  72.156  1.00  0.00    -0.461 C  
HETATM   19  C   UNL     1     -12.162   8.305  72.694  1.00  0.00    -0.293 C  
HETATM   20  O   UNL     1     -14.346   9.137  72.594  1.00  0.00    -0.561 OA 
ENDROOT
BRANCH   4  21
HETATM   21  C   UNL     1      -6.920   7.407  68.101  1.00  0.00    -0.075 C  
HETATM   22  C   UNL     1      -5.739   7.276  68.257  1.00  0.00    -0.023 C  
ENDBRANCH   4  21
BRANCH   7  23
HETATM   23  C   UNL     1      -8.291   6.222  65.754  1.00  0.00    -0.145 C  
HETATM   24  C   UNL     1      -9.028   4.980  65.254  1.00  0.00    -0.151 C  
ENDBRANCH   7  23
TORSDOF 2
ENDMDL
MODEL       46
REMARK 921   NORMALIZED FREE ENERGY PREDICTED BY IDOCK:   -4.82 KCAL/MOL
REMARK 922        TOTAL FREE ENERGY PREDICTED BY IDOCK:   -5.55 KCAL/MOL
REMARK 923 INTER-LIGAND FREE ENERGY PREDICTED BY IDOCK:   -5.45 KCAL/MOL
REMARK 924 INTRA-LIGAND FREE ENERGY PREDICTED BY IDOCK:   -0.10 KCAL/MOL
REMARK 927      BINDING AFFINITY PREDICTED BY RF-SCORE:    0.00 PKD
ROOT
HETATM    1  C   UNL     1     -10.157  17.835  68.323  1.00  0.00    -0.371 C  
HETATM    2  C   UNL     1      -9.819  17.713  69.695  1.00  0.00     0.377 C  
HETATM    3  C   UNL     1      -8.894  17.045  68.749  1.00  0.00    -0.244 C  
HETATM    4  C   UNL     1      -9.201  17.491  66.770  1.00  0.00    -0.265 C  
HETATM    5  C   UNL     1     -12.405  14.176  68.320  1.00  0.00    -0.027 C  
HETATM    6  O   UNL     1      -8.427  17.190  65.610  1.00  0.00    -0.460 OA 
HETATM    7  C   UNL     1      -8.362  18.145  67.632  1.00  0.00    -0.244 C  
HETATM    8  C   UNL     1      -7.201  16.690  67.419  1.00  0.00    -0.184 C  
HETATM    9  C   UNL     1     -10.805  16.172  67.766  1.00  0.00    -0.318 C  
HETATM   10  C   UNL     1     -11.290  13.227  67.921  1.00  0.00    -0.317 C  
HETATM   11  H   UNL     1      -8.569  17.396  64.693  1.00  0.00     0.000 HD 
HETATM   12  C   UNL     1      -8.066  15.232  67.047  1.00  0.00    -0.253 C  
HETATM   13  C   UNL     1     -11.940  15.613  68.662  1.00  0.00    -0.201 C  
HETATM   14  C   UNL     1      -9.629  14.936  67.538  1.00  0.00    -0.204 C  
HETATM   15  C   UNL     1     -10.357  13.756  66.847  1.00  0.00    -0.266 C  
HETATM   16  C   UNL     1      -9.478  12.673  66.212  1.00  0.00    -0.207 C  
HETATM   17  C   UNL     1      -8.987  11.561  67.122  1.00  0.00    -0.166 C  
HETATM   18  C   UNL     1      -9.907  11.204  68.261  1.00  0.00    -0.189 C  
HETATM   19  C   UNL     1     -11.071  12.070  68.570  1.00  0.00    -0.289 C  
HETATM   20  O   UNL     1      -9.698  10.219  68.969  1.00  0.00    -0.184 OA 
ENDROOT
BRANCH   4  21
HETATM   21  C   UNL     1     -10.118  18.592  66.135  1.00  0.00    -0.399 C  
HETATM   22  C   UNL     1     -10.835  19.459  65.725  1.00  0.00    -0.375 C  
ENDBRANCH   4  21
BRANCH   7  23
HETATM   23  C   UNL     1      -7.692  19.493  67.583  1.00  0.00    -0.308 C  
HETATM   24  C   UNL     1      -7.074  19.822  68.941  1.00  0.00    -0.358 C  
ENDBRANCH   7  23
TORSDOF 2
ENDMDL
MODEL       47
REMARK 921   NORMALIZED FREE ENERGY PREDICTED BY IDOCK:   -4.82 KCAL/MOL
REMARK 922        TOTAL FREE ENERGY PREDICTED BY IDOCK:   -5.54 KCAL/MOL
REMARK 923 INTER-LIGAND FREE ENERGY PREDICTED BY IDOCK:   -5.36 KCAL/MOL
REMARK 924 INTRA-LIGAND FREE ENERGY PREDICTED BY IDOCK:   -0.18 KCAL/MOL
REMARK 927      BINDING AFFINITY PREDICTED BY RF-SCORE:    0.00 PKD
ROOT
HETATM    1  C   UNL     1      -9.307  12.949  68.154  1.00  0.00    -0.214 C  
HETATM    2  C   UNL     1      -8.062  13.215  67.529  1.00  0.00    -0.181 C  
HETATM    3  C   UNL     1      -9.031  12.440  66.717  1.00  0.00    -0.205 C  
HETATM    4  C   UNL     1     -10.929  12.338  67.489  1.00  0.00    -0.254 C  
HETATM    5  C   UNL     1      -7.977   9.174  69.710  1.00  0.00    -0.098 C  
HETATM    6  O   UNL     1     -12.145  11.846  66.928  1.00  0.00    -0.599 OA 
HETATM    7  C   UNL     1     -10.455  13.279  66.614  1.00  0.00    -0.279 C  
HETATM    8  C   UNL     1     -10.614  11.960  65.295  1.00  0.00    -0.320 C  
HETATM    9  C   UNL     1      -9.317  11.137  68.614  1.00  0.00    -0.186 C  
HETATM   10  C   UNL     1      -8.412   8.289  68.557  1.00  0.00    -0.126 C  
HETATM   11  H   UNL     1     -13.024  11.799  67.286  1.00  0.00     0.000 HD 
HETATM   12  C   UNL     1     -10.443  10.366  65.960  1.00  0.00    -0.211 C  
HETATM   13  C   UNL     1      -8.078  10.694  69.433  1.00  0.00    -0.102 C  
HETATM   14  C   UNL     1      -9.542  10.026  67.318  1.00  0.00    -0.188 C  
HETATM   15  C   UNL     1      -9.766   8.635  67.964  1.00  0.00    -0.184 C  
HETATM   16  C   UNL     1     -10.339   7.535  67.063  1.00  0.00    -0.395 C  
HETATM   17  C   UNL     1      -9.350   6.750  66.218  1.00  0.00    -0.141 C  
HETATM   18  C   UNL     1      -7.977   6.587  66.814  1.00  0.00    -0.108 C  
HETATM   19  C   UNL     1      -7.596   7.365  68.020  1.00  0.00    -0.114 C  
HETATM   20  O   UNL     1      -7.141   5.841  66.304  1.00  0.00    -0.065 OA 
ENDROOT
BRANCH   4  21
HETATM   21  C   UNL     1     -11.553  13.133  68.687  1.00  0.00    -0.356 C  
HETATM   22  C   UNL     1     -12.102  13.733  69.567  1.00  0.00    -0.386 C  
ENDBRANCH   4  21
BRANCH   7  23
HETATM   23  C   UNL     1     -10.955  14.639  66.204  1.00  0.00    -0.329 C  
HETATM   24  C   UNL     1      -9.931  15.323  65.299  1.00  0.00    -0.322 C  
ENDBRANCH   7  23
TORSDOF 2
ENDMDL
MODEL       48
REMARK 921   NORMALIZED FREE ENERGY PREDICTED BY IDOCK:   -4.82 KCAL/MOL
REMARK 922        TOTAL FREE ENERGY PREDICTED BY IDOCK:   -5.54 KCAL/MOL
REMARK 923 INTER-LIGAND FREE ENERGY PREDICTED BY IDOCK:   -5.67 KCAL/MOL
REMARK 924 INTRA-LIGAND FREE ENERGY PREDICTED BY IDOCK:    0.13 KCAL/MOL
REMARK 927      BINDING AFFINITY PREDICTED BY RF-SCORE:    0.00 PKD
ROOT
HETATM    1  C   UNL     1      -9.068  14.650  67.504  1.00  0.00    -0.192 C  
HETATM    2  C   UNL     1      -8.844  14.521  68.899  1.00  0.00    -0.103 C  
HETATM    3  C   UNL     1      -9.560  15.749  68.479  1.00  0.00    -0.204 C  
HETATM    4  C   UNL     1     -10.164  15.778  66.518  1.00  0.00    -0.286 C  
HETATM    5  C   UNL     1      -5.438  16.861  66.897  1.00  0.00    -0.182 C  
HETATM    6  O   UNL     1     -11.009  16.683  65.810  1.00  0.00    -0.148 OA 
HETATM    7  C   UNL     1     -10.892  15.331  67.589  1.00  0.00    -0.295 C  
HETATM    8  C   UNL     1     -11.175  17.136  67.999  1.00  0.00     0.037 C  
HETATM    9  C   UNL     1      -7.896  15.965  66.877  1.00  0.00    -0.282 C  
HETATM   10  C   UNL     1      -5.993  18.261  67.076  1.00  0.00    -0.168 C  
HETATM   11  H   UNL     1     -11.288  16.697  64.902  1.00  0.00     0.000 HD 
HETATM   12  C   UNL     1      -9.871  18.132  67.433  1.00  0.00    -0.316 C  
HETATM   13  C   UNL     1      -6.418  15.723  67.273  1.00  0.00    -0.139 C  
HETATM   14  C   UNL     1      -8.305  17.592  67.262  1.00  0.00    -0.225 C  
HETATM   15  C   UNL     1      -7.352  18.494  66.438  1.00  0.00    -0.277 C  
HETATM   16  C   UNL     1      -7.726  19.975  66.318  1.00  0.00    -0.323 C  
HETATM   17  C   UNL     1      -7.281  20.893  67.443  1.00  0.00    -0.396 C  
HETATM   18  C   UNL     1      -5.999  20.500  68.129  1.00  0.00    -0.285 C  
HETATM   19  C   UNL     1      -5.390  19.175  67.856  1.00  0.00    -0.178 C  
HETATM   20  O   UNL     1      -5.453  21.245  68.943  1.00  0.00    -0.308 OA 
ENDROOT
BRANCH   4  21
HETATM   21  C   UNL     1     -10.172  14.613  65.470  1.00  0.00    -0.395 C  
HETATM   22  C   UNL     1     -10.185  13.779  64.610  1.00  0.00    -0.313 C  
ENDBRANCH   4  21
BRANCH   7  23
HETATM   23  C   UNL     1     -12.118  14.463  67.702  1.00  0.00    -0.312 C  
HETATM   24  C   UNL     1     -11.812  13.232  68.553  1.00  0.00    -0.384 C  
ENDBRANCH   7  23
TORSDOF 2
ENDMDL
MODEL       49
REMARK 921   NORMALIZED FREE ENERGY PREDICTED BY IDOCK:   -4.73 KCAL/MOL
REMARK 922        TOTAL FREE ENERGY PREDICTED BY IDOCK:   -5.44 KCAL/MOL
REMARK 923 INTER-LIGAND FREE ENERGY PREDICTED BY IDOCK:   -5.39 KCAL/MOL
REMARK 924 INTRA-LIGAND FREE ENERGY PREDICTED BY IDOCK:   -0.05 KCAL/MOL
REMARK 927      BINDING AFFINITY PREDICTED BY RF-SCORE:    0.00 PKD
ROOT
HETATM    1  C   UNL     1      -8.399  11.366  67.488  1.00  0.00    -0.137 C  
HETATM    2  C   UNL     1      -8.517  11.331  68.901  1.00  0.00    -0.062 C  
HETATM    3  C   UNL     1      -9.685  11.887  68.178  1.00  0.00    -0.194 C  
HETATM    4  C   UNL     1      -9.648  11.638  66.142  1.00  0.00    -0.232 C  
HETATM    5  C   UNL     1      -6.821  15.359  67.490  1.00  0.00    -0.223 C  
HETATM    6  O   UNL     1     -10.645  11.874  65.149  1.00  0.00    -0.267 OA 
HETATM    7  C   UNL     1     -10.209  10.788  67.056  1.00  0.00    -0.261 C  
HETATM    8  C   UNL     1     -11.613  12.022  67.165  1.00  0.00    -0.387 C  
HETATM    9  C   UNL     1      -8.138  13.152  67.000  1.00  0.00    -0.032 C  
HETATM   10  C   UNL     1      -8.129  16.119  67.361  1.00  0.00    -0.183 C  
HETATM   11  H   UNL     1     -10.628  11.760  64.206  1.00  0.00     0.000 HD 
HETATM   12  C   UNL     1     -11.077  13.633  66.807  1.00  0.00    -0.315 C  
HETATM   13  C   UNL     1      -6.978  13.843  67.759  1.00  0.00    -0.181 C  
HETATM   14  C   UNL     1      -9.524  14.170  67.077  1.00  0.00    -0.256 C  
HETATM   15  C   UNL     1      -9.129  15.506  66.398  1.00  0.00    -0.351 C  
HETATM   16  C   UNL     1     -10.269  16.454  66.014  1.00  0.00    -0.373 C  
HETATM   17  C   UNL     1     -10.777  17.396  67.092  1.00  0.00    -0.188 C  
HETATM   18  C   UNL     1      -9.750  17.834  68.103  1.00  0.00    -0.313 C  
HETATM   19  C   UNL     1      -8.423  17.171  68.145  1.00  0.00    -0.227 C  
HETATM   20  O   UNL     1      -9.996  18.715  68.927  1.00  0.00    -0.389 OA 
ENDROOT
BRANCH   4  21
HETATM   21  C   UNL     1      -8.682  10.765  65.270  1.00  0.00    -0.183 C  
HETATM   22  C   UNL     1      -7.903  10.164  64.585  1.00  0.00    -0.144 C  
ENDBRANCH   4  21
BRANCH   7  23
HETATM   23  C   UNL     1     -10.646   9.348  66.981  1.00  0.00    -0.272 C  
HETATM   24  C   UNL     1     -10.474   8.676  68.343  1.00  0.00    -0.220 C  
ENDBRANCH   7  23
TORSDOF 2
ENDMDL
MODEL       50
REMARK 921   NORMALIZED FREE ENERGY PREDICTED BY IDOCK:   -4.61 KCAL/MOL
REMARK 922        TOTAL FREE ENERGY PREDICTED BY IDOCK:   -5.31 KCAL/MOL
REMARK 923 INTER-LIGAND FREE ENERGY PREDICTED BY IDOCK:   -5.18 KCAL/MOL
REMARK 924 INTRA-LIGAND FREE ENERGY PREDICTED BY IDOCK:   -0.13 KCAL/MOL
REMARK 927      BINDING AFFINITY PREDICTED BY RF-SCORE:    0.00 PKD
ROOT
HETATM    1  C   UNL     1     -10.034  14.055  67.227  1.00  0.00    -0.242 C  
HETATM    2  C   UNL     1      -9.287  14.428  66.080  1.00  0.00    -0.221 C  
HETATM    3  C   UNL     1      -9.912  13.085  66.025  1.00  0.00    -0.277 C  
HETATM    4  C   UNL     1     -11.247  12.684  67.531  1.00  0.00    -0.288 C  
HETATM    5  C   UNL     1      -6.668  12.136  69.076  1.00  0.00    -0.103 C  
HETATM    6  O   UNL     1     -12.155  11.599  67.716  1.00  0.00    -0.613 OA 
HETATM    7  C   UNL     1     -11.537  13.225  66.307  1.00  0.00    -0.384 C  
HETATM    8  C   UNL     1     -11.347  11.490  65.628  1.00  0.00    -0.151 C  
HETATM    9  C   UNL     1      -9.029  12.776  68.148  1.00  0.00    -0.199 C  
HETATM   10  C   UNL     1      -6.879  10.735  68.532  1.00  0.00    -0.062 C  
HETATM   11  H   UNL     1     -12.773  11.413  68.413  1.00  0.00     0.000 HD 
HETATM   12  C   UNL     1     -10.248  10.546  66.583  1.00  0.00    -0.289 C  
HETATM   13  C   UNL     1      -7.574  13.220  68.444  1.00  0.00    -0.137 C  
HETATM   14  C   UNL     1      -8.990  11.200  67.457  1.00  0.00    -0.139 C  
HETATM   15  C   UNL     1      -8.326  10.274  68.507  1.00  0.00    -0.116 C  
HETATM   16  C   UNL     1      -8.483   8.764  68.300  1.00  0.00    -0.130 C  
HETATM   17  C   UNL     1      -7.484   8.085  67.379  1.00  0.00    -0.093 C  
HETATM   18  C   UNL     1      -6.111   8.705  67.346  1.00  0.00    -0.052 C  
HETATM   19  C   UNL     1      -5.878  10.021  67.989  1.00  0.00    -0.038 C  
HETATM   20  O   UNL     1      -5.174   8.156  66.765  1.00  0.00    -0.030 OA 
ENDROOT
BRANCH   4  21
HETATM   21  C   UNL     1     -11.859  13.659  68.595  1.00  0.00    -0.409 C  
HETATM   22  C   UNL     1     -12.255  14.408  69.442  1.00  0.00    -0.305 C  
ENDBRANCH   4  21
BRANCH   7  23
HETATM   23  C   UNL     1     -12.730  13.977  65.778  1.00  0.00    -0.487 C  
HETATM   24  C   UNL     1     -12.379  14.654  64.454  1.00  0.00    -0.420 C  
ENDBRANCH   7  23
TORSDOF 2
ENDMDL
MODEL       51
REMARK 921   NORMALIZED FREE ENERGY PREDICTED BY IDOCK:   -4.53 KCAL/MOL
REMARK 922        TOTAL FREE ENERGY PREDICTED BY IDOCK:   -5.22 KCAL/MOL
REMARK 923 INTER-LIGAND FREE ENERGY PREDICTED BY IDOCK:   -5.03 KCAL/MOL
REMARK 924 INTRA-LIGAND FREE ENERGY PREDICTED BY IDOCK:   -0.19 KCAL/MOL
REMARK 927      BINDING AFFINITY PREDICTED BY RF-SCORE:    0.00 PKD
ROOT
HETATM    1  C   UNL     1      -9.743   9.000  70.631  1.00  0.00    -0.287 C  
HETATM    2  C   UNL     1     -10.482   9.777  69.703  1.00  0.00    -0.263 C  
HETATM    3  C   UNL     1     -10.928   8.372  69.855  1.00  0.00    -0.166 C  
HETATM    4  C   UNL     1     -10.077   7.353  71.419  1.00  0.00    -0.186 C  
HETATM    5  C   UNL     1      -7.045   7.554  67.621  1.00  0.00    -0.085 C  
HETATM    6  O   UNL     1     -10.374   6.074  71.978  1.00  0.00    -0.195 OA 
HETATM    7  C   UNL     1     -11.245   8.067  71.451  1.00  0.00    -0.287 C  
HETATM    8  C   UNL     1     -12.018   6.616  70.554  1.00  0.00    -0.377 C  
HETATM    9  C   UNL     1      -8.685   7.818  69.643  1.00  0.00    -0.135 C  
HETATM   10  C   UNL     1      -7.799   6.297  67.227  1.00  0.00    -0.108 C  
HETATM   11  H   UNL     1      -9.980   5.602  72.702  1.00  0.00     0.000 HD 
HETATM   12  C   UNL     1     -10.852   5.766  69.589  1.00  0.00    -0.418 C  
HETATM   13  C   UNL     1      -7.825   8.510  68.556  1.00  0.00    -0.108 C  
HETATM   14  C   UNL     1      -9.505   6.484  68.925  1.00  0.00    -0.129 C  
HETATM   15  C   UNL     1      -8.408   5.530  68.388  1.00  0.00    -0.098 C  
HETATM   16  C   UNL     1      -8.844   4.108  68.020  1.00  0.00    -0.134 C  
HETATM   17  C   UNL     1      -9.413   3.899  66.627  1.00  0.00    -0.217 C  
HETATM   18  C   UNL     1      -8.864   4.811  65.561  1.00  0.00    -0.139 C  
HETATM   19  C   UNL     1      -8.022   5.971  65.942  1.00  0.00    -0.111 C  
HETATM   20  O   UNL     1      -9.125   4.635  64.371  1.00  0.00    -0.155 OA 
ENDROOT
BRANCH   4  21
HETATM   21  C   UNL     1      -9.199   7.901  72.595  1.00  0.00    -0.269 C  
HETATM   22  C   UNL     1      -8.512   8.244  73.516  1.00  0.00    -0.264 C  
ENDBRANCH   4  21
BRANCH   7  23
HETATM   23  C   UNL     1     -12.076   8.620  72.579  1.00  0.00    -0.368 C  
HETATM   24  C   UNL     1     -13.139   9.570  72.030  1.00  0.00    -0.528 C  
ENDBRANCH   7  23
TORSDOF 2
ENDMDL
MODEL       52
REMARK 921   NORMALIZED FREE ENERGY PREDICTED BY IDOCK:   -4.45 KCAL/MOL
REMARK 922        TOTAL FREE ENERGY PREDICTED BY IDOCK:   -5.13 KCAL/MOL
REMARK 923 INTER-LIGAND FREE ENERGY PREDICTED BY IDOCK:   -4.99 KCAL/MOL
REMARK 924 INTRA-LIGAND FREE ENERGY PREDICTED BY IDOCK:   -0.14 KCAL/MOL
REMARK 927      BINDING AFFINITY PREDICTED BY RF-SCORE:    0.00 PKD
ROOT
HETATM    1  C   UNL     1      -8.282   8.009  67.557  1.00  0.00    -0.123 C  
HETATM    2  C   UNL     1      -7.107   7.301  67.917  1.00  0.00    -0.085 C  
HETATM    3  C   UNL     1      -8.366   6.524  67.989  1.00  0.00    -0.116 C  
HETATM    4  C   UNL     1     -10.005   7.443  67.165  1.00  0.00    -0.215 C  
HETATM    5  C   UNL     1      -9.077   9.197  71.605  1.00  0.00    -0.044 C  
HETATM    6  O   UNL     1     -11.318   6.954  66.894  1.00  0.00    -0.681 OA 
HETATM    7  C   UNL     1      -9.140   6.595  66.527  1.00  0.00    -0.167 C  
HETATM    8  C   UNL     1     -10.017   5.210  67.431  1.00  0.00    -0.215 C  
HETATM    9  C   UNL     1      -9.225   8.348  69.134  1.00  0.00    -0.150 C  
HETATM   10  C   UNL     1      -9.954   8.029  72.016  1.00  0.00    -0.275 C  
HETATM   11  H   UNL     1     -12.077   7.380  66.513  1.00  0.00     0.000 HD 
HETATM   12  C   UNL     1     -10.684   5.752  68.939  1.00  0.00    -0.334 C  
HETATM   13  C   UNL     1      -8.375   9.030  70.236  1.00  0.00    -0.167 C  
HETATM   14  C   UNL     1     -10.048   7.006  69.831  1.00  0.00    -0.202 C  
HETATM   15  C   UNL     1     -10.945   7.574  70.959  1.00  0.00    -0.266 C  
HETATM   16  C   UNL     1     -12.043   6.654  71.504  1.00  0.00    -0.406 C  
HETATM   17  C   UNL     1     -11.646   5.680  72.599  1.00  0.00    -0.307 C  
HETATM   18  C   UNL     1     -10.542   6.148  73.512  1.00  0.00    -0.266 C  
HETATM   19  C   UNL     1      -9.767   7.366  73.170  1.00  0.00    -0.281 C  
HETATM   20  O   UNL     1     -10.242   5.522  74.528  1.00  0.00    -0.251 OA 
ENDROOT
BRANCH   4  21
HETATM   21  C   UNL     1     -10.074   8.739  66.286  1.00  0.00    -0.254 C  
HETATM   22  C   UNL     1     -10.139   9.771  65.681  1.00  0.00    -0.282 C  
ENDBRANCH   4  21
BRANCH   7  23
HETATM   23  C   UNL     1      -8.865   6.318  65.072  1.00  0.00     0.181 C  
HETATM   24  C   UNL     1      -7.637   5.420  64.931  1.00  0.00    -0.084 C  
ENDBRANCH   7  23
TORSDOF 2
ENDMDL
MODEL       53
REMARK 921   NORMALIZED FREE ENERGY PREDICTED BY IDOCK:   -4.44 KCAL/MOL
REMARK 922        TOTAL FREE ENERGY PREDICTED BY IDOCK:   -5.12 KCAL/MOL
REMARK 923 INTER-LIGAND FREE ENERGY PREDICTED BY IDOCK:   -5.03 KCAL/MOL
REMARK 924 INTRA-LIGAND FREE ENERGY PREDICTED BY IDOCK:   -0.08 KCAL/MOL
REMARK 927      BINDING AFFINITY PREDICTED BY RF-SCORE:    0.00 PKD
ROOT
HETATM    1  C   UNL     1     -10.773   8.224  72.169  1.00  0.00    -0.389 C  
HETATM    2  C   UNL     1      -9.485   8.782  72.369  1.00  0.00    -0.181 C  
HETATM    3  C   UNL     1      -9.606   7.855  71.220  1.00  0.00    -0.186 C  
HETATM    4  C   UNL     1     -11.524   7.308  70.739  1.00  0.00    -0.299 C  
HETATM    5  C   UNL     1      -9.894   4.759  74.547  1.00  0.00    -0.211 C  
HETATM    6  O   UNL     1     -12.044   6.591  69.620  1.00  0.00    -0.545 OA 
HETATM    7  C   UNL     1     -10.826   8.368  70.226  1.00  0.00    -0.244 C  
HETATM    8  C   UNL     1      -9.906   7.108  69.191  1.00  0.00    -0.160 C  
HETATM    9  C   UNL     1     -10.688   6.434  72.699  1.00  0.00    -0.262 C  
HETATM   10  C   UNL     1      -9.373   3.855  73.445  1.00  0.00    -0.121 C  
HETATM   11  H   UNL     1     -12.932   6.338  69.398  1.00  0.00     0.000 HD 
HETATM   12  C   UNL     1      -9.843   5.561  69.973  1.00  0.00    -0.262 C  
HETATM   13  C   UNL     1     -10.115   6.233  74.125  1.00  0.00    -0.327 C  
HETATM   14  C   UNL     1      -9.874   5.361  71.626  1.00  0.00    -0.223 C  
HETATM   15  C   UNL     1     -10.150   3.926  72.143  1.00  0.00    -0.225 C  
HETATM   16  C   UNL     1      -9.844   2.772  71.183  1.00  0.00    -0.094 C  
HETATM   17  C   UNL     1      -8.415   2.260  71.153  1.00  0.00    -0.088 C  
HETATM   18  C   UNL     1      -7.661   2.370  72.453  1.00  0.00    -0.052 C  
HETATM   19  C   UNL     1      -8.233   3.155  73.575  1.00  0.00    -0.074 C  
HETATM   20  O   UNL     1      -6.556   1.847  72.600  1.00  0.00    -0.016 OA 
ENDROOT
BRANCH   4  21
HETATM   21  C   UNL     1     -12.880   7.893  71.266  1.00  0.00    -0.244 C  
HETATM   22  C   UNL     1     -13.907   8.295  71.734  1.00  0.00    -0.450 C  
ENDBRANCH   4  21
BRANCH   7  23
HETATM   23  C   UNL     1     -11.248   9.605  69.478  1.00  0.00    -0.144 C  
HETATM   24  C   UNL     1     -10.021  10.432  69.095  1.00  0.00    -0.237 C  
ENDBRANCH   7  23
TORSDOF 2
ENDMDL
MODEL       54
REMARK 921   NORMALIZED FREE ENERGY PREDICTED BY IDOCK:   -4.35 KCAL/MOL
REMARK 922        TOTAL FREE ENERGY PREDICTED BY IDOCK:   -5.02 KCAL/MOL
REMARK 923 INTER-LIGAND FREE ENERGY PREDICTED BY IDOCK:   -4.90 KCAL/MOL
REMARK 924 INTRA-LIGAND FREE ENERGY PREDICTED BY IDOCK:   -0.12 KCAL/MOL
REMARK 927      BINDING AFFINITY PREDICTED BY RF-SCORE:    0.00 PKD
ROOT
HETATM    1  C   UNL     1     -11.065  10.935  67.334  1.00  0.00    -0.373 C  
HETATM    2  C   UNL     1     -11.879  11.327  68.428  1.00  0.00    -0.331 C  
HETATM    3  C   UNL     1     -10.501  11.870  68.434  1.00  0.00    -0.231 C  
HETATM    4  C   UNL     1      -9.439  11.571  66.704  1.00  0.00    -0.193 C  
HETATM    5  C   UNL     1      -9.471   7.550  69.439  1.00  0.00    -0.155 C  
HETATM    6  O   UNL     1      -8.179  12.085  66.275  1.00  0.00    -0.388 OA 
HETATM    7  C   UNL     1     -10.215  12.658  67.006  1.00  0.00    -0.233 C  
HETATM    8  C   UNL     1      -8.806  13.207  68.111  1.00  0.00    -0.194 C  
HETATM    9  C   UNL     1      -9.826   9.696  67.985  1.00  0.00    -0.175 C  
HETATM   10  C   UNL     1      -8.256   8.218  70.055  1.00  0.00    -0.119 C  
HETATM   11  H   UNL     1      -7.687  11.946  65.474  1.00  0.00     0.000 HD 
HETATM   12  C   UNL     1      -7.893  11.854  68.703  1.00  0.00    -0.104 C  
HETATM   13  C   UNL     1     -10.470   8.520  68.761  1.00  0.00    -0.208 C  
HETATM   14  C   UNL     1      -8.538  10.336  68.931  1.00  0.00    -0.150 C  
HETATM   15  C   UNL     1      -7.525   9.181  69.136  1.00  0.00    -0.072 C  
HETATM   16  C   UNL     1      -6.128   9.562  69.636  1.00  0.00    -0.039 C  
HETATM   17  C   UNL     1      -5.947   9.706  71.137  1.00  0.00    -0.072 C  
HETATM   18  C   UNL     1      -6.827   8.821  71.982  1.00  0.00    -0.032 C  
HETATM   19  C   UNL     1      -7.941   8.070  71.353  1.00  0.00    -0.109 C  
HETATM   20  O   UNL     1      -6.664   8.729  73.199  1.00  0.00    -0.292 OA 
ENDROOT
BRANCH   4  21
HETATM   21  C   UNL     1      -9.941  11.051  65.313  1.00  0.00    -0.320 C  
HETATM   22  C   UNL     1     -10.256  10.679  64.218  1.00  0.00    -0.391 C  
ENDBRANCH   4  21
BRANCH   7  23
HETATM   23  C   UNL     1     -10.813  13.754  66.164  1.00  0.00    -0.279 C  
HETATM   24  C   UNL     1     -12.075  14.299  66.832  1.00  0.00    -0.440 C  
ENDBRANCH   7  23
TORSDOF 2
ENDMDL
MODEL       55
REMARK 921   NORMALIZED FREE ENERGY PREDICTED BY IDOCK:   -4.31 KCAL/MOL
REMARK 922        TOTAL FREE ENERGY PREDICTED BY IDOCK:   -4.98 KCAL/MOL
REMARK 923 INTER-LIGAND FREE ENERGY PREDICTED BY IDOCK:   -5.10 KCAL/MOL
REMARK 924 INTRA-LIGAND FREE ENERGY PREDICTED BY IDOCK:    0.12 KCAL/MOL
REMARK 927      BINDING AFFINITY PREDICTED BY RF-SCORE:    0.00 PKD
ROOT
HETATM    1  C   UNL     1      -9.123  11.552  68.933  1.00  0.00     0.015 C  
HETATM    2  C   UNL     1      -7.769  11.475  68.517  1.00  0.00    -0.134 C  
HETATM    3  C   UNL     1      -8.747  10.810  67.626  1.00  0.00    -0.126 C  
HETATM    4  C   UNL     1     -10.717  11.197  68.051  1.00  0.00    -0.211 C  
HETATM    5  C   UNL     1      -8.917   7.831  71.066  1.00  0.00    -0.147 C  
HETATM    6  O   UNL     1     -11.911  10.889  67.333  1.00  0.00    -0.482 OA 
HETATM    7  C   UNL     1      -9.918  11.896  67.187  1.00  0.00    -0.209 C  
HETATM    8  C   UNL     1     -10.160  10.471  65.997  1.00  0.00    -0.317 C  
HETATM    9  C   UNL     1      -9.604   9.858  69.560  1.00  0.00    -0.242 C  
HETATM   10  C   UNL     1      -9.353   6.904  69.946  1.00  0.00    -0.150 C  
HETATM   11  H   UNL     1     -12.822  11.068  67.530  1.00  0.00     0.000 HD 
HETATM   12  C   UNL     1     -10.449   8.979  66.836  1.00  0.00    -0.293 C  
HETATM   13  C   UNL     1      -8.635   9.289  70.627  1.00  0.00    -0.270 C  
HETATM   14  C   UNL     1      -9.867   8.651  68.361  1.00  0.00    -0.189 C  
HETATM   15  C   UNL     1     -10.490   7.433  69.089  1.00  0.00    -0.217 C  
HETATM   16  C   UNL     1     -11.145   6.360  68.213  1.00  0.00    -0.359 C  
HETATM   17  C   UNL     1     -10.237   5.286  67.641  1.00  0.00    -0.223 C  
HETATM   18  C   UNL     1      -9.042   4.931  68.487  1.00  0.00    -0.114 C  
HETATM   19  C   UNL     1      -8.690   5.771  69.658  1.00  0.00    -0.122 C  
HETATM   20  O   UNL     1      -8.324   3.971  68.211  1.00  0.00    -0.090 OA 
ENDROOT
BRANCH   4  21
HETATM   21  C   UNL     1     -11.327  12.255  69.034  1.00  0.00    -0.333 C  
HETATM   22  C   UNL     1     -11.860  13.018  69.788  1.00  0.00    -0.381 C  
ENDBRANCH   4  21
BRANCH   7  23
HETATM   23  C   UNL     1     -10.035  13.261  66.562  1.00  0.00    -0.280 C  
HETATM   24  C   UNL     1      -8.793  14.093  66.880  1.00  0.00    -0.223 C  
ENDBRANCH   7  23
TORSDOF 2
ENDMDL
MODEL       56
REMARK 921   NORMALIZED FREE ENERGY PREDICTED BY IDOCK:   -4.31 KCAL/MOL
REMARK 922        TOTAL FREE ENERGY PREDICTED BY IDOCK:   -4.97 KCAL/MOL
REMARK 923 INTER-LIGAND FREE ENERGY PREDICTED BY IDOCK:   -4.88 KCAL/MOL
REMARK 924 INTRA-LIGAND FREE ENERGY PREDICTED BY IDOCK:   -0.10 KCAL/MOL
REMARK 927      BINDING AFFINITY PREDICTED BY RF-SCORE:    0.00 PKD
ROOT
HETATM    1  C   UNL     1      -7.819   8.910  69.318  1.00  0.00    -0.096 C  
HETATM    2  C   UNL     1      -7.112   9.455  70.421  1.00  0.00    -0.104 C  
HETATM    3  C   UNL     1      -8.589   9.500  70.527  1.00  0.00    -0.231 C  
HETATM    4  C   UNL     1      -9.598   8.429  69.096  1.00  0.00    -0.164 C  
HETATM    5  C   UNL     1      -8.097  12.705  67.330  1.00  0.00    -0.182 C  
HETATM    6  O   UNL     1     -10.980   8.096  68.973  1.00  0.00    -0.426 OA 
HETATM    7  C   UNL     1      -9.201   7.974  70.325  1.00  0.00    -0.155 C  
HETATM    8  C   UNL     1     -10.642   8.947  71.019  1.00  0.00    -0.315 C  
HETATM    9  C   UNL     1      -8.547  10.345  68.367  1.00  0.00    -0.128 C  
HETATM   10  C   UNL     1      -9.425  13.164  67.905  1.00  0.00    -0.218 C  
HETATM   11  H   UNL     1     -11.447   7.601  68.311  1.00  0.00     0.000 HD 
HETATM   12  C   UNL     1     -11.029  10.315  70.024  1.00  0.00    -0.371 C  
HETATM   13  C   UNL     1      -7.511  11.434  67.992  1.00  0.00    -0.100 C  
HETATM   14  C   UNL     1      -9.914  11.112  69.078  1.00  0.00    -0.155 C  
HETATM   15  C   UNL     1     -10.482  12.080  68.010  1.00  0.00    -0.224 C  
HETATM   16  C   UNL     1     -11.895  12.624  68.246  1.00  0.00    -0.354 C  
HETATM   17  C   UNL     1     -12.023  13.856  69.125  1.00  0.00    -0.404 C  
HETATM   18  C   UNL     1     -10.855  14.806  69.080  1.00  0.00    -0.260 C  
HETATM   19  C   UNL     1      -9.596  14.400  68.407  1.00  0.00    -0.219 C  
HETATM   20  O   UNL     1     -10.906  15.911  69.621  1.00  0.00    -0.260 OA 
ENDROOT
BRANCH   4  21
HETATM   21  C   UNL     1      -9.038   7.404  68.051  1.00  0.00    -0.130 C  
HETATM   22  C   UNL     1      -8.536   6.635  67.281  1.00  0.00    -0.120 C  
ENDBRANCH   4  21
BRANCH   7  23
HETATM   23  C   UNL     1      -9.042   6.592  70.902  1.00  0.00    -0.154 C  
HETATM   24  C   UNL     1      -8.357   6.669  72.266  1.00  0.00    -0.107 C  
ENDBRANCH   7  23
TORSDOF 2
ENDMDL
MODEL       57
REMARK 921   NORMALIZED FREE ENERGY PREDICTED BY IDOCK:   -4.29 KCAL/MOL
REMARK 922        TOTAL FREE ENERGY PREDICTED BY IDOCK:   -4.95 KCAL/MOL
REMARK 923 INTER-LIGAND FREE ENERGY PREDICTED BY IDOCK:   -4.85 KCAL/MOL
REMARK 924 INTRA-LIGAND FREE ENERGY PREDICTED BY IDOCK:   -0.11 KCAL/MOL
REMARK 927      BINDING AFFINITY PREDICTED BY RF-SCORE:    0.00 PKD
ROOT
HETATM    1  C   UNL     1      -9.646  12.163  68.591  1.00  0.00    -0.068 C  
HETATM    2  C   UNL     1      -8.597  13.114  68.680  1.00  0.00     0.036 C  
HETATM    3  C   UNL     1      -9.344  13.109  67.401  1.00  0.00    -0.213 C  
HETATM    4  C   UNL     1     -11.052  11.971  67.394  1.00  0.00    -0.281 C  
HETATM    5  C   UNL     1      -7.105   9.186  66.826  1.00  0.00    -0.082 C  
HETATM    6  O   UNL     1     -12.101  11.858  66.433  1.00  0.00    -0.552 OA 
HETATM    7  C   UNL     1     -10.960  13.300  67.709  1.00  0.00    -0.278 C  
HETATM    8  C   UNL     1     -10.815  13.604  65.867  1.00  0.00    -0.276 C  
HETATM    9  C   UNL     1      -9.065  10.807  67.444  1.00  0.00    -0.148 C  
HETATM   10  C   UNL     1      -7.340   9.525  65.366  1.00  0.00    -0.099 C  
HETATM   11  H   UNL     1     -12.891  11.331  66.430  1.00  0.00     0.000 HD 
HETATM   12  C   UNL     1     -10.111  12.246  65.048  1.00  0.00    -0.277 C  
HETATM   13  C   UNL     1      -7.688  10.210  67.831  1.00  0.00    -0.089 C  
HETATM   14  C   UNL     1      -9.043  11.189  65.765  1.00  0.00    -0.222 C  
HETATM   15  C   UNL     1      -8.778   9.860  65.013  1.00  0.00    -0.196 C  
HETATM   16  C   UNL     1      -9.058   9.846  63.507  1.00  0.00    -0.289 C  
HETATM   17  C   UNL     1      -7.949  10.339  62.594  1.00  0.00    -0.162 C  
HETATM   18  C   UNL     1      -6.548  10.106  63.095  1.00  0.00    -0.136 C  
HETATM   19  C   UNL     1      -6.327   9.653  64.491  1.00  0.00    -0.099 C  
HETATM   20  O   UNL     1      -5.568  10.314  62.379  1.00  0.00    -0.098 OA 
ENDROOT
BRANCH   4  21
HETATM   21  C   UNL     1     -11.790  11.289  68.597  1.00  0.00    -0.369 C  
HETATM   22  C   UNL     1     -12.286  10.727  69.532  1.00  0.00    -0.292 C  
ENDBRANCH   4  21
BRANCH   7  23
HETATM   23  C   UNL     1     -11.883  14.248  68.429  1.00  0.00    -0.373 C  
HETATM   24  C   UNL     1     -11.111  15.480  68.896  1.00  0.00    -0.282 C  
ENDBRANCH   7  23
TORSDOF 2
ENDMDL
MODEL       58
REMARK 921   NORMALIZED FREE ENERGY PREDICTED BY IDOCK:   -4.28 KCAL/MOL
REMARK 922        TOTAL FREE ENERGY PREDICTED BY IDOCK:   -4.94 KCAL/MOL
REMARK 923 INTER-LIGAND FREE ENERGY PREDICTED BY IDOCK:   -4.75 KCAL/MOL
REMARK 924 INTRA-LIGAND FREE ENERGY PREDICTED BY IDOCK:   -0.19 KCAL/MOL
REMARK 927      BINDING AFFINITY PREDICTED BY RF-SCORE:    0.00 PKD
ROOT
HETATM    1  C   UNL     1      -8.113   9.071  68.631  1.00  0.00    -0.107 C  
HETATM    2  C   UNL     1      -7.252   7.958  68.455  1.00  0.00    -0.085 C  
HETATM    3  C   UNL     1      -8.701   7.656  68.397  1.00  0.00    -0.127 C  
HETATM    4  C   UNL     1      -9.930   9.298  68.326  1.00  0.00    -0.173 C  
HETATM    5  C   UNL     1      -8.412   8.459  72.870  1.00  0.00    -0.221 C  
HETATM    6  O   UNL     1     -11.333   9.410  68.094  1.00  0.00    -0.497 OA 
HETATM    7  C   UNL     1      -9.417   8.618  67.255  1.00  0.00    -0.198 C  
HETATM    8  C   UNL     1     -10.709   7.312  67.615  1.00  0.00    -0.294 C  
HETATM    9  C   UNL     1      -8.867   8.921  70.334  1.00  0.00    -0.204 C  
HETATM   10  C   UNL     1      -9.634   7.560  72.883  1.00  0.00    -0.247 C  
HETATM   11  H   UNL     1     -11.903  10.170  68.061  1.00  0.00     0.000 HD 
HETATM   12  C   UNL     1     -11.134   7.280  69.297  1.00  0.00    -0.056 C  
HETATM   13  C   UNL     1      -7.823   8.731  71.464  1.00  0.00    -0.147 C  
HETATM   14  C   UNL     1     -10.096   7.729  70.519  1.00  0.00    -0.192 C  
HETATM   15  C   UNL     1     -10.731   7.962  71.913  1.00  0.00    -0.290 C  
HETATM   16  C   UNL     1     -12.073   7.276  72.188  1.00  0.00    -0.287 C  
HETATM   17  C   UNL     1     -12.027   5.841  72.683  1.00  0.00    -0.130 C  
HETATM   18  C   UNL     1     -10.821   5.482  73.511  1.00  0.00    -0.276 C  
HETATM   19  C   UNL     1      -9.676   6.422  73.597  1.00  0.00    -0.194 C  
HETATM   20  O   UNL     1     -10.746   4.403  74.100  1.00  0.00    -0.256 OA 
ENDROOT
BRANCH   4  21
HETATM   21  C   UNL     1      -9.556  10.804  68.106  1.00  0.00    -0.167 C  
HETATM   22  C   UNL     1      -9.349  11.972  67.936  1.00  0.00    -0.190 C  
ENDBRANCH   4  21
BRANCH   7  23
HETATM   23  C   UNL     1      -9.268   8.966  65.797  1.00  0.00    -0.283 C  
HETATM   24  C   UNL     1      -8.396   7.926  65.094  1.00  0.00    -0.128 C  
ENDBRANCH   7  23
TORSDOF 2
ENDMDL
MODEL       59
REMARK 921   NORMALIZED FREE ENERGY PREDICTED BY IDOCK:   -4.23 KCAL/MOL
REMARK 922        TOTAL FREE ENERGY PREDICTED BY IDOCK:   -4.89 KCAL/MOL
REMARK 923 INTER-LIGAND FREE ENERGY PREDICTED BY IDOCK:   -4.79 KCAL/MOL
REMARK 924 INTRA-LIGAND FREE ENERGY PREDICTED BY IDOCK:   -0.10 KCAL/MOL
REMARK 927      BINDING AFFINITY PREDICTED BY RF-SCORE:    0.00 PKD
ROOT
HETATM    1  C   UNL     1      -9.046   9.054  69.102  1.00  0.00    -0.140 C  
HETATM    2  C   UNL     1      -8.383   9.266  70.338  1.00  0.00    -0.224 C  
HETATM    3  C   UNL     1      -9.537  10.157  70.073  1.00  0.00    -0.113 C  
HETATM    4  C   UNL     1     -10.683   9.638  68.452  1.00  0.00    -0.209 C  
HETATM    5  C   UNL     1      -6.650  11.968  67.054  1.00  0.00    -0.108 C  
HETATM    6  O   UNL     1     -11.941  10.133  67.995  1.00  0.00    -0.469 OA 
HETATM    7  C   UNL     1     -10.876   9.238  69.747  1.00  0.00    -0.239 C  
HETATM    8  C   UNL     1     -11.570  10.951  70.049  1.00  0.00    -0.424 C  
HETATM    9  C   UNL     1      -8.591  10.477  67.980  1.00  0.00    -0.121 C  
HETATM   10  C   UNL     1      -7.533  13.182  67.275  1.00  0.00    -0.076 C  
HETATM   11  H   UNL     1     -12.472   9.894  67.245  1.00  0.00     0.000 HD 
HETATM   12  C   UNL     1     -10.877  12.120  68.969  1.00  0.00    -0.208 C  
HETATM   13  C   UNL     1      -7.064  10.712  67.858  1.00  0.00    -0.086 C  
HETATM   14  C   UNL     1      -9.350  11.985  68.319  1.00  0.00    -0.197 C  
HETATM   15  C   UNL     1      -9.022  12.922  67.129  1.00  0.00    -0.219 C  
HETATM   16  C   UNL     1      -9.857  14.200  67.000  1.00  0.00    -0.258 C  
HETATM   17  C   UNL     1      -9.402  15.406  67.803  1.00  0.00    -0.195 C  
HETATM   18  C   UNL     1      -7.917  15.505  68.036  1.00  0.00    -0.133 C  
HETATM   19  C   UNL     1      -7.038  14.357  67.701  1.00  0.00    -0.202 C  
HETATM   20  O   UNL     1      -7.411  16.512  68.531  1.00  0.00    -0.173 OA 
ENDROOT
BRANCH   4  21
HETATM   21  C   UNL     1     -10.645   8.328  67.593  1.00  0.00    -0.264 C  
HETATM   22  C   UNL     1     -10.549   7.305  66.976  1.00  0.00    -0.415 C  
ENDBRANCH   4  21
BRANCH   7  23
HETATM   23  C   UNL     1     -11.675   8.121  70.366  1.00  0.00     0.007 C  
HETATM   24  C   UNL     1     -11.307   7.967  71.841  1.00  0.00    -0.324 C  
ENDBRANCH   7  23
TORSDOF 2
ENDMDL
MODEL       60
REMARK 921   NORMALIZED FREE ENERGY PREDICTED BY IDOCK:   -4.19 KCAL/MOL
REMARK 922        TOTAL FREE ENERGY PREDICTED BY IDOCK:   -4.84 KCAL/MOL
REMARK 923 INTER-LIGAND FREE ENERGY PREDICTED BY IDOCK:   -4.78 KCAL/MOL
REMARK 924 INTRA-LIGAND FREE ENERGY PREDICTED BY IDOCK:   -0.06 KCAL/MOL
REMARK 927      BINDING AFFINITY PREDICTED BY RF-SCORE:    0.00 PKD
ROOT
HETATM    1  C   UNL     1     -10.562   6.883  71.006  1.00  0.00    -0.244 C  
HETATM    2  C   UNL     1      -9.966   5.606  71.171  1.00  0.00    -0.244 C  
HETATM    3  C   UNL     1      -9.022   6.724  70.940  1.00  0.00    -0.150 C  
HETATM    4  C   UNL     1      -9.854   8.598  71.027  1.00  0.00    -0.210 C  
HETATM    5  C   UNL     1     -10.752   6.495  66.735  1.00  0.00    -0.344 C  
HETATM    6  O   UNL     1      -9.253   9.892  71.031  1.00  0.00    -0.296 OA 
HETATM    7  C   UNL     1      -9.289   7.909  72.066  1.00  0.00    -0.217 C  
HETATM    8  C   UNL     1      -7.635   8.367  71.316  1.00  0.00    -0.100 C  
HETATM    9  C   UNL     1     -10.427   7.325  69.195  1.00  0.00    -0.222 C  
HETATM   10  C   UNL     1      -9.412   7.119  66.391  1.00  0.00    -0.177 C  
HETATM   11  H   UNL     1      -9.638  10.760  71.071  1.00  0.00     0.000 HD 
HETATM   12  C   UNL     1      -7.751   8.582  69.598  1.00  0.00    -0.093 C  
HETATM   13  C   UNL     1     -10.976   6.232  68.244  1.00  0.00    -0.408 C  
HETATM   14  C   UNL     1      -8.867   7.798  68.643  1.00  0.00    -0.131 C  
HETATM   15  C   UNL     1      -9.055   8.349  67.207  1.00  0.00    -0.156 C  
HETATM   16  C   UNL     1      -7.896   9.160  66.617  1.00  0.00    -0.100 C  
HETATM   17  C   UNL     1      -6.780   8.380  65.944  1.00  0.00    -0.053 C  
HETATM   18  C   UNL     1      -7.197   7.088  65.291  1.00  0.00    -0.074 C  
HETATM   19  C   UNL     1      -8.556   6.543  65.530  1.00  0.00    -0.109 C  
HETATM   20  O   UNL     1      -6.420   6.449  64.581  1.00  0.00    -0.033 OA 
ENDROOT
BRANCH   4  21
HETATM   21  C   UNL     1     -11.282   9.024  71.512  1.00  0.00    -0.418 C  
HETATM   22  C   UNL     1     -12.373   9.406  71.826  1.00  0.00    -0.471 C  
ENDBRANCH   4  21
BRANCH   7  23
HETATM   23  C   UNL     1      -9.363   8.069  73.562  1.00  0.00    -0.285 C  
HETATM   24  C   UNL     1      -9.294   6.703  74.241  1.00  0.00    -0.247 C  
ENDBRANCH   7  23
TORSDOF 2
ENDMDL
MODEL       61
REMARK 921   NORMALIZED FREE ENERGY PREDICTED BY IDOCK:   -4.15 KCAL/MOL
REMARK 922        TOTAL FREE ENERGY PREDICTED BY IDOCK:   -4.79 KCAL/MOL
REMARK 923 INTER-LIGAND FREE ENERGY PREDICTED BY IDOCK:   -4.88 KCAL/MOL
REMARK 924 INTRA-LIGAND FREE ENERGY PREDICTED BY IDOCK:    0.08 KCAL/MOL
REMARK 927      BINDING AFFINITY PREDICTED BY RF-SCORE:    0.00 PKD
ROOT
HETATM    1  C   UNL     1      -8.037  11.259  66.920  1.00  0.00    -0.155 C  
HETATM    2  C   UNL     1      -7.119  12.044  67.663  1.00  0.00    -0.118 C  
HETATM    3  C   UNL     1      -7.897  11.059  68.450  1.00  0.00    -0.127 C  
HETATM    4  C   UNL     1      -8.977   9.714  67.338  1.00  0.00    -0.131 C  
HETATM    5  C   UNL     1     -11.278  13.990  67.607  1.00  0.00    -0.317 C  
HETATM    6  O   UNL     1      -9.690   8.539  67.720  1.00  0.00    -0.152 OA 
HETATM    7  C   UNL     1      -7.696   9.552  67.794  1.00  0.00    -0.088 C  
HETATM    8  C   UNL     1      -8.463   9.214  69.469  1.00  0.00    -0.128 C  
HETATM    9  C   UNL     1      -9.752  11.883  67.326  1.00  0.00    -0.191 C  
HETATM   10  C   UNL     1     -11.833  13.369  68.875  1.00  0.00    -0.373 C  
HETATM   11  H   UNL     1     -10.190   7.917  67.205  1.00  0.00     0.000 HD 
HETATM   12  C   UNL     1      -9.985  10.027  69.651  1.00  0.00    -0.263 C  
HETATM   13  C   UNL     1      -9.918  13.413  67.144  1.00  0.00    -0.242 C  
HETATM   14  C   UNL     1     -10.372  11.446  68.872  1.00  0.00    -0.203 C  
HETATM   15  C   UNL     1     -11.868  11.851  68.877  1.00  0.00    -0.366 C  
HETATM   16  C   UNL     1     -12.743  11.260  69.988  1.00  0.00    -0.066 C  
HETATM   17  C   UNL     1     -12.758  11.993  71.318  1.00  0.00    -0.382 C  
HETATM   18  C   UNL     1     -12.558  13.484  71.238  1.00  0.00    -0.341 C  
HETATM   19  C   UNL     1     -12.135  14.105  69.958  1.00  0.00    -0.409 C  
HETATM   20  O   UNL     1     -12.708  14.205  72.224  1.00  0.00    -0.322 OA 
ENDROOT
BRANCH   4  21
HETATM   21  C   UNL     1      -8.927   9.441  65.795  1.00  0.00    -0.227 C  
HETATM   22  C   UNL     1      -8.879   9.154  64.633  1.00  0.00    -0.183 C  
ENDBRANCH   4  21
BRANCH   7  23
HETATM   23  C   UNL     1      -6.586   8.609  67.413  1.00  0.00    -0.058 C  
HETATM   24  C   UNL     1      -5.286   9.385  67.207  1.00  0.00    -0.036 C  
ENDBRANCH   7  23
TORSDOF 2
ENDMDL
MODEL       62
REMARK 921   NORMALIZED FREE ENERGY PREDICTED BY IDOCK:   -4.14 KCAL/MOL
REMARK 922        TOTAL FREE ENERGY PREDICTED BY IDOCK:   -4.78 KCAL/MOL
REMARK 923 INTER-LIGAND FREE ENERGY PREDICTED BY IDOCK:   -4.66 KCAL/MOL
REMARK 924 INTRA-LIGAND FREE ENERGY PREDICTED BY IDOCK:   -0.12 KCAL/MOL
REMARK 927      BINDING AFFINITY PREDICTED BY RF-SCORE:    0.00 PKD
ROOT
HETATM    1  C   UNL     1      -8.366   6.785  68.687  1.00  0.00    -0.120 C  
HETATM    2  C   UNL     1      -7.405   7.297  69.596  1.00  0.00    -0.088 C  
HETATM    3  C   UNL     1      -8.812   7.665  69.882  1.00  0.00    -0.143 C  
HETATM    4  C   UNL     1     -10.217   6.667  68.769  1.00  0.00    -0.171 C  
HETATM    5  C   UNL     1      -8.220  10.285  66.205  1.00  0.00    -0.138 C  
HETATM    6  O   UNL     1     -11.639   6.621  68.876  1.00  0.00    -0.601 OA 
HETATM    7  C   UNL     1      -9.728   6.290  69.991  1.00  0.00    -0.193 C  
HETATM    8  C   UNL     1     -10.830   7.622  70.711  1.00  0.00    -0.246 C  
HETATM    9  C   UNL     1      -8.946   8.215  67.633  1.00  0.00    -0.135 C  
HETATM   10  C   UNL     1      -9.329  11.079  66.869  1.00  0.00    -0.189 C  
HETATM   11  H   UNL     1     -12.290   6.158  68.361  1.00  0.00     0.000 HD 
HETATM   12  C   UNL     1     -11.099   8.910  69.579  1.00  0.00    -0.015 C  
HETATM   13  C   UNL     1      -7.792   9.008  66.969  1.00  0.00    -0.098 C  
HETATM   14  C   UNL     1     -10.013   9.334  68.390  1.00  0.00    -0.196 C  
HETATM   15  C   UNL     1     -10.545  10.264  67.270  1.00  0.00    -0.324 C  
HETATM   16  C   UNL     1     -11.773  11.118  67.602  1.00  0.00    -0.168 C  
HETATM   17  C   UNL     1     -11.524  12.446  68.295  1.00  0.00    -0.360 C  
HETATM   18  C   UNL     1     -10.217  13.115  67.959  1.00  0.00    -0.233 C  
HETATM   19  C   UNL     1      -9.180  12.374  67.198  1.00  0.00    -0.199 C  
HETATM   20  O   UNL     1      -9.971  14.263  68.329  1.00  0.00    -0.225 OA 
ENDROOT
BRANCH   4  21
HETATM   21  C   UNL     1     -10.034   5.428  67.826  1.00  0.00    -0.198 C  
HETATM   22  C   UNL     1      -9.874   4.438  67.171  1.00  0.00    -0.217 C  
ENDBRANCH   4  21
BRANCH   7  23
HETATM   23  C   UNL     1      -9.748   4.986  70.744  1.00  0.00    -0.263 C  
HETATM   24  C   UNL     1      -8.807   5.058  71.946  1.00  0.00    -0.140 C  
ENDBRANCH   7  23
TORSDOF 2
ENDMDL
MODEL       63
REMARK 921   NORMALIZED FREE ENERGY PREDICTED BY IDOCK:   -4.14 KCAL/MOL
REMARK 922        TOTAL FREE ENERGY PREDICTED BY IDOCK:   -4.78 KCAL/MOL
REMARK 923 INTER-LIGAND FREE ENERGY PREDICTED BY IDOCK:   -4.64 KCAL/MOL
REMARK 924 INTRA-LIGAND FREE ENERGY PREDICTED BY IDOCK:   -0.14 KCAL/MOL
REMARK 927      BINDING AFFINITY PREDICTED BY RF-SCORE:    0.00 PKD
ROOT
HETATM    1  C   UNL     1      -7.633   8.489  68.427  1.00  0.00    -0.096 C  
HETATM    2  C   UNL     1      -8.195   8.721  69.708  1.00  0.00    -0.117 C  
HETATM    3  C   UNL     1      -9.171   8.496  68.616  1.00  0.00    -0.142 C  
HETATM    4  C   UNL     1      -8.361   7.844  66.847  1.00  0.00    -0.116 C  
HETATM    5  C   UNL     1      -7.777  12.645  67.359  1.00  0.00    -0.161 C  
HETATM    6  O   UNL     1      -8.978   7.363  65.653  1.00  0.00    -0.347 OA 
HETATM    7  C   UNL     1      -8.832   7.060  67.866  1.00  0.00    -0.124 C  
HETATM    8  C   UNL     1     -10.547   7.495  67.250  1.00  0.00    -0.394 C  
HETATM    9  C   UNL     1      -7.917  10.032  67.412  1.00  0.00    -0.106 C  
HETATM   10  C   UNL     1      -9.148  12.664  66.711  1.00  0.00    -0.214 C  
HETATM   11  H   UNL     1      -8.604   7.061  64.834  1.00  0.00     0.000 HD 
HETATM   12  C   UNL     1     -10.571   9.045  66.469  1.00  0.00    -0.076 C  
HETATM   13  C   UNL     1      -7.430  11.331  68.102  1.00  0.00    -0.091 C  
HETATM   14  C   UNL     1      -9.523  10.283  66.845  1.00  0.00    -0.200 C  
HETATM   15  C   UNL     1      -9.458  11.460  65.839  1.00  0.00    -0.251 C  
HETATM   16  C   UNL     1     -10.671  11.661  64.925  1.00  0.00    -0.352 C  
HETATM   17  C   UNL     1     -11.826  12.477  65.480  1.00  0.00    -0.491 C  
HETATM   18  C   UNL     1     -11.444  13.553  66.462  1.00  0.00    -0.339 C  
HETATM   19  C   UNL     1     -10.062  13.606  67.001  1.00  0.00    -0.248 C  
HETATM   20  O   UNL     1     -12.265  14.381  66.858  1.00  0.00    -0.415 OA 
ENDROOT
BRANCH   4  21
HETATM   21  C   UNL     1      -6.906   7.345  66.550  1.00  0.00    -0.062 C  
HETATM   22  C   UNL     1      -5.774   7.039  66.303  1.00  0.00    -0.030 C  
ENDBRANCH   4  21
BRANCH   7  23
HETATM   23  C   UNL     1      -8.641   5.606  68.210  1.00  0.00    -0.107 C  
HETATM   24  C   UNL     1      -9.251   5.306  69.579  1.00  0.00    -0.157 C  
ENDBRANCH   7  23
TORSDOF 2
ENDMDL
MODEL       64
REMARK 921   NORMALIZED FREE ENERGY PREDICTED BY IDOCK:   -4.13 KCAL/MOL
REMARK 922        TOTAL FREE ENERGY PREDICTED BY IDOCK:   -4.78 KCAL/MOL
REMARK 923 INTER-LIGAND FREE ENERGY PREDICTED BY IDOCK:   -4.74 KCAL/MOL
REMARK 924 INTRA-LIGAND FREE ENERGY PREDICTED BY IDOCK:   -0.04 KCAL/MOL
REMARK 927      BINDING AFFINITY PREDICTED BY RF-SCORE:    0.00 PKD
ROOT
HETATM    1  C   UNL     1      -8.763   7.690  70.123  1.00  0.00    -0.141 C  
HETATM    2  C   UNL     1      -9.773   8.332  70.885  1.00  0.00    -0.204 C  
HETATM    3  C   UNL     1     -10.201   7.821  69.562  1.00  0.00    -0.207 C  
HETATM    4  C   UNL     1      -8.838   6.619  68.610  1.00  0.00    -0.122 C  
HETATM    5  C   UNL     1      -7.674  11.312  68.093  1.00  0.00    -0.112 C  
HETATM    6  O   UNL     1      -8.952   5.819  67.434  1.00  0.00    -0.111 OA 
HETATM    7  C   UNL     1      -9.838   6.210  69.451  1.00  0.00    -0.191 C  
HETATM    8  C   UNL     1     -11.005   6.505  68.017  1.00  0.00    -0.368 C  
HETATM    9  C   UNL     1      -8.294   8.853  68.738  1.00  0.00    -0.123 C  
HETATM   10  C   UNL     1      -8.600  11.188  66.897  1.00  0.00    -0.148 C  
HETATM   11  H   UNL     1      -8.321   5.262  66.993  1.00  0.00     0.000 HD 
HETATM   12  C   UNL     1     -10.407   7.737  66.950  1.00  0.00    -0.396 C  
HETATM   13  C   UNL     1      -7.928  10.280  69.218  1.00  0.00    -0.149 C  
HETATM   14  C   UNL     1      -9.421   8.985  67.442  1.00  0.00    -0.179 C  
HETATM   15  C   UNL     1      -8.713   9.788  66.322  1.00  0.00    -0.152 C  
HETATM   16  C   UNL     1      -9.351   9.747  64.929  1.00  0.00    -0.327 C  
HETATM   17  C   UNL     1     -10.464  10.743  64.651  1.00  0.00    -0.346 C  
HETATM   18  C   UNL     1     -10.357  12.054  65.386  1.00  0.00    -0.266 C  
HETATM   19  C   UNL     1      -9.361  12.212  66.475  1.00  0.00    -0.229 C  
HETATM   20  O   UNL     1     -11.104  12.998  65.125  1.00  0.00    -0.285 OA 
ENDROOT
BRANCH   4  21
HETATM   21  C   UNL     1      -7.515   5.990  69.167  1.00  0.00    -0.086 C  
HETATM   22  C   UNL     1      -6.479   5.500  69.517  1.00  0.00    -0.042 C  
ENDBRANCH   4  21
BRANCH   7  23
HETATM   23  C   UNL     1     -10.082   4.928  70.203  1.00  0.00    -0.332 C  
HETATM   24  C   UNL     1     -10.708   5.228  71.564  1.00  0.00    -0.221 C  
ENDBRANCH   7  23
TORSDOF 2
ENDMDL
MODEL       65
REMARK 921   NORMALIZED FREE ENERGY PREDICTED BY IDOCK:   -4.10 KCAL/MOL
REMARK 922        TOTAL FREE ENERGY PREDICTED BY IDOCK:   -4.74 KCAL/MOL
REMARK 923 INTER-LIGAND FREE ENERGY PREDICTED BY IDOCK:   -5.11 KCAL/MOL
REMARK 924 INTRA-LIGAND FREE ENERGY PREDICTED BY IDOCK:    0.38 KCAL/MOL
REMARK 927      BINDING AFFINITY PREDICTED BY RF-SCORE:    0.00 PKD
ROOT
HETATM    1  C   UNL     1      -9.278  16.203  68.373  1.00  0.00    -0.203 C  
HETATM    2  C   UNL     1      -9.754  15.958  69.686  1.00  0.00    -0.210 C  
HETATM    3  C   UNL     1      -8.617  15.112  69.253  1.00  0.00    -0.211 C  
HETATM    4  C   UNL     1      -7.729  15.682  67.493  1.00  0.00    -0.168 C  
HETATM    5  C   UNL     1     -11.834  13.215  66.647  1.00  0.00    -0.449 C  
HETATM    6  O   UNL     1      -6.531  15.236  66.859  1.00  0.00    -0.207 OA 
HETATM    7  C   UNL     1      -7.371  16.081  68.753  1.00  0.00    -0.165 C  
HETATM    8  C   UNL     1      -6.582  14.392  68.935  1.00  0.00    -0.094 C  
HETATM    9  C   UNL     1      -9.836  14.771  67.309  1.00  0.00    -0.230 C  
HETATM   10  C   UNL     1     -10.887  12.033  66.729  1.00  0.00    -0.307 C  
HETATM   11  H   UNL     1      -6.120  15.499  66.044  1.00  0.00     0.000 HD 
HETATM   12  C   UNL     1      -7.377  13.205  67.950  1.00  0.00    -0.131 C  
HETATM   13  C   UNL     1     -11.356  14.481  67.400  1.00  0.00    -0.370 C  
HETATM   14  C   UNL     1      -8.984  13.290  67.521  1.00  0.00    -0.208 C  
HETATM   15  C   UNL     1      -9.443  12.348  66.379  1.00  0.00    -0.240 C  
HETATM   16  C   UNL     1      -8.590  11.103  66.120  1.00  0.00    -0.172 C  
HETATM   17  C   UNL     1      -8.885   9.875  66.965  1.00  0.00    -0.144 C  
HETATM   18  C   UNL     1     -10.318   9.721  67.402  1.00  0.00    -0.240 C  
HETATM   19  C   UNL     1     -11.275  10.838  67.207  1.00  0.00    -0.272 C  
HETATM   20  O   UNL     1     -10.714   8.693  67.952  1.00  0.00    -0.194 OA 
ENDROOT
BRANCH   4  21
HETATM   21  C   UNL     1      -7.933  16.995  66.662  1.00  0.00    -0.302 C  
HETATM   22  C   UNL     1      -8.018  17.986  65.994  1.00  0.00    -0.156 C  
ENDBRANCH   4  21
BRANCH   7  23
HETATM   23  C   UNL     1      -6.533  17.222  69.266  1.00  0.00    -0.243 C  
HETATM   24  C   UNL     1      -5.550  16.719  70.322  1.00  0.00    -0.198 C  
ENDBRANCH   7  23
TORSDOF 2
ENDMDL
MODEL       66
REMARK 921   NORMALIZED FREE ENERGY PREDICTED BY IDOCK:   -4.07 KCAL/MOL
REMARK 922        TOTAL FREE ENERGY PREDICTED BY IDOCK:   -4.71 KCAL/MOL
REMARK 923 INTER-LIGAND FREE ENERGY PREDICTED BY IDOCK:   -4.57 KCAL/MOL
REMARK 924 INTRA-LIGAND FREE ENERGY PREDICTED BY IDOCK:   -0.14 KCAL/MOL
REMARK 927      BINDING AFFINITY PREDICTED BY RF-SCORE:    0.00 PKD
ROOT
HETATM    1  C   UNL     1     -10.811  10.619  66.774  1.00  0.00    -0.233 C  
HETATM    2  C   UNL     1     -11.394  10.721  68.062  1.00  0.00    -0.378 C  
HETATM    3  C   UNL     1      -9.934  10.967  68.003  1.00  0.00    -0.188 C  
HETATM    4  C   UNL     1      -9.156  11.138  66.112  1.00  0.00    -0.201 C  
HETATM    5  C   UNL     1      -9.835   6.470  67.295  1.00  0.00    -0.175 C  
HETATM    6  O   UNL     1      -7.863  11.539  65.663  1.00  0.00    -0.327 OA 
HETATM    7  C   UNL     1      -9.623  12.159  66.897  1.00  0.00    -0.210 C  
HETATM    8  C   UNL     1      -8.019  12.002  67.850  1.00  0.00    -0.147 C  
HETATM    9  C   UNL     1      -9.832   9.027  66.736  1.00  0.00    -0.300 C  
HETATM   10  C   UNL     1      -8.441   6.636  67.871  1.00  0.00    -0.119 C  
HETATM   11  H   UNL     1      -7.502  11.618  64.787  1.00  0.00     0.000 HD 
HETATM   12  C   UNL     1      -7.388  10.387  67.778  1.00  0.00    -0.087 C  
HETATM   13  C   UNL     1     -10.647   7.783  67.174  1.00  0.00    -0.401 C  
HETATM   14  C   UNL     1      -8.339   9.032  67.594  1.00  0.00    -0.117 C  
HETATM   15  C   UNL     1      -7.606   7.721  67.214  1.00  0.00    -0.104 C  
HETATM   16  C   UNL     1      -6.115   7.636  67.553  1.00  0.00    -0.049 C  
HETATM   17  C   UNL     1      -5.751   7.184  68.957  1.00  0.00    -0.019 C  
HETATM   18  C   UNL     1      -6.719   6.224  69.598  1.00  0.00    -0.053 C  
HETATM   19  C   UNL     1      -8.036   5.968  68.964  1.00  0.00    -0.107 C  
HETATM   20  O   UNL     1      -6.457   5.664  70.663  1.00  0.00    -0.033 OA 
ENDROOT
BRANCH   4  21
HETATM   21  C   UNL     1      -9.907  11.264  64.742  1.00  0.00    -0.312 C  
HETATM   22  C   UNL     1     -10.480  11.279  63.690  1.00  0.00    -0.464 C  
ENDBRANCH   4  21
BRANCH   7  23
HETATM   23  C   UNL     1     -10.036  13.576  66.595  1.00  0.00    -0.282 C  
HETATM   24  C   UNL     1     -10.831  14.152  67.765  1.00  0.00    -0.260 C  
ENDBRANCH   7  23
TORSDOF 2
ENDMDL
MODEL       67
REMARK 921   NORMALIZED FREE ENERGY PREDICTED BY IDOCK:   -4.05 KCAL/MOL
REMARK 922        TOTAL FREE ENERGY PREDICTED BY IDOCK:   -4.69 KCAL/MOL
REMARK 923 INTER-LIGAND FREE ENERGY PREDICTED BY IDOCK:   -4.52 KCAL/MOL
REMARK 924 INTRA-LIGAND FREE ENERGY PREDICTED BY IDOCK:   -0.17 KCAL/MOL
REMARK 927      BINDING AFFINITY PREDICTED BY RF-SCORE:    0.00 PKD
ROOT
HETATM    1  C   UNL     1      -8.450   5.557  65.454  1.00  0.00    -0.146 C  
HETATM    2  C   UNL     1      -7.178   6.145  65.677  1.00  0.00    -0.074 C  
HETATM    3  C   UNL     1      -7.665   5.253  66.755  1.00  0.00    -0.096 C  
HETATM    4  C   UNL     1      -9.338   4.159  66.292  1.00  0.00    -0.168 C  
HETATM    5  C   UNL     1     -10.522   8.724  67.483  1.00  0.00    -0.340 C  
HETATM    6  O   UNL     1      -9.984   3.092  66.985  1.00  0.00    -0.286 OA 
HETATM    7  C   UNL     1      -8.037   3.772  66.116  1.00  0.00    -0.100 C  
HETATM    8  C   UNL     1      -8.002   3.467  67.964  1.00  0.00    -0.075 C  
HETATM    9  C   UNL     1      -9.662   6.421  66.585  1.00  0.00    -0.197 C  
HETATM   10  C   UNL     1     -10.534   8.128  68.879  1.00  0.00    -0.202 C  
HETATM   11  H   UNL     1     -10.758   2.586  66.771  1.00  0.00     0.000 HD 
HETATM   12  C   UNL     1      -9.118   4.499  68.802  1.00  0.00    -0.166 C  
HETATM   13  C   UNL     1      -9.637   7.965  66.463  1.00  0.00    -0.281 C  
HETATM   14  C   UNL     1      -9.576   6.003  68.253  1.00  0.00    -0.126 C  
HETATM   15  C   UNL     1     -10.815   6.637  68.932  1.00  0.00    -0.326 C  
HETATM   16  C   UNL     1     -11.175   6.132  70.333  1.00  0.00    -0.423 C  
HETATM   17  C   UNL     1     -10.462   6.783  71.506  1.00  0.00    -0.236 C  
HETATM   18  C   UNL     1     -10.077   8.226  71.308  1.00  0.00    -0.198 C  
HETATM   19  C   UNL     1     -10.185   8.842  69.963  1.00  0.00    -0.214 C  
HETATM   20  O   UNL     1      -9.640   8.906  72.237  1.00  0.00    -0.295 OA 
ENDROOT
BRANCH   4  21
HETATM   21  C   UNL     1     -10.040   3.968  64.904  1.00  0.00    -0.214 C  
HETATM   22  C   UNL     1     -10.574   3.741  63.855  1.00  0.00    -0.273 C  
ENDBRANCH   4  21
BRANCH   7  23
HETATM   23  C   UNL     1      -7.394   2.688  65.291  1.00  0.00    -0.063 C  
HETATM   24  C   UNL     1      -5.877   2.870  65.275  1.00  0.00    -0.018 C  
ENDBRANCH   7  23
TORSDOF 2
ENDMDL
MODEL       68
REMARK 921   NORMALIZED FREE ENERGY PREDICTED BY IDOCK:   -4.01 KCAL/MOL
REMARK 922        TOTAL FREE ENERGY PREDICTED BY IDOCK:   -4.64 KCAL/MOL
REMARK 923 INTER-LIGAND FREE ENERGY PREDICTED BY IDOCK:   -4.61 KCAL/MOL
REMARK 924 INTRA-LIGAND FREE ENERGY PREDICTED BY IDOCK:   -0.03 KCAL/MOL
REMARK 927      BINDING AFFINITY PREDICTED BY RF-SCORE:    0.00 PKD
ROOT
HETATM    1  C   UNL     1      -7.539  10.669  67.287  1.00  0.00    -0.100 C  
HETATM    2  C   UNL     1      -6.977  10.399  68.561  1.00  0.00    -0.062 C  
HETATM    3  C   UNL     1      -8.455  10.317  68.486  1.00  0.00    -0.121 C  
HETATM    4  C   UNL     1      -9.236  10.388  66.590  1.00  0.00    -0.156 C  
HETATM    5  C   UNL     1      -8.064  14.842  68.154  1.00  0.00    -0.134 C  
HETATM    6  O   UNL     1     -10.563  10.168  66.113  1.00  0.00    -0.146 OA 
HETATM    7  C   UNL     1      -8.886   9.261  67.286  1.00  0.00    -0.132 C  
HETATM    8  C   UNL     1     -10.469   9.511  68.254  1.00  0.00    -0.265 C  
HETATM    9  C   UNL     1      -8.340  12.355  67.385  1.00  0.00    -0.180 C  
HETATM   10  C   UNL     1      -9.472  14.780  68.718  1.00  0.00    -0.206 C  
HETATM   11  H   UNL     1     -10.925  10.200  65.236  1.00  0.00     0.000 HD 
HETATM   12  C   UNL     1     -10.922  11.185  68.319  1.00  0.00    -0.278 C  
HETATM   13  C   UNL     1      -7.399  13.463  67.921  1.00  0.00    -0.140 C  
HETATM   14  C   UNL     1      -9.829  12.440  68.245  1.00  0.00    -0.224 C  
HETATM   15  C   UNL     1     -10.415  13.849  67.977  1.00  0.00    -0.243 C  
HETATM   16  C   UNL     1     -11.890  14.067  68.327  1.00  0.00    -0.406 C  
HETATM   17  C   UNL     1     -12.211  14.438  69.764  1.00  0.00    -0.370 C  
HETATM   18  C   UNL     1     -11.149  15.231  70.480  1.00  0.00    -0.306 C  
HETATM   19  C   UNL     1      -9.808  15.395  69.865  1.00  0.00    -0.191 C  
HETATM   20  O   UNL     1     -11.356  15.726  71.588  1.00  0.00    -0.384 OA 
ENDROOT
BRANCH   4  21
HETATM   21  C   UNL     1      -8.496  10.296  65.212  1.00  0.00    -0.168 C  
HETATM   22  C   UNL     1      -7.915  10.148  64.174  1.00  0.00    -0.154 C  
ENDBRANCH   4  21
BRANCH   7  23
HETATM   23  C   UNL     1      -8.627   7.838  66.866  1.00  0.00    -0.130 C  
HETATM   24  C   UNL     1      -7.600   7.195  67.797  1.00  0.00    -0.111 C  
ENDBRANCH   7  23
TORSDOF 2
ENDMDL
MODEL       69
REMARK 921   NORMALIZED FREE ENERGY PREDICTED BY IDOCK:   -3.93 KCAL/MOL
REMARK 922        TOTAL FREE ENERGY PREDICTED BY IDOCK:   -4.55 KCAL/MOL
REMARK 923 INTER-LIGAND FREE ENERGY PREDICTED BY IDOCK:   -4.39 KCAL/MOL
REMARK 924 INTRA-LIGAND FREE ENERGY PREDICTED BY IDOCK:   -0.16 KCAL/MOL
REMARK 927      BINDING AFFINITY PREDICTED BY RF-SCORE:    0.00 PKD
ROOT
HETATM    1  C   UNL     1     -10.174   8.665  71.358  1.00  0.00    -0.324 C  
HETATM    2  C   UNL     1     -10.966   9.654  70.722  1.00  0.00    -0.397 C  
HETATM    3  C   UNL     1     -10.903   8.346  70.028  1.00  0.00    -0.225 C  
HETATM    4  C   UNL     1     -10.032   6.831  71.104  1.00  0.00    -0.181 C  
HETATM    5  C   UNL     1      -6.657   9.729  69.138  1.00  0.00    -0.052 C  
HETATM    6  O   UNL     1      -9.948   5.430  70.851  1.00  0.00    -0.181 OA 
HETATM    7  C   UNL     1     -11.364   7.148  71.073  1.00  0.00    -0.310 C  
HETATM    8  C   UNL     1     -11.401   6.318  69.395  1.00  0.00    -0.448 C  
HETATM    9  C   UNL     1      -8.610   8.480  70.352  1.00  0.00    -0.146 C  
HETATM   10  C   UNL     1      -6.833   8.780  67.967  1.00  0.00    -0.070 C  
HETATM   11  H   UNL     1      -9.545   4.728  71.349  1.00  0.00     0.000 HD 
HETATM   12  C   UNL     1      -9.860   6.410  68.602  1.00  0.00    -0.152 C  
HETATM   13  C   UNL     1      -7.877   9.819  70.087  1.00  0.00    -0.196 C  
HETATM   14  C   UNL     1      -8.762   7.636  68.859  1.00  0.00    -0.135 C  
HETATM   15  C   UNL     1      -7.323   7.392  68.340  1.00  0.00    -0.103 C  
HETATM   16  C   UNL     1      -7.153   6.361  67.220  1.00  0.00    -0.073 C  
HETATM   17  C   UNL     1      -7.357   6.849  65.796  1.00  0.00    -0.079 C  
HETATM   18  C   UNL     1      -6.992   8.289  65.548  1.00  0.00    -0.066 C  
HETATM   19  C   UNL     1      -6.697   9.185  66.693  1.00  0.00    -0.076 C  
HETATM   20  O   UNL     1      -6.960   8.755  64.409  1.00  0.00    -0.083 OA 
ENDROOT
BRANCH   4  21
HETATM   21  C   UNL     1      -9.627   6.800  72.617  1.00  0.00    -0.160 C  
HETATM   22  C   UNL     1      -9.363   6.711  73.783  1.00  0.00    -0.187 C  
ENDBRANCH   4  21
BRANCH   7  23
HETATM   23  C   UNL     1     -12.521   6.795  71.971  1.00  0.00    -0.285 C  
HETATM   24  C   UNL     1     -13.773   7.555  71.537  1.00  0.00    -0.460 C  
ENDBRANCH   7  23
TORSDOF 2
ENDMDL
MODEL       70
REMARK 921   NORMALIZED FREE ENERGY PREDICTED BY IDOCK:   -3.86 KCAL/MOL
REMARK 922        TOTAL FREE ENERGY PREDICTED BY IDOCK:   -4.47 KCAL/MOL
REMARK 923 INTER-LIGAND FREE ENERGY PREDICTED BY IDOCK:   -4.29 KCAL/MOL
REMARK 924 INTRA-LIGAND FREE ENERGY PREDICTED BY IDOCK:   -0.18 KCAL/MOL
REMARK 927      BINDING AFFINITY PREDICTED BY RF-SCORE:    0.00 PKD
ROOT
HETATM    1  C   UNL     1      -7.773   5.723  66.846  1.00  0.00    -0.101 C  
HETATM    2  C   UNL     1      -7.157   5.980  68.098  1.00  0.00    -0.078 C  
HETATM    3  C   UNL     1      -8.580   6.380  67.994  1.00  0.00    -0.117 C  
HETATM    4  C   UNL     1      -9.550   5.719  66.311  1.00  0.00    -0.134 C  
HETATM    5  C   UNL     1      -6.826   9.625  65.325  1.00  0.00    -0.096 C  
HETATM    6  O   UNL     1     -10.930   5.750  65.949  1.00  0.00    -0.554 OA 
HETATM    7  C   UNL     1      -9.484   5.076  67.518  1.00  0.00    -0.152 C  
HETATM    8  C   UNL     1     -10.758   6.313  68.112  1.00  0.00    -0.364 C  
HETATM    9  C   UNL     1      -7.977   7.370  65.985  1.00  0.00    -0.115 C  
HETATM   10  C   UNL     1      -8.089  10.348  65.754  1.00  0.00    -0.155 C  
HETATM   11  H   UNL     1     -11.379   5.445  65.170  1.00  0.00     0.000 HD 
HETATM   12  C   UNL     1     -10.644   7.814  67.249  1.00  0.00    -0.376 C  
HETATM   13  C   UNL     1      -6.669   8.197  65.901  1.00  0.00    -0.049 C  
HETATM   14  C   UNL     1      -9.231   8.388  66.580  1.00  0.00    -0.226 C  
HETATM   15  C   UNL     1      -9.370   9.554  65.570  1.00  0.00    -0.317 C  
HETATM   16  C   UNL     1     -10.639  10.409  65.666  1.00  0.00    -0.096 C  
HETATM   17  C   UNL     1     -10.626  11.554  66.663  1.00  0.00    -0.294 C  
HETATM   18  C   UNL     1      -9.280  12.185  66.906  1.00  0.00    -0.203 C  
HETATM   19  C   UNL     1      -8.054  11.539  66.376  1.00  0.00    -0.069 C  
HETATM   20  O   UNL     1      -9.166  13.218  67.566  1.00  0.00    -0.195 OA 
ENDROOT
BRANCH   4  21
HETATM   21  C   UNL     1      -9.072   4.681  65.238  1.00  0.00    -0.151 C  
HETATM   22  C   UNL     1      -8.731   3.939  64.361  1.00  0.00    -0.120 C  
ENDBRANCH   4  21
BRANCH   7  23
HETATM   23  C   UNL     1      -9.749   3.654  67.936  1.00  0.00    -0.108 C  
HETATM   24  C   UNL     1      -9.228   3.418  69.353  1.00  0.00    -0.222 C  
ENDBRANCH   7  23
TORSDOF 2
ENDMDL
MODEL       71
REMARK 921   NORMALIZED FREE ENERGY PREDICTED BY IDOCK:   -3.84 KCAL/MOL
REMARK 922        TOTAL FREE ENERGY PREDICTED BY IDOCK:   -4.44 KCAL/MOL
REMARK 923 INTER-LIGAND FREE ENERGY PREDICTED BY IDOCK:   -4.52 KCAL/MOL
REMARK 924 INTRA-LIGAND FREE ENERGY PREDICTED BY IDOCK:    0.08 KCAL/MOL
REMARK 927      BINDING AFFINITY PREDICTED BY RF-SCORE:    0.00 PKD
ROOT
HETATM    1  C   UNL     1      -8.766   8.701  69.747  1.00  0.00    -0.132 C  
HETATM    2  C   UNL     1      -7.528   8.284  69.196  1.00  0.00    -0.086 C  
HETATM    3  C   UNL     1      -8.579   7.242  69.262  1.00  0.00    -0.137 C  
HETATM    4  C   UNL     1     -10.451   7.923  69.752  1.00  0.00    -0.233 C  
HETATM    5  C   UNL     1      -7.669   7.487  73.717  1.00  0.00    -0.151 C  
HETATM    6  O   UNL     1     -11.720   7.270  69.743  1.00  0.00    -0.509 OA 
HETATM    7  C   UNL     1      -9.939   7.785  68.490  1.00  0.00    -0.193 C  
HETATM    8  C   UNL     1     -10.243   5.948  68.695  1.00  0.00    -0.243 C  
HETATM    9  C   UNL     1      -8.896   7.942  71.450  1.00  0.00    -0.158 C  
HETATM   10  C   UNL     1      -8.208   6.069  73.676  1.00  0.00    -0.112 C  
HETATM   11  H   UNL     1     -12.587   7.585  69.970  1.00  0.00     0.000 HD 
HETATM   12  C   UNL     1     -10.168   5.471  70.362  1.00  0.00    -0.321 C  
HETATM   13  C   UNL     1      -7.666   8.217  72.351  1.00  0.00    -0.161 C  
HETATM   14  C   UNL     1      -9.248   6.257  71.506  1.00  0.00    -0.149 C  
HETATM   15  C   UNL     1      -9.553   5.919  72.987  1.00  0.00    -0.158 C  
HETATM   16  C   UNL     1     -10.237   4.577  73.266  1.00  0.00    -0.223 C  
HETATM   17  C   UNL     1      -9.341   3.357  73.392  1.00  0.00    -0.117 C  
HETATM   18  C   UNL     1      -7.963   3.621  73.941  1.00  0.00    -0.075 C  
HETATM   19  C   UNL     1      -7.484   5.017  74.096  1.00  0.00    -0.086 C  
HETATM   20  O   UNL     1      -7.204   2.699  74.238  1.00  0.00    -0.039 OA 
ENDROOT
BRANCH   4  21
HETATM   21  C   UNL     1     -10.972   9.398  69.851  1.00  0.00    -0.251 C  
HETATM   22  C   UNL     1     -11.359  10.532  69.848  1.00  0.00    -0.380 C  
ENDBRANCH   4  21
BRANCH   7  23
HETATM   23  C   UNL     1     -10.350   8.341  67.152  1.00  0.00    -0.387 C  
HETATM   24  C   UNL     1      -9.117   8.792  66.369  1.00  0.00    -0.221 C  
ENDBRANCH   7  23
TORSDOF 2
ENDMDL
MODEL       72
REMARK 921   NORMALIZED FREE ENERGY PREDICTED BY IDOCK:   -3.81 KCAL/MOL
REMARK 922        TOTAL FREE ENERGY PREDICTED BY IDOCK:   -4.41 KCAL/MOL
REMARK 923 INTER-LIGAND FREE ENERGY PREDICTED BY IDOCK:   -4.25 KCAL/MOL
REMARK 924 INTRA-LIGAND FREE ENERGY PREDICTED BY IDOCK:   -0.16 KCAL/MOL
REMARK 927      BINDING AFFINITY PREDICTED BY RF-SCORE:    0.00 PKD
ROOT
HETATM    1  C   UNL     1     -10.400   7.035  67.150  1.00  0.00    -0.351 C  
HETATM    2  C   UNL     1     -10.604   8.433  67.281  1.00  0.00    -0.328 C  
HETATM    3  C   UNL     1      -9.263   7.945  67.680  1.00  0.00    -0.147 C  
HETATM    4  C   UNL     1      -8.864   5.993  67.187  1.00  0.00    -0.108 C  
HETATM    5  C   UNL     1     -11.611   6.247  71.193  1.00  0.00    -0.339 C  
HETATM    6  O   UNL     1      -7.655   5.239  67.246  1.00  0.00    -0.089 OA 
HETATM    7  C   UNL     1      -8.592   7.098  66.425  1.00  0.00    -0.137 C  
HETATM    8  C   UNL     1      -7.153   7.397  67.586  1.00  0.00    -0.085 C  
HETATM    9  C   UNL     1     -10.400   6.313  68.873  1.00  0.00    -0.246 C  
HETATM   10  C   UNL     1     -10.251   6.344  71.859  1.00  0.00    -0.219 C  
HETATM   11  H   UNL     1      -7.470   4.335  67.018  1.00  0.00     0.000 HD 
HETATM   12  C   UNL     1      -7.463   6.754  69.168  1.00  0.00    -0.095 C  
HETATM   13  C   UNL     1     -11.642   6.705  69.714  1.00  0.00    -0.354 C  
HETATM   14  C   UNL     1      -8.989   6.599  69.817  1.00  0.00    -0.143 C  
HETATM   15  C   UNL     1      -9.114   5.709  71.079  1.00  0.00    -0.159 C  
HETATM   16  C   UNL     1      -7.844   5.500  71.911  1.00  0.00    -0.109 C  
HETATM   17  C   UNL     1      -7.515   6.560  72.948  1.00  0.00    -0.093 C  
HETATM   18  C   UNL     1      -8.704   7.254  73.561  1.00  0.00    -0.159 C  
HETATM   19  C   UNL     1     -10.055   7.058  72.981  1.00  0.00    -0.242 C  
HETATM   20  O   UNL     1      -8.577   8.013  74.522  1.00  0.00    -0.170 OA 
ENDROOT
BRANCH   4  21
HETATM   21  C   UNL     1      -9.678   5.020  66.267  1.00  0.00    -0.195 C  
HETATM   22  C   UNL     1     -10.235   4.269  65.517  1.00  0.00    -0.224 C  
ENDBRANCH   4  21
BRANCH   7  23
HETATM   23  C   UNL     1      -8.267   7.280  64.966  1.00  0.00    -0.100 C  
HETATM   24  C   UNL     1      -8.421   8.749  64.573  1.00  0.00    -0.158 C  
ENDBRANCH   7  23
TORSDOF 2
ENDMDL
MODEL       73
REMARK 921   NORMALIZED FREE ENERGY PREDICTED BY IDOCK:   -3.78 KCAL/MOL
REMARK 922        TOTAL FREE ENERGY PREDICTED BY IDOCK:   -4.39 KCAL/MOL
REMARK 923 INTER-LIGAND FREE ENERGY PREDICTED BY IDOCK:   -5.18 KCAL/MOL
REMARK 924 INTRA-LIGAND FREE ENERGY PREDICTED BY IDOCK:    0.79 KCAL/MOL
REMARK 927      BINDING AFFINITY PREDICTED BY RF-SCORE:    0.00 PKD
ROOT
HETATM    1  C   UNL     1     -11.134   7.448  70.026  1.00  0.00    -0.238 C  
HETATM    2  C   UNL     1     -11.261   6.275  69.238  1.00  0.00    -0.458 C  
HETATM    3  C   UNL     1     -11.286   6.064  70.705  1.00  0.00    -0.347 C  
HETATM    4  C   UNL     1     -11.429   7.774  71.829  1.00  0.00    -0.266 C  
HETATM    5  C   UNL     1      -6.866   7.078  70.297  1.00  0.00    -0.057 C  
HETATM    6  O   UNL     1     -11.650   7.963  73.226  1.00  0.00    -0.610 OA 
HETATM    7  C   UNL     1     -12.469   7.008  71.376  1.00  0.00    -0.426 C  
HETATM    8  C   UNL     1     -12.024   5.807  72.742  1.00  0.00    -0.070 C  
HETATM    9  C   UNL     1      -9.416   7.436  70.761  1.00  0.00    -0.167 C  
HETATM   10  C   UNL     1      -6.790   6.260  71.573  1.00  0.00    -0.071 C  
HETATM   11  H   UNL     1     -11.716   8.755  73.747  1.00  0.00     0.000 HD 
HETATM   12  C   UNL     1     -10.338   5.890  73.142  1.00  0.00    -0.230 C  
HETATM   13  C   UNL     1      -8.291   7.239  69.714  1.00  0.00    -0.135 C  
HETATM   14  C   UNL     1      -9.154   6.335  72.059  1.00  0.00    -0.142 C  
HETATM   15  C   UNL     1      -7.767   6.681  72.657  1.00  0.00    -0.101 C  
HETATM   16  C   UNL     1      -7.440   6.096  74.036  1.00  0.00    -0.087 C  
HETATM   17  C   UNL     1      -6.870   4.689  74.072  1.00  0.00    -0.070 C  
HETATM   18  C   UNL     1      -6.038   4.297  72.878  1.00  0.00    -0.016 C  
HETATM   19  C   UNL     1      -6.016   5.166  71.675  1.00  0.00    -0.024 C  
HETATM   20  O   UNL     1      -5.394   3.248  72.862  1.00  0.00     0.000 OA 
ENDROOT
BRANCH   4  21
HETATM   21  C   UNL     1     -11.733   9.240  71.365  1.00  0.00    -0.431 C  
HETATM   22  C   UNL     1     -11.888  10.378  71.025  1.00  0.00    -0.458 C  
ENDBRANCH   4  21
BRANCH   7  23
HETATM   23  C   UNL     1     -13.945   7.270  71.228  1.00  0.00    -0.342 C  
HETATM   24  C   UNL     1     -14.406   8.280  72.277  1.00  0.00    -0.432 C  
ENDBRANCH   7  23
TORSDOF 2
ENDMDL
MODEL       74
REMARK 921   NORMALIZED FREE ENERGY PREDICTED BY IDOCK:   -3.78 KCAL/MOL
REMARK 922        TOTAL FREE ENERGY PREDICTED BY IDOCK:   -4.38 KCAL/MOL
REMARK 923 INTER-LIGAND FREE ENERGY PREDICTED BY IDOCK:   -4.20 KCAL/MOL
REMARK 924 INTRA-LIGAND FREE ENERGY PREDICTED BY IDOCK:   -0.18 KCAL/MOL
REMARK 927      BINDING AFFINITY PREDICTED BY RF-SCORE:    0.00 PKD
ROOT
HETATM    1  C   UNL     1      -8.810  10.084  66.714  1.00  0.00    -0.144 C  
HETATM    2  C   UNL     1      -9.903  10.926  67.044  1.00  0.00    -0.214 C  
HETATM    3  C   UNL     1      -8.979  10.616  68.160  1.00  0.00    -0.141 C  
HETATM    4  C   UNL     1      -7.238   9.676  67.614  1.00  0.00    -0.089 C  
HETATM    5  C   UNL     1     -10.930   6.517  67.813  1.00  0.00    -0.407 C  
HETATM    6  O   UNL     1      -6.057   9.381  68.358  1.00  0.00    -0.044 OA 
HETATM    7  C   UNL     1      -7.435  11.027  67.724  1.00  0.00    -0.094 C  
HETATM    8  C   UNL     1      -7.326  10.772  69.576  1.00  0.00    -0.125 C  
HETATM    9  C   UNL     1      -9.156   8.409  67.467  1.00  0.00    -0.145 C  
HETATM   10  C   UNL     1     -10.502   6.438  69.267  1.00  0.00    -0.277 C  
HETATM   11  H   UNL     1      -5.252   8.946  68.106  1.00  0.00     0.000 HD 
HETATM   12  C   UNL     1      -7.841   9.179  70.034  1.00  0.00    -0.099 C  
HETATM   13  C   UNL     1     -10.546   7.834  67.096  1.00  0.00    -0.401 C  
HETATM   14  C   UNL     1      -8.952   8.286  69.173  1.00  0.00    -0.147 C  
HETATM   15  C   UNL     1      -9.045   6.779  69.521  1.00  0.00    -0.141 C  
HETATM   16  C   UNL     1      -8.550   6.355  70.907  1.00  0.00    -0.135 C  
HETATM   17  C   UNL     1      -9.536   6.465  72.057  1.00  0.00    -0.157 C  
HETATM   18  C   UNL     1     -10.983   6.267  71.688  1.00  0.00    -0.261 C  
HETATM   19  C   UNL     1     -11.382   6.219  70.259  1.00  0.00    -0.457 C  
HETATM   20  O   UNL     1     -11.858   6.174  72.549  1.00  0.00    -0.267 OA 
ENDROOT
BRANCH   4  21
HETATM   21  C   UNL     1      -6.652   9.437  66.180  1.00  0.00    -0.070 C  
HETATM   22  C   UNL     1      -6.132   9.238  65.119  1.00  0.00    -0.064 C  
ENDBRANCH   4  21
BRANCH   7  23
HETATM   23  C   UNL     1      -6.670  12.218  67.210  1.00  0.00    -0.143 C  
HETATM   24  C   UNL     1      -7.444  13.503  67.496  1.00  0.00    -0.177 C  
ENDBRANCH   7  23
TORSDOF 2
ENDMDL
MODEL       75
REMARK 921   NORMALIZED FREE ENERGY PREDICTED BY IDOCK:   -3.75 KCAL/MOL
REMARK 922        TOTAL FREE ENERGY PREDICTED BY IDOCK:   -4.35 KCAL/MOL
REMARK 923 INTER-LIGAND FREE ENERGY PREDICTED BY IDOCK:   -4.63 KCAL/MOL
REMARK 924 INTRA-LIGAND FREE ENERGY PREDICTED BY IDOCK:    0.27 KCAL/MOL
REMARK 927      BINDING AFFINITY PREDICTED BY RF-SCORE:    0.00 PKD
ROOT
HETATM    1  C   UNL     1      -9.171   5.284  70.400  1.00  0.00    -0.190 C  
HETATM    2  C   UNL     1     -10.529   5.179  70.795  1.00  0.00    -0.263 C  
HETATM    3  C   UNL     1     -10.299   5.323  69.338  1.00  0.00    -0.313 C  
HETATM    4  C   UNL     1      -8.342   5.149  68.745  1.00  0.00    -0.088 C  
HETATM    5  C   UNL     1      -9.218   9.574  70.563  1.00  0.00    -0.284 C  
HETATM    6  O   UNL     1      -7.760   5.057  67.445  1.00  0.00    -0.090 OA 
HETATM    7  C   UNL     1      -9.262   4.138  68.826  1.00  0.00    -0.206 C  
HETATM    8  C   UNL     1      -9.980   4.823  67.238  1.00  0.00    -0.214 C  
HETATM    9  C   UNL     1      -8.875   7.063  69.910  1.00  0.00    -0.142 C  
HETATM   10  C   UNL     1      -9.617   9.850  69.125  1.00  0.00    -0.204 C  
HETATM   11  H   UNL     1      -6.855   4.977  67.170  1.00  0.00     0.000 HD 
HETATM   12  C   UNL     1      -9.694   6.528  67.090  1.00  0.00    -0.176 C  
HETATM   13  C   UNL     1      -9.313   8.088  70.987  1.00  0.00    -0.170 C  
HETATM   14  C   UNL     1      -9.527   7.552  68.393  1.00  0.00    -0.148 C  
HETATM   15  C   UNL     1      -8.947   8.958  68.096  1.00  0.00    -0.137 C  
HETATM   16  C   UNL     1      -9.080   9.474  66.659  1.00  0.00    -0.179 C  
HETATM   17  C   UNL     1     -10.381  10.164  66.291  1.00  0.00    -0.245 C  
HETATM   18  C   UNL     1     -11.064  10.899  67.415  1.00  0.00    -0.307 C  
HETATM   19  C   UNL     1     -10.590  10.723  68.810  1.00  0.00    -0.229 C  
HETATM   20  O   UNL     1     -12.035  11.627  67.208  1.00  0.00    -0.627 OA 
ENDROOT
BRANCH   4  21
HETATM   21  C   UNL     1      -7.097   4.673  69.570  1.00  0.00    -0.051 C  
HETATM   22  C   UNL     1      -6.172   4.356  70.261  1.00  0.00    -0.022 C  
ENDBRANCH   4  21
BRANCH   7  23
HETATM   23  C   UNL     1      -9.134   2.638  68.860  1.00  0.00    -0.200 C  
HETATM   24  C   UNL     1      -9.526   2.108  70.238  1.00  0.00    -0.146 C  
ENDBRANCH   7  23
TORSDOF 2
ENDMDL
MODEL       76
REMARK 921   NORMALIZED FREE ENERGY PREDICTED BY IDOCK:   -3.73 KCAL/MOL
REMARK 922        TOTAL FREE ENERGY PREDICTED BY IDOCK:   -4.33 KCAL/MOL
REMARK 923 INTER-LIGAND FREE ENERGY PREDICTED BY IDOCK:   -4.62 KCAL/MOL
REMARK 924 INTRA-LIGAND FREE ENERGY PREDICTED BY IDOCK:    0.29 KCAL/MOL
REMARK 927      BINDING AFFINITY PREDICTED BY RF-SCORE:    0.00 PKD
ROOT
HETATM    1  C   UNL     1      -7.738  10.390  65.231  1.00  0.00    -0.124 C  
HETATM    2  C   UNL     1      -6.743  10.687  66.197  1.00  0.00    -0.132 C  
HETATM    3  C   UNL     1      -6.951   9.246  65.920  1.00  0.00    -0.089 C  
HETATM    4  C   UNL     1      -8.147   8.834  64.304  1.00  0.00    -0.157 C  
HETATM    5  C   UNL     1     -10.822  10.007  68.194  1.00  0.00    -0.303 C  
HETATM    6  O   UNL     1      -8.431   7.606  63.636  1.00  0.00    -0.374 OA 
HETATM    7  C   UNL     1      -6.785   8.970  64.296  1.00  0.00    -0.083 C  
HETATM    8  C   UNL     1      -6.728   7.257  65.050  1.00  0.00    -0.047 C  
HETATM    9  C   UNL     1      -9.213   9.704  66.152  1.00  0.00    -0.222 C  
HETATM   10  C   UNL     1     -10.693   8.519  68.463  1.00  0.00    -0.080 C  
HETATM   11  H   UNL     1      -8.985   7.415  62.889  1.00  0.00     0.000 HD 
HETATM   12  C   UNL     1      -8.155   6.919  65.977  1.00  0.00    -0.119 C  
HETATM   13  C   UNL     1      -9.695  10.606  67.316  1.00  0.00    -0.195 C  
HETATM   14  C   UNL     1      -9.061   8.092  66.736  1.00  0.00    -0.189 C  
HETATM   15  C   UNL     1     -10.468   7.666  67.227  1.00  0.00    -0.396 C  
HETATM   16  C   UNL     1     -10.697   6.170  67.467  1.00  0.00    -0.393 C  
HETATM   17  C   UNL     1     -10.288   5.617  68.821  1.00  0.00    -0.288 C  
HETATM   18  C   UNL     1     -10.394   6.582  69.972  1.00  0.00    -0.198 C  
HETATM   19  C   UNL     1     -10.645   8.021  69.710  1.00  0.00    -0.238 C  
HETATM   20  O   UNL     1     -10.246   6.211  71.137  1.00  0.00    -0.190 OA 
ENDROOT
BRANCH   4  21
HETATM   21  C   UNL     1      -8.689   9.807  63.202  1.00  0.00    -0.229 C  
HETATM   22  C   UNL     1      -9.028  10.578  62.350  1.00  0.00    -0.308 C  
ENDBRANCH   4  21
BRANCH   7  23
HETATM   23  C   UNL     1      -5.787   9.202  63.192  1.00  0.00    -0.088 C  
HETATM   24  C   UNL     1      -5.213  10.614  63.291  1.00  0.00    -0.177 C  
ENDBRANCH   7  23
TORSDOF 2
ENDMDL
MODEL       77
REMARK 921   NORMALIZED FREE ENERGY PREDICTED BY IDOCK:   -3.73 KCAL/MOL
REMARK 922        TOTAL FREE ENERGY PREDICTED BY IDOCK:   -4.32 KCAL/MOL
REMARK 923 INTER-LIGAND FREE ENERGY PREDICTED BY IDOCK:   -4.20 KCAL/MOL
REMARK 924 INTRA-LIGAND FREE ENERGY PREDICTED BY IDOCK:   -0.12 KCAL/MOL
REMARK 927      BINDING AFFINITY PREDICTED BY RF-SCORE:    0.00 PKD
ROOT
HETATM    1  C   UNL     1      -9.984   9.594  70.332  1.00  0.00    -0.330 C  
HETATM    2  C   UNL     1     -11.194  10.217  69.933  1.00  0.00    -0.360 C  
HETATM    3  C   UNL     1     -10.900   8.920  69.279  1.00  0.00    -0.113 C  
HETATM    4  C   UNL     1      -9.330   7.874  70.087  1.00  0.00    -0.156 C  
HETATM    5  C   UNL     1      -7.734  11.417  67.163  1.00  0.00    -0.152 C  
HETATM    6  O   UNL     1      -8.868   6.545  69.851  1.00  0.00    -0.141 OA 
HETATM    7  C   UNL     1     -10.649   7.765  70.438  1.00  0.00    -0.227 C  
HETATM    8  C   UNL     1     -10.865   6.779  68.861  1.00  0.00    -0.288 C  
HETATM    9  C   UNL     1      -8.775   9.780  68.919  1.00  0.00    -0.136 C  
HETATM   10  C   UNL     1      -7.901  10.333  66.114  1.00  0.00    -0.129 C  
HETATM   11  H   UNL     1      -8.142   6.060  70.224  1.00  0.00     0.000 HD 
HETATM   12  C   UNL     1      -9.710   7.244  67.653  1.00  0.00    -0.173 C  
HETATM   13  C   UNL     1      -8.614  11.239  68.424  1.00  0.00    -0.155 C  
HETATM   14  C   UNL     1      -9.042   8.766  67.553  1.00  0.00    -0.146 C  
HETATM   15  C   UNL     1      -7.796   8.914  66.643  1.00  0.00    -0.100 C  
HETATM   16  C   UNL     1      -7.610   7.863  65.544  1.00  0.00    -0.083 C  
HETATM   17  C   UNL     1      -8.335   8.101  64.231  1.00  0.00    -0.038 C  
HETATM   18  C   UNL     1      -8.536   9.546  63.857  1.00  0.00    -0.212 C  
HETATM   19  C   UNL     1      -8.252  10.614  64.847  1.00  0.00    -0.057 C  
HETATM   20  O   UNL     1      -8.965   9.867  62.748  1.00  0.00    -0.221 OA 
ENDROOT
BRANCH   4  21
HETATM   21  C   UNL     1      -8.546   8.139  71.417  1.00  0.00    -0.168 C  
HETATM   22  C   UNL     1      -7.948   8.263  72.449  1.00  0.00    -0.194 C  
ENDBRANCH   4  21
BRANCH   7  23
HETATM   23  C   UNL     1     -11.343   7.182  71.641  1.00  0.00    -0.282 C  
HETATM   24  C   UNL     1     -12.705   7.848  71.836  1.00  0.00    -0.341 C  
ENDBRANCH   7  23
TORSDOF 2
ENDMDL
MODEL       78
REMARK 921   NORMALIZED FREE ENERGY PREDICTED BY IDOCK:   -3.71 KCAL/MOL
REMARK 922        TOTAL FREE ENERGY PREDICTED BY IDOCK:   -4.31 KCAL/MOL
REMARK 923 INTER-LIGAND FREE ENERGY PREDICTED BY IDOCK:   -4.22 KCAL/MOL
REMARK 924 INTRA-LIGAND FREE ENERGY PREDICTED BY IDOCK:   -0.08 KCAL/MOL
REMARK 927      BINDING AFFINITY PREDICTED BY RF-SCORE:    0.00 PKD
ROOT
HETATM    1  C   UNL     1      -9.233  11.550  66.627  1.00  0.00    -0.194 C  
HETATM    2  C   UNL     1      -9.574  10.556  65.675  1.00  0.00    -0.278 C  
HETATM    3  C   UNL     1     -10.281  10.462  66.973  1.00  0.00    -0.277 C  
HETATM    4  C   UNL     1     -10.031  12.073  68.219  1.00  0.00    -0.203 C  
HETATM    5  C   UNL     1      -6.171   9.120  68.403  1.00  0.00    -0.053 C  
HETATM    6  O   UNL     1     -10.673  12.420  69.445  1.00  0.00    -0.439 OA 
HETATM    7  C   UNL     1     -11.028  11.904  67.297  1.00  0.00    -0.319 C  
HETATM    8  C   UNL     1     -11.797  10.714  68.523  1.00  0.00    -0.087 C  
HETATM    9  C   UNL     1      -8.187  10.723  67.937  1.00  0.00    -0.113 C  
HETATM   10  C   UNL     1      -7.011   8.441  69.469  1.00  0.00    -0.045 C  
HETATM   11  H   UNL     1     -10.558  13.166  70.022  1.00  0.00     0.000 HD 
HETATM   12  C   UNL     1     -10.596   9.967  69.528  1.00  0.00    -0.267 C  
HETATM   13  C   UNL     1      -6.979   9.937  67.366  1.00  0.00    -0.083 C  
HETATM   14  C   UNL     1      -9.023   9.707  69.048  1.00  0.00    -0.148 C  
HETATM   15  C   UNL     1      -8.011   9.348  70.165  1.00  0.00    -0.158 C  
HETATM   16  C   UNL     1      -8.584   8.751  71.455  1.00  0.00    -0.254 C  
HETATM   17  C   UNL     1      -8.820   7.251  71.477  1.00  0.00    -0.125 C  
HETATM   18  C   UNL     1      -7.876   6.436  70.632  1.00  0.00    -0.107 C  
HETATM   19  C   UNL     1      -6.965   7.114  69.677  1.00  0.00    -0.051 C  
HETATM   20  O   UNL     1      -7.862   5.206  70.691  1.00  0.00    -0.076 OA 
ENDROOT
BRANCH   4  21
HETATM   21  C   UNL     1      -9.387  13.469  67.913  1.00  0.00    -0.215 C  
HETATM   22  C   UNL     1      -8.958  14.552  67.631  1.00  0.00    -0.193 C  
ENDBRANCH   4  21
BRANCH   7  23
HETATM   23  C   UNL     1     -12.002  12.857  66.655  1.00  0.00    -0.436 C  
HETATM   24  C   UNL     1     -12.494  12.288  65.325  1.00  0.00    -0.102 C  
ENDBRANCH   7  23
TORSDOF 2
ENDMDL
MODEL       79
REMARK 921   NORMALIZED FREE ENERGY PREDICTED BY IDOCK:   -3.69 KCAL/MOL
REMARK 922        TOTAL FREE ENERGY PREDICTED BY IDOCK:   -4.28 KCAL/MOL
REMARK 923 INTER-LIGAND FREE ENERGY PREDICTED BY IDOCK:   -4.10 KCAL/MOL
REMARK 924 INTRA-LIGAND FREE ENERGY PREDICTED BY IDOCK:   -0.18 KCAL/MOL
REMARK 927      BINDING AFFINITY PREDICTED BY RF-SCORE:    0.00 PKD
ROOT
HETATM    1  C   UNL     1      -9.498   6.901  70.914  1.00  0.00    -0.157 C  
HETATM    2  C   UNL     1      -8.181   7.426  70.942  1.00  0.00    -0.114 C  
HETATM    3  C   UNL     1      -8.716   7.121  69.595  1.00  0.00    -0.141 C  
HETATM    4  C   UNL     1     -10.718   6.674  69.533  1.00  0.00    -0.260 C  
HETATM    5  C   UNL     1      -8.124   2.835  71.014  1.00  0.00    -0.062 C  
HETATM    6  O   UNL     1     -11.608   6.502  68.431  1.00  0.00    -0.525 OA 
HETATM    7  C   UNL     1     -10.155   7.913  69.383  1.00  0.00    -0.196 C  
HETATM    8  C   UNL     1      -9.688   7.361  67.655  1.00  0.00    -0.178 C  
HETATM    9  C   UNL     1      -9.359   5.084  70.499  1.00  0.00    -0.213 C  
HETATM   10  C   UNL     1      -8.036   2.589  69.519  1.00  0.00    -0.061 C  
HETATM   11  H   UNL     1     -12.534   6.295  68.403  1.00  0.00     0.000 HD 
HETATM   12  C   UNL     1      -9.476   5.640  67.570  1.00  0.00    -0.117 C  
HETATM   13  C   UNL     1      -8.377   4.309  71.414  1.00  0.00    -0.095 C  
HETATM   14  C   UNL     1      -8.994   4.705  68.860  1.00  0.00    -0.145 C  
HETATM   15  C   UNL     1      -9.180   3.174  68.710  1.00  0.00    -0.227 C  
HETATM   16  C   UNL     1      -9.265   2.621  67.283  1.00  0.00    -0.179 C  
HETATM   17  C   UNL     1      -7.953   2.319  66.580  1.00  0.00    -0.076 C  
HETATM   18  C   UNL     1      -6.821   1.895  67.480  1.00  0.00    -0.039 C  
HETATM   19  C   UNL     1      -6.959   2.020  68.952  1.00  0.00    -0.036 C  
HETATM   20  O   UNL     1      -5.761   1.471  67.019  1.00  0.00    -0.017 OA 
ENDROOT
BRANCH   4  21
HETATM   21  C   UNL     1     -11.798   6.820  70.659  1.00  0.00    -0.442 C  
HETATM   22  C   UNL     1     -12.665   6.872  71.484  1.00  0.00    -0.396 C  
ENDBRANCH   4  21
BRANCH   7  23
HETATM   23  C   UNL     1     -10.715   9.308  69.464  1.00  0.00    -0.236 C  
HETATM   24  C   UNL     1      -9.580  10.323  69.594  1.00  0.00    -0.192 C  
ENDBRANCH   7  23
TORSDOF 2
ENDMDL
MODEL       80
REMARK 921   NORMALIZED FREE ENERGY PREDICTED BY IDOCK:   -3.66 KCAL/MOL
REMARK 922        TOTAL FREE ENERGY PREDICTED BY IDOCK:   -4.25 KCAL/MOL
REMARK 923 INTER-LIGAND FREE ENERGY PREDICTED BY IDOCK:   -4.07 KCAL/MOL
REMARK 924 INTRA-LIGAND FREE ENERGY PREDICTED BY IDOCK:   -0.19 KCAL/MOL
REMARK 927      BINDING AFFINITY PREDICTED BY RF-SCORE:    0.00 PKD
ROOT
HETATM    1  C   UNL     1      -8.349   6.419  68.143  1.00  0.00    -0.116 C  
HETATM    2  C   UNL     1      -7.456   6.471  69.244  1.00  0.00    -0.095 C  
HETATM    3  C   UNL     1      -8.534   7.488  69.250  1.00  0.00    -0.136 C  
HETATM    4  C   UNL     1     -10.001   7.210  67.842  1.00  0.00    -0.154 C  
HETATM    5  C   UNL     1      -6.049   9.232  65.856  1.00  0.00    -0.055 C  
HETATM    6  O   UNL     1     -11.257   7.860  67.655  1.00  0.00    -0.433 OA 
HETATM    7  C   UNL     1     -10.002   6.733  69.126  1.00  0.00    -0.166 C  
HETATM    8  C   UNL     1     -10.437   8.478  69.648  1.00  0.00    -0.221 C  
HETATM    9  C   UNL     1      -7.946   7.873  67.039  1.00  0.00    -0.112 C  
HETATM   10  C   UNL     1      -6.739  10.507  66.306  1.00  0.00    -0.123 C  
HETATM   11  H   UNL     1     -11.936   7.731  67.004  1.00  0.00     0.000 HD 
HETATM   12  C   UNL     1      -9.824   9.653  68.527  1.00  0.00    -0.170 C  
HETATM   13  C   UNL     1      -6.449   7.965  66.650  1.00  0.00    -0.055 C  
HETATM   14  C   UNL     1      -8.462   9.417  67.598  1.00  0.00    -0.119 C  
HETATM   15  C   UNL     1      -8.249  10.406  66.424  1.00  0.00    -0.141 C  
HETATM   16  C   UNL     1      -8.947  11.766  66.525  1.00  0.00    -0.196 C  
HETATM   17  C   UNL     1      -8.226  12.857  67.297  1.00  0.00    -0.176 C  
HETATM   18  C   UNL     1      -6.722  12.791  67.256  1.00  0.00    -0.082 C  
HETATM   19  C   UNL     1      -6.049  11.592  66.699  1.00  0.00    -0.126 C  
HETATM   20  O   UNL     1      -6.028  13.703  67.705  1.00  0.00    -0.139 OA 
ENDROOT
BRANCH   4  21
HETATM   21  C   UNL     1     -10.261   5.972  66.917  1.00  0.00    -0.261 C  
HETATM   22  C   UNL     1     -10.533   5.057  66.193  1.00  0.00    -0.334 C  
ENDBRANCH   4  21
BRANCH   7  23
HETATM   23  C   UNL     1     -10.797   5.656  69.817  1.00  0.00    -0.370 C  
HETATM   24  C   UNL     1     -10.261   5.433  71.230  1.00  0.00    -0.287 C  
ENDBRANCH   7  23
TORSDOF 2
ENDMDL
MODEL       81
REMARK 921   NORMALIZED FREE ENERGY PREDICTED BY IDOCK:   -3.65 KCAL/MOL
REMARK 922        TOTAL FREE ENERGY PREDICTED BY IDOCK:   -4.24 KCAL/MOL
REMARK 923 INTER-LIGAND FREE ENERGY PREDICTED BY IDOCK:   -4.09 KCAL/MOL
REMARK 924 INTRA-LIGAND FREE ENERGY PREDICTED BY IDOCK:   -0.15 KCAL/MOL
REMARK 927      BINDING AFFINITY PREDICTED BY RF-SCORE:    0.00 PKD
ROOT
HETATM    1  C   UNL     1      -6.468  12.387  68.290  1.00  0.00    -0.061 C  
HETATM    2  C   UNL     1      -6.571  12.596  69.689  1.00  0.00     0.010 C  
HETATM    3  C   UNL     1      -7.848  12.659  68.940  1.00  0.00     0.137 C  
HETATM    4  C   UNL     1      -7.743  12.041  66.987  1.00  0.00    -0.129 C  
HETATM    5  C   UNL     1      -6.064  16.580  67.463  1.00  0.00    -0.175 C  
HETATM    6  O   UNL     1      -8.768  11.798  66.023  1.00  0.00    -0.359 OA 
HETATM    7  C   UNL     1      -8.046  11.263  68.072  1.00  0.00    -0.128 C  
HETATM    8  C   UNL     1      -9.738  12.064  68.026  1.00  0.00    -0.198 C  
HETATM    9  C   UNL     1      -6.715  14.045  67.465  1.00  0.00    -0.128 C  
HETATM   10  C   UNL     1      -7.532  16.914  67.266  1.00  0.00    -0.195 C  
HETATM   11  H   UNL     1      -8.719  11.512  65.119  1.00  0.00     0.000 HD 
HETATM   12  C   UNL     1      -9.672  13.659  67.345  1.00  0.00    -0.228 C  
HETATM   13  C   UNL     1      -5.792  15.161  68.018  1.00  0.00    -0.154 C  
HETATM   14  C   UNL     1      -8.330  14.641  67.425  1.00  0.00    -0.223 C  
HETATM   15  C   UNL     1      -8.322  15.876  66.489  1.00  0.00    -0.330 C  
HETATM   16  C   UNL     1      -9.682  16.384  65.998  1.00  0.00    -0.356 C  
HETATM   17  C   UNL     1     -10.431  17.342  66.908  1.00  0.00    -0.272 C  
HETATM   18  C   UNL     1      -9.566  18.231  67.763  1.00  0.00    -0.283 C  
HETATM   19  C   UNL     1      -8.107  17.977  67.855  1.00  0.00    -0.243 C  
HETATM   20  O   UNL     1     -10.048  19.154  68.420  1.00  0.00    -0.380 OA 
ENDROOT
BRANCH   4  21
HETATM   21  C   UNL     1      -6.573  11.312  66.242  1.00  0.00    -0.018 C  
HETATM   22  C   UNL     1      -5.660  10.826  65.637  1.00  0.00    -0.135 C  
ENDBRANCH   4  21
BRANCH   7  23
HETATM   23  C   UNL     1      -8.064   9.773  68.291  1.00  0.00    -0.104 C  
HETATM   24  C   UNL     1      -8.091   9.462  69.787  1.00  0.00    -0.134 C  
ENDBRANCH   7  23
TORSDOF 2
ENDMDL
MODEL       82
REMARK 921   NORMALIZED FREE ENERGY PREDICTED BY IDOCK:   -3.65 KCAL/MOL
REMARK 922        TOTAL FREE ENERGY PREDICTED BY IDOCK:   -4.23 KCAL/MOL
REMARK 923 INTER-LIGAND FREE ENERGY PREDICTED BY IDOCK:   -4.47 KCAL/MOL
REMARK 924 INTRA-LIGAND FREE ENERGY PREDICTED BY IDOCK:    0.23 KCAL/MOL
REMARK 927      BINDING AFFINITY PREDICTED BY RF-SCORE:    0.00 PKD
ROOT
HETATM    1  C   UNL     1      -9.507  11.231  66.380  1.00  0.00    -0.221 C  
HETATM    2  C   UNL     1     -10.472  10.833  65.421  1.00  0.00    -0.272 C  
HETATM    3  C   UNL     1     -10.738  10.396  66.812  1.00  0.00    -0.235 C  
HETATM    4  C   UNL     1      -9.526  11.240  68.236  1.00  0.00    -0.190 C  
HETATM    5  C   UNL     1      -7.243   7.610  65.942  1.00  0.00    -0.069 C  
HETATM    6  O   UNL     1      -9.588  11.204  69.661  1.00  0.00    -0.359 OA 
HETATM    7  C   UNL     1     -10.738  11.716  67.811  1.00  0.00    -0.244 C  
HETATM    8  C   UNL     1     -11.502  10.363  68.856  1.00  0.00    -0.251 C  
HETATM    9  C   UNL     1      -8.523   9.710  66.837  1.00  0.00    -0.121 C  
HETATM   10  C   UNL     1      -7.921   6.788  67.023  1.00  0.00    -0.109 C  
HETATM   11  H   UNL     1      -9.027  11.595  70.321  1.00  0.00     0.000 HD 
HETATM   12  C   UNL     1     -10.442   8.997  69.009  1.00  0.00    -0.235 C  
HETATM   13  C   UNL     1      -7.942   8.952  65.617  1.00  0.00    -0.098 C  
HETATM   14  C   UNL     1      -9.313   8.573  67.860  1.00  0.00    -0.148 C  
HETATM   15  C   UNL     1      -8.236   7.549  68.299  1.00  0.00    -0.125 C  
HETATM   16  C   UNL     1      -8.581   6.641  69.484  1.00  0.00    -0.132 C  
HETATM   17  C   UNL     1      -9.360   5.374  69.179  1.00  0.00    -0.158 C  
HETATM   18  C   UNL     1      -9.103   4.767  67.824  1.00  0.00    -0.116 C  
HETATM   19  C   UNL     1      -8.330   5.526  66.809  1.00  0.00    -0.108 C  
HETATM   20  O   UNL     1      -9.548   3.660  67.522  1.00  0.00    -0.202 OA 
ENDROOT
BRANCH   4  21
HETATM   21  C   UNL     1      -8.517  12.431  68.096  1.00  0.00    -0.180 C  
HETATM   22  C   UNL     1      -7.733  13.318  67.912  1.00  0.00    -0.152 C  
ENDBRANCH   4  21
BRANCH   7  23
HETATM   23  C   UNL     1     -11.411  13.058  67.935  1.00  0.00    -0.327 C  
HETATM   24  C   UNL     1     -11.664  13.648  66.548  1.00  0.00    -0.414 C  
ENDBRANCH   7  23
TORSDOF 2
ENDMDL
MODEL       83
REMARK 921   NORMALIZED FREE ENERGY PREDICTED BY IDOCK:   -3.60 KCAL/MOL
REMARK 922        TOTAL FREE ENERGY PREDICTED BY IDOCK:   -4.18 KCAL/MOL
REMARK 923 INTER-LIGAND FREE ENERGY PREDICTED BY IDOCK:   -4.62 KCAL/MOL
REMARK 924 INTRA-LIGAND FREE ENERGY PREDICTED BY IDOCK:    0.45 KCAL/MOL
REMARK 927      BINDING AFFINITY PREDICTED BY RF-SCORE:    0.00 PKD
ROOT
HETATM    1  C   UNL     1      -8.996   6.656  71.045  1.00  0.00    -0.146 C  
HETATM    2  C   UNL     1      -7.817   7.411  70.816  1.00  0.00    -0.096 C  
HETATM    3  C   UNL     1      -8.890   7.584  69.808  1.00  0.00    -0.141 C  
HETATM    4  C   UNL     1     -10.697   6.752  70.310  1.00  0.00    -0.244 C  
HETATM    5  C   UNL     1      -7.625   3.365  68.652  1.00  0.00    -0.052 C  
HETATM    6  O   UNL     1     -11.981   6.856  69.696  1.00  0.00    -0.612 OA 
HETATM    7  C   UNL     1     -10.290   8.033  70.569  1.00  0.00    -0.205 C  
HETATM    8  C   UNL     1     -10.630   8.382  68.761  1.00  0.00    -0.154 C  
HETATM    9  C   UNL     1      -9.013   5.268  69.793  1.00  0.00    -0.138 C  
HETATM   10  C   UNL     1      -8.208   3.797  67.319  1.00  0.00    -0.091 C  
HETATM   11  H   UNL     1     -12.818   6.471  69.927  1.00  0.00     0.000 HD 
HETATM   12  C   UNL     1     -10.438   6.958  67.788  1.00  0.00    -0.279 C  
HETATM   13  C   UNL     1      -7.708   4.432  69.771  1.00  0.00    -0.054 C  
HETATM   14  C   UNL     1      -9.409   5.707  68.177  1.00  0.00    -0.119 C  
HETATM   15  C   UNL     1      -9.606   4.384  67.395  1.00  0.00    -0.218 C  
HETATM   16  C   UNL     1     -10.305   4.478  66.035  1.00  0.00    -0.276 C  
HETATM   17  C   UNL     1      -9.438   4.813  64.834  1.00  0.00    -0.054 C  
HETATM   18  C   UNL     1      -8.014   4.326  64.910  1.00  0.00    -0.093 C  
HETATM   19  C   UNL     1      -7.483   3.787  66.186  1.00  0.00    -0.080 C  
HETATM   20  O   UNL     1      -7.261   4.394  63.938  1.00  0.00    -0.052 OA 
ENDROOT
BRANCH   4  21
HETATM   21  C   UNL     1     -11.165   6.157  71.682  1.00  0.00    -0.342 C  
HETATM   22  C   UNL     1     -11.585   5.669  72.692  1.00  0.00    -0.307 C  
ENDBRANCH   4  21
BRANCH   7  23
HETATM   23  C   UNL     1     -10.788   9.093  71.516  1.00  0.00    -0.436 C  
HETATM   24  C   UNL     1     -12.064   9.731  70.966  1.00  0.00    -0.434 C  
ENDBRANCH   7  23
TORSDOF 2
ENDMDL
MODEL       84
REMARK 921   NORMALIZED FREE ENERGY PREDICTED BY IDOCK:   -3.56 KCAL/MOL
REMARK 922        TOTAL FREE ENERGY PREDICTED BY IDOCK:   -4.13 KCAL/MOL
REMARK 923 INTER-LIGAND FREE ENERGY PREDICTED BY IDOCK:   -4.40 KCAL/MOL
REMARK 924 INTRA-LIGAND FREE ENERGY PREDICTED BY IDOCK:    0.27 KCAL/MOL
REMARK 927      BINDING AFFINITY PREDICTED BY RF-SCORE:    0.00 PKD
ROOT
HETATM    1  C   UNL     1      -9.594   7.390  72.108  1.00  0.00    -0.177 C  
HETATM    2  C   UNL     1      -8.869   8.596  72.289  1.00  0.00    -0.218 C  
HETATM    3  C   UNL     1      -9.647   8.502  71.031  1.00  0.00    -0.241 C  
HETATM    4  C   UNL     1     -10.940   6.913  70.922  1.00  0.00    -0.253 C  
HETATM    5  C   UNL     1      -6.381   5.513  69.966  1.00  0.00    -0.033 C  
HETATM    6  O   UNL     1     -11.956   6.593  69.974  1.00  0.00    -0.630 OA 
HETATM    7  C   UNL     1     -11.229   8.168  71.387  1.00  0.00    -0.297 C  
HETATM    8  C   UNL     1     -11.275   8.693  69.590  1.00  0.00     0.067 C  
HETATM    9  C   UNL     1      -8.698   6.398  70.802  1.00  0.00    -0.140 C  
HETATM   10  C   UNL     1      -6.780   5.918  68.560  1.00  0.00    -0.057 C  
HETATM   11  H   UNL     1     -12.555   5.857  69.923  1.00  0.00     0.000 HD 
HETATM   12  C   UNL     1     -10.244   7.702  68.607  1.00  0.00    -0.214 C  
HETATM   13  C   UNL     1      -7.188   6.204  71.093  1.00  0.00    -0.079 C  
HETATM   14  C   UNL     1      -8.876   6.943  69.179  1.00  0.00    -0.134 C  
HETATM   15  C   UNL     1      -8.270   5.841  68.273  1.00  0.00    -0.108 C  
HETATM   16  C   UNL     1      -8.610   5.903  66.781  1.00  0.00    -0.113 C  
HETATM   17  C   UNL     1      -7.744   6.799  65.912  1.00  0.00    -0.094 C  
HETATM   18  C   UNL     1      -6.313   6.944  66.358  1.00  0.00    -0.050 C  
HETATM   19  C   UNL     1      -5.897   6.433  67.687  1.00  0.00    -0.013 C  
HETATM   20  O   UNL     1      -5.476   7.510  65.654  1.00  0.00    -0.028 OA 
ENDROOT
BRANCH   4  21
HETATM   21  C   UNL     1     -11.381   5.918  72.051  1.00  0.00    -0.325 C  
HETATM   22  C   UNL     1     -11.659   5.108  72.888  1.00  0.00    -0.282 C  
ENDBRANCH   4  21
BRANCH   7  23
HETATM   23  C   UNL     1     -12.352   8.714  72.228  1.00  0.00    -0.449 C  
HETATM   24  C   UNL     1     -12.670  10.149  71.812  1.00  0.00    -0.534 C  
ENDBRANCH   7  23
TORSDOF 2
ENDMDL
MODEL       85
REMARK 921   NORMALIZED FREE ENERGY PREDICTED BY IDOCK:   -3.50 KCAL/MOL
REMARK 922        TOTAL FREE ENERGY PREDICTED BY IDOCK:   -4.07 KCAL/MOL
REMARK 923 INTER-LIGAND FREE ENERGY PREDICTED BY IDOCK:   -3.90 KCAL/MOL
REMARK 924 INTRA-LIGAND FREE ENERGY PREDICTED BY IDOCK:   -0.17 KCAL/MOL
REMARK 927      BINDING AFFINITY PREDICTED BY RF-SCORE:    0.00 PKD
ROOT
HETATM    1  C   UNL     1      -9.579   4.877  66.845  1.00  0.00    -0.171 C  
HETATM    2  C   UNL     1     -10.608   4.598  65.911  1.00  0.00    -0.265 C  
HETATM    3  C   UNL     1      -9.292   4.943  65.324  1.00  0.00    -0.129 C  
HETATM    4  C   UNL     1      -7.738   5.027  66.661  1.00  0.00    -0.092 C  
HETATM    5  C   UNL     1     -10.405   9.090  66.840  1.00  0.00    -0.324 C  
HETATM    6  O   UNL     1      -6.331   5.152  66.458  1.00  0.00    -0.034 OA 
HETATM    7  C   UNL     1      -8.134   3.933  65.940  1.00  0.00    -0.101 C  
HETATM    8  C   UNL     1      -7.292   4.740  64.475  1.00  0.00    -0.067 C  
HETATM    9  C   UNL     1      -9.289   6.723  66.811  1.00  0.00    -0.189 C  
HETATM   10  C   UNL     1      -9.457   9.505  65.730  1.00  0.00    -0.314 C  
HETATM   11  H   UNL     1      -5.611   5.191  67.076  1.00  0.00     0.000 HD 
HETATM   12  C   UNL     1      -7.282   6.469  64.617  1.00  0.00    -0.064 C  
HETATM   13  C   UNL     1     -10.578   7.560  67.005  1.00  0.00    -0.409 C  
HETATM   14  C   UNL     1      -8.441   7.334  65.442  1.00  0.00    -0.096 C  
HETATM   15  C   UNL     1      -8.105   8.814  65.756  1.00  0.00    -0.109 C  
HETATM   16  C   UNL     1      -7.055   9.490  64.869  1.00  0.00    -0.107 C  
HETATM   17  C   UNL     1      -7.540  10.096  63.563  1.00  0.00    -0.138 C  
HETATM   18  C   UNL     1      -8.953  10.619  63.579  1.00  0.00    -0.208 C  
HETATM   19  C   UNL     1      -9.841  10.315  64.728  1.00  0.00    -0.403 C  
HETATM   20  O   UNL     1      -9.405  11.273  62.639  1.00  0.00    -0.348 OA 
ENDROOT
BRANCH   4  21
HETATM   21  C   UNL     1      -7.697   4.570  68.159  1.00  0.00    -0.080 C  
HETATM   22  C   UNL     1      -7.593   4.189  69.290  1.00  0.00    -0.054 C  
ENDBRANCH   4  21
BRANCH   7  23
HETATM   23  C   UNL     1      -7.862   2.458  66.084  1.00  0.00    -0.080 C  
HETATM   24  C   UNL     1      -8.714   1.667  65.094  1.00  0.00    -0.113 C  
ENDBRANCH   7  23
TORSDOF 2
ENDMDL
MODEL       86
REMARK 921   NORMALIZED FREE ENERGY PREDICTED BY IDOCK:   -3.43 KCAL/MOL
REMARK 922        TOTAL FREE ENERGY PREDICTED BY IDOCK:   -4.00 KCAL/MOL
REMARK 923 INTER-LIGAND FREE ENERGY PREDICTED BY IDOCK:   -3.84 KCAL/MOL
REMARK 924 INTRA-LIGAND FREE ENERGY PREDICTED BY IDOCK:   -0.15 KCAL/MOL
REMARK 927      BINDING AFFINITY PREDICTED BY RF-SCORE:    0.00 PKD
ROOT
HETATM    1  C   UNL     1     -10.067   6.152  69.214  1.00  0.00    -0.218 C  
HETATM    2  C   UNL     1     -11.117   6.109  68.262  1.00  0.00    -0.336 C  
HETATM    3  C   UNL     1      -9.827   6.642  67.764  1.00  0.00    -0.144 C  
HETATM    4  C   UNL     1      -8.236   6.403  69.038  1.00  0.00    -0.115 C  
HETATM    5  C   UNL     1     -10.991  10.178  70.387  1.00  0.00    -0.386 C  
HETATM    6  O   UNL     1      -6.840   6.622  68.846  1.00  0.00    -0.057 OA 
HETATM    7  C   UNL     1      -8.628   5.537  68.052  1.00  0.00    -0.100 C  
HETATM    8  C   UNL     1      -7.849   6.741  66.848  1.00  0.00    -0.108 C  
HETATM    9  C   UNL     1      -9.821   7.944  69.683  1.00  0.00    -0.179 C  
HETATM   10  C   UNL     1     -10.086  10.910  69.414  1.00  0.00    -0.116 C  
HETATM   11  H   UNL     1      -6.103   6.512  69.436  1.00  0.00     0.000 HD 
HETATM   12  C   UNL     1      -7.875   8.364  67.460  1.00  0.00    -0.099 C  
HETATM   13  C   UNL     1     -11.124   8.657  70.129  1.00  0.00    -0.199 C  
HETATM   14  C   UNL     1      -9.029   8.933  68.518  1.00  0.00    -0.134 C  
HETATM   15  C   UNL     1      -8.718  10.280  69.219  1.00  0.00    -0.182 C  
HETATM   16  C   UNL     1      -7.711  11.205  68.529  1.00  0.00    -0.129 C  
HETATM   17  C   UNL     1      -8.248  12.132  67.452  1.00  0.00    -0.175 C  
HETATM   18  C   UNL     1      -9.671  12.587  67.643  1.00  0.00    -0.196 C  
HETATM   19  C   UNL     1     -10.518  11.952  68.683  1.00  0.00    -0.231 C  
HETATM   20  O   UNL     1     -10.166  13.460  66.929  1.00  0.00    -0.246 OA 
ENDROOT
BRANCH   4  21
HETATM   21  C   UNL     1      -8.141   5.554  70.351  1.00  0.00    -0.103 C  
HETATM   22  C   UNL     1      -8.017   4.855  71.317  1.00  0.00    -0.101 C  
ENDBRANCH   4  21
BRANCH   7  23
HETATM   23  C   UNL     1      -8.318   4.089  67.779  1.00  0.00    -0.097 C  
HETATM   24  C   UNL     1      -9.182   3.574  66.630  1.00  0.00    -0.192 C  
ENDBRANCH   7  23
TORSDOF 2
ENDMDL
MODEL       87
REMARK 921   NORMALIZED FREE ENERGY PREDICTED BY IDOCK:   -3.43 KCAL/MOL
REMARK 922        TOTAL FREE ENERGY PREDICTED BY IDOCK:   -3.99 KCAL/MOL
REMARK 923 INTER-LIGAND FREE ENERGY PREDICTED BY IDOCK:   -3.84 KCAL/MOL
REMARK 924 INTRA-LIGAND FREE ENERGY PREDICTED BY IDOCK:   -0.15 KCAL/MOL
REMARK 927      BINDING AFFINITY PREDICTED BY RF-SCORE:    0.00 PKD
ROOT
HETATM    1  C   UNL     1      -9.283   5.993  65.964  1.00  0.00    -0.129 C  
HETATM    2  C   UNL     1      -8.500   7.152  66.203  1.00  0.00    -0.143 C  
HETATM    3  C   UNL     1      -7.952   5.888  66.751  1.00  0.00    -0.102 C  
HETATM    4  C   UNL     1      -8.910   4.183  66.131  1.00  0.00    -0.118 C  
HETATM    5  C   UNL     1     -11.409   6.388  69.673  1.00  0.00    -0.479 C  
HETATM    6  O   UNL     1      -8.576   2.806  66.298  1.00  0.00    -0.102 OA 
HETATM    7  C   UNL     1      -7.826   4.772  65.536  1.00  0.00    -0.094 C  
HETATM    8  C   UNL     1      -6.811   4.036  66.927  1.00  0.00    -0.055 C  
HETATM    9  C   UNL     1     -10.086   5.526  67.586  1.00  0.00    -0.217 C  
HETATM   10  C   UNL     1     -10.498   5.544  70.546  1.00  0.00    -0.347 C  
HETATM   11  H   UNL     1      -9.019   2.016  66.011  1.00  0.00     0.000 HD 
HETATM   12  C   UNL     1      -7.755   3.836  68.370  1.00  0.00    -0.061 C  
HETATM   13  C   UNL     1     -10.851   6.692  68.261  1.00  0.00    -0.322 C  
HETATM   14  C   UNL     1      -9.060   4.794  68.759  1.00  0.00    -0.151 C  
HETATM   15  C   UNL     1      -9.983   4.276  69.890  1.00  0.00    -0.179 C  
HETATM   16  C   UNL     1      -9.374   3.278  70.881  1.00  0.00    -0.220 C  
HETATM   17  C   UNL     1      -8.607   3.855  72.058  1.00  0.00    -0.113 C  
HETATM   18  C   UNL     1      -9.088   5.196  72.549  1.00  0.00    -0.133 C  
HETATM   19  C   UNL     1     -10.076   5.964  71.752  1.00  0.00    -0.228 C  
HETATM   20  O   UNL     1      -8.654   5.691  73.589  1.00  0.00    -0.120 OA 
ENDROOT
BRANCH   4  21
HETATM   21  C   UNL     1      -9.984   4.007  65.004  1.00  0.00    -0.207 C  
HETATM   22  C   UNL     1     -10.772   3.800  64.125  1.00  0.00    -0.240 C  
ENDBRANCH   4  21
BRANCH   7  23
HETATM   23  C   UNL     1      -7.209   4.633  64.169  1.00  0.00    -0.051 C  
HETATM   24  C   UNL     1      -6.369   5.867  63.844  1.00  0.00    -0.029 C  
ENDBRANCH   7  23
TORSDOF 2
ENDMDL
MODEL       88
REMARK 921   NORMALIZED FREE ENERGY PREDICTED BY IDOCK:   -3.40 KCAL/MOL
REMARK 922        TOTAL FREE ENERGY PREDICTED BY IDOCK:   -3.96 KCAL/MOL
REMARK 923 INTER-LIGAND FREE ENERGY PREDICTED BY IDOCK:   -3.83 KCAL/MOL
REMARK 924 INTRA-LIGAND FREE ENERGY PREDICTED BY IDOCK:   -0.13 KCAL/MOL
REMARK 927      BINDING AFFINITY PREDICTED BY RF-SCORE:    0.00 PKD
ROOT
HETATM    1  C   UNL     1      -7.929   9.170  68.912  1.00  0.00    -0.099 C  
HETATM    2  C   UNL     1      -7.072   9.755  67.945  1.00  0.00    -0.083 C  
HETATM    3  C   UNL     1      -8.411   9.358  67.451  1.00  0.00    -0.125 C  
HETATM    4  C   UNL     1      -9.752   8.817  68.908  1.00  0.00    -0.172 C  
HETATM    5  C   UNL     1      -6.668   5.181  67.947  1.00  0.00    -0.055 C  
HETATM    6  O   UNL     1     -11.152   8.549  68.842  1.00  0.00    -0.433 OA 
HETATM    7  C   UNL     1      -9.576  10.071  68.388  1.00  0.00    -0.153 C  
HETATM    8  C   UNL     1     -10.519   9.455  66.892  1.00  0.00    -0.281 C  
HETATM    9  C   UNL     1      -8.023   7.342  68.532  1.00  0.00    -0.124 C  
HETATM   10  C   UNL     1      -7.709   4.864  66.889  1.00  0.00    -0.092 C  
HETATM   11  H   UNL     1     -11.772   8.299  69.517  1.00  0.00     0.000 HD 
HETATM   12  C   UNL     1     -10.325   7.744  66.675  1.00  0.00    -0.262 C  
HETATM   13  C   UNL     1      -6.637   6.660  68.403  1.00  0.00    -0.059 C  
HETATM   14  C   UNL     1      -8.979   6.898  67.170  1.00  0.00    -0.121 C  
HETATM   15  C   UNL     1      -9.110   5.354  67.208  1.00  0.00    -0.111 C  
HETATM   16  C   UNL     1     -10.193   4.727  66.324  1.00  0.00    -0.315 C  
HETATM   17  C   UNL     1      -9.829   4.450  64.876  1.00  0.00    -0.145 C  
HETATM   18  C   UNL     1      -8.379   4.124  64.626  1.00  0.00    -0.104 C  
HETATM   19  C   UNL     1      -7.380   4.317  65.706  1.00  0.00    -0.080 C  
HETATM   20  O   UNL     1      -7.992   3.726  63.527  1.00  0.00    -0.084 OA 
ENDROOT
BRANCH   4  21
HETATM   21  C   UNL     1      -9.636   8.970  70.463  1.00  0.00    -0.264 C  
HETATM   22  C   UNL     1      -9.538   9.008  71.657  1.00  0.00    -0.319 C  
ENDBRANCH   4  21
BRANCH   7  23
HETATM   23  C   UNL     1      -9.981  11.442  68.862  1.00  0.00    -0.146 C  
HETATM   24  C   UNL     1      -9.111  12.507  68.197  1.00  0.00    -0.204 C  
ENDBRANCH   7  23
TORSDOF 2
ENDMDL
MODEL       89
REMARK 921   NORMALIZED FREE ENERGY PREDICTED BY IDOCK:   -3.40 KCAL/MOL
REMARK 922        TOTAL FREE ENERGY PREDICTED BY IDOCK:   -3.96 KCAL/MOL
REMARK 923 INTER-LIGAND FREE ENERGY PREDICTED BY IDOCK:   -4.65 KCAL/MOL
REMARK 924 INTRA-LIGAND FREE ENERGY PREDICTED BY IDOCK:    0.69 KCAL/MOL
REMARK 927      BINDING AFFINITY PREDICTED BY RF-SCORE:    0.00 PKD
ROOT
HETATM    1  C   UNL     1     -11.087  10.761  69.057  1.00  0.00    -0.308 C  
HETATM    2  C   UNL     1     -12.391  10.845  68.505  1.00  0.00     0.470 C  
HETATM    3  C   UNL     1     -11.279  11.036  67.544  1.00  0.00    -0.372 C  
HETATM    4  C   UNL     1      -9.412  10.596  68.275  1.00  0.00    -0.159 C  
HETATM    5  C   UNL     1     -10.870  14.990  69.764  1.00  0.00    -0.277 C  
HETATM    6  O   UNL     1      -8.149  10.490  67.620  1.00  0.00    -0.106 OA 
HETATM    7  C   UNL     1     -10.256   9.736  67.624  1.00  0.00    -0.261 C  
HETATM    8  C   UNL     1      -9.744  10.614  66.051  1.00  0.00    -0.258 C  
HETATM    9  C   UNL     1     -10.401  12.498  69.116  1.00  0.00     0.149 C  
HETATM   10  C   UNL     1     -10.243  15.408  68.447  1.00  0.00    -0.221 C  
HETATM   11  H   UNL     1      -7.285  10.287  67.958  1.00  0.00     0.000 HD 
HETATM   12  C   UNL     1      -9.289  12.260  66.357  1.00  0.00    -0.219 C  
HETATM   13  C   UNL     1     -11.335  13.514  69.821  1.00  0.00    -0.161 C  
HETATM   14  C   UNL     1      -9.901  13.169  67.611  1.00  0.00    -0.219 C  
HETATM   15  C   UNL     1      -9.149  14.483  67.941  1.00  0.00    -0.191 C  
HETATM   16  C   UNL     1      -8.298  15.096  66.825  1.00  0.00    -0.225 C  
HETATM   17  C   UNL     1      -9.008  15.999  65.831  1.00  0.00    -0.256 C  
HETATM   18  C   UNL     1     -10.184  16.765  66.379  1.00  0.00    -0.323 C  
HETATM   19  C   UNL     1     -10.718  16.437  67.724  1.00  0.00    -0.328 C  
HETATM   20  O   UNL     1     -10.739  17.644  65.721  1.00  0.00    -0.408 OA 
ENDROOT
BRANCH   4  21
HETATM   21  C   UNL     1      -9.018   9.886  69.616  1.00  0.00    -0.232 C  
HETATM   22  C   UNL     1      -8.756   9.279  70.614  1.00  0.00    -0.282 C  
ENDBRANCH   4  21
BRANCH   7  23
HETATM   23  C   UNL     1     -10.303   8.235  67.515  1.00  0.00    -0.333 C  
HETATM   24  C   UNL     1      -8.888   7.673  67.383  1.00  0.00    -0.124 C  
ENDBRANCH   7  23
TORSDOF 2
ENDMDL
MODEL       90
REMARK 921   NORMALIZED FREE ENERGY PREDICTED BY IDOCK:   -3.36 KCAL/MOL
REMARK 922        TOTAL FREE ENERGY PREDICTED BY IDOCK:   -3.91 KCAL/MOL
REMARK 923 INTER-LIGAND FREE ENERGY PREDICTED BY IDOCK:   -4.41 KCAL/MOL
REMARK 924 INTRA-LIGAND FREE ENERGY PREDICTED BY IDOCK:    0.50 KCAL/MOL
REMARK 927      BINDING AFFINITY PREDICTED BY RF-SCORE:    0.00 PKD
ROOT
HETATM    1  C   UNL     1      -8.125   6.237  71.107  1.00  0.00    -0.118 C  
HETATM    2  C   UNL     1      -7.345   7.102  71.916  1.00  0.00    -0.081 C  
HETATM    3  C   UNL     1      -8.748   7.526  71.699  1.00  0.00    -0.126 C  
HETATM    4  C   UNL     1      -9.954   6.124  70.808  1.00  0.00    -0.189 C  
HETATM    5  C   UNL     1      -7.184   8.383  67.510  1.00  0.00    -0.088 C  
HETATM    6  O   UNL     1     -11.365   6.097  70.599  1.00  0.00    -0.325 OA 
HETATM    7  C   UNL     1      -9.768   6.303  72.153  1.00  0.00    -0.164 C  
HETATM    8  C   UNL     1     -10.895   7.790  71.991  1.00  0.00    -0.295 C  
HETATM    9  C   UNL     1      -8.354   7.083  69.456  1.00  0.00    -0.133 C  
HETATM   10  C   UNL     1      -8.346   9.359  67.518  1.00  0.00    -0.122 C  
HETATM   11  H   UNL     1     -11.923   5.448  70.186  1.00  0.00     0.000 HD 
HETATM   12  C   UNL     1     -10.816   8.482  70.401  1.00  0.00    -0.251 C  
HETATM   13  C   UNL     1      -7.028   7.551  68.806  1.00  0.00    -0.078 C  
HETATM   14  C   UNL     1      -9.471   8.393  69.423  1.00  0.00    -0.158 C  
HETATM   15  C   UNL     1      -9.678   8.759  67.932  1.00  0.00    -0.188 C  
HETATM   16  C   UNL     1     -10.880   9.647  67.595  1.00  0.00    -0.276 C  
HETATM   17  C   UNL     1     -10.685  11.149  67.718  1.00  0.00    -0.267 C  
HETATM   18  C   UNL     1      -9.290  11.644  67.442  1.00  0.00    -0.168 C  
HETATM   19  C   UNL     1      -8.173  10.675  67.310  1.00  0.00    -0.116 C  
HETATM   20  O   UNL     1      -9.042  12.847  67.353  1.00  0.00    -0.180 OA 
ENDROOT
BRANCH   4  21
HETATM   21  C   UNL     1      -9.667   4.609  70.526  1.00  0.00    -0.284 C  
HETATM   22  C   UNL     1      -9.484   3.460  70.239  1.00  0.00    -0.247 C  
ENDBRANCH   4  21
BRANCH   7  23
HETATM   23  C   UNL     1     -10.049   5.432  73.349  1.00  0.00    -0.201 C  
HETATM   24  C   UNL     1     -11.495   4.939  73.312  1.00  0.00    -0.359 C  
ENDBRANCH   7  23
TORSDOF 2
ENDMDL
MODEL       91
REMARK 921   NORMALIZED FREE ENERGY PREDICTED BY IDOCK:   -3.32 KCAL/MOL
REMARK 922        TOTAL FREE ENERGY PREDICTED BY IDOCK:   -3.87 KCAL/MOL
REMARK 923 INTER-LIGAND FREE ENERGY PREDICTED BY IDOCK:   -3.85 KCAL/MOL
REMARK 924 INTRA-LIGAND FREE ENERGY PREDICTED BY IDOCK:   -0.02 KCAL/MOL
REMARK 927      BINDING AFFINITY PREDICTED BY RF-SCORE:    0.00 PKD
ROOT
HETATM    1  C   UNL     1      -9.607   8.940  66.245  1.00  0.00    -0.328 C  
HETATM    2  C   UNL     1     -10.715   8.895  67.130  1.00  0.00    -0.203 C  
HETATM    3  C   UNL     1      -9.793  10.039  67.321  1.00  0.00    -0.225 C  
HETATM    4  C   UNL     1      -8.386  10.280  65.847  1.00  0.00    -0.145 C  
HETATM    5  C   UNL     1      -7.071   6.770  68.946  1.00  0.00    -0.089 C  
HETATM    6  O   UNL     1      -7.463  11.338  65.594  1.00  0.00    -0.361 OA 
HETATM    7  C   UNL     1      -9.628  10.856  65.890  1.00  0.00    -0.257 C  
HETATM    8  C   UNL     1      -8.909  12.028  67.162  1.00  0.00    -0.188 C  
HETATM    9  C   UNL     1      -8.093   8.463  67.232  1.00  0.00    -0.105 C  
HETATM   10  C   UNL     1      -6.474   7.950  69.692  1.00  0.00    -0.034 C  
HETATM   11  H   UNL     1      -6.811  11.449  64.912  1.00  0.00     0.000 HD 
HETATM   12  C   UNL     1      -7.608  11.294  68.045  1.00  0.00    -0.105 C  
HETATM   13  C   UNL     1      -8.246   7.128  68.004  1.00  0.00    -0.120 C  
HETATM   14  C   UNL     1      -7.487   9.655  68.317  1.00  0.00    -0.077 C  
HETATM   15  C   UNL     1      -6.115   9.139  68.819  1.00  0.00    -0.044 C  
HETATM   16  C   UNL     1      -5.203  10.155  69.514  1.00  0.00    -0.038 C  
HETATM   17  C   UNL     1      -5.425  10.380  70.999  1.00  0.00    -0.087 C  
HETATM   18  C   UNL     1      -5.932   9.186  71.765  1.00  0.00    -0.067 C  
HETATM   19  C   UNL     1      -6.401   7.983  71.034  1.00  0.00    -0.037 C  
HETATM   20  O   UNL     1      -5.999   9.194  72.994  1.00  0.00    -0.260 OA 
ENDROOT
BRANCH   4  21
HETATM   21  C   UNL     1      -8.284   9.571  64.453  1.00  0.00    -0.148 C  
HETATM   22  C   UNL     1      -8.126   9.021  63.400  1.00  0.00    -0.167 C  
ENDBRANCH   4  21
BRANCH   7  23
HETATM   23  C   UNL     1     -10.487  11.517  64.844  1.00  0.00    -0.345 C  
HETATM   24  C   UNL     1     -11.645  12.259  65.509  1.00  0.00    -0.422 C  
ENDBRANCH   7  23
TORSDOF 2
ENDMDL
MODEL       92
REMARK 921   NORMALIZED FREE ENERGY PREDICTED BY IDOCK:   -3.31 KCAL/MOL
REMARK 922        TOTAL FREE ENERGY PREDICTED BY IDOCK:   -3.86 KCAL/MOL
REMARK 923 INTER-LIGAND FREE ENERGY PREDICTED BY IDOCK:   -4.30 KCAL/MOL
REMARK 924 INTRA-LIGAND FREE ENERGY PREDICTED BY IDOCK:    0.44 KCAL/MOL
REMARK 927      BINDING AFFINITY PREDICTED BY RF-SCORE:    0.00 PKD
ROOT
HETATM    1  C   UNL     1      -7.379   9.275  67.200  1.00  0.00    -0.091 C  
HETATM    2  C   UNL     1      -6.335   9.497  68.133  1.00  0.00    -0.057 C  
HETATM    3  C   UNL     1      -6.906   8.129  68.129  1.00  0.00    -0.076 C  
HETATM    4  C   UNL     1      -8.179   7.722  66.572  1.00  0.00    -0.124 C  
HETATM    5  C   UNL     1     -10.438  10.274  70.042  1.00  0.00    -0.293 C  
HETATM    6  O   UNL     1      -8.772   6.499  66.140  1.00  0.00    -0.139 OA 
HETATM    7  C   UNL     1      -6.827   7.506  66.597  1.00  0.00    -0.066 C  
HETATM    8  C   UNL     1      -7.204   6.017  67.669  1.00  0.00    -0.076 C  
HETATM    9  C   UNL     1      -8.974   9.179  68.169  1.00  0.00    -0.129 C  
HETATM   10  C   UNL     1     -10.693   8.884  70.597  1.00  0.00    -0.282 C  
HETATM   11  H   UNL     1      -9.361   6.310  65.420  1.00  0.00     0.000 HD 
HETATM   12  C   UNL     1      -8.665   6.239  68.580  1.00  0.00    -0.112 C  
HETATM   13  C   UNL     1      -9.202  10.384  69.116  1.00  0.00    -0.202 C  
HETATM   14  C   UNL     1      -9.236   7.728  69.059  1.00  0.00    -0.143 C  
HETATM   15  C   UNL     1     -10.701   7.776  69.560  1.00  0.00    -0.200 C  
HETATM   16  C   UNL     1     -11.303   6.463  70.072  1.00  0.00    -0.496 C  
HETATM   17  C   UNL     1     -11.040   6.103  71.524  1.00  0.00    -0.342 C  
HETATM   18  C   UNL     1     -10.889   7.271  72.463  1.00  0.00    -0.272 C  
HETATM   19  C   UNL     1     -10.765   8.646  71.918  1.00  0.00    -0.414 C  
HETATM   20  O   UNL     1     -10.833   7.111  73.682  1.00  0.00    -0.352 OA 
ENDROOT
BRANCH   4  21
HETATM   21  C   UNL     1      -8.461   8.564  65.281  1.00  0.00    -0.192 C  
HETATM   22  C   UNL     1      -8.739   9.157  64.277  1.00  0.00    -0.180 C  
ENDBRANCH   4  21
BRANCH   7  23
HETATM   23  C   UNL     1      -5.810   7.257  65.515  1.00  0.00    -0.037 C  
HETATM   24  C   UNL     1      -6.009   5.864  64.918  1.00  0.00    -0.025 C  
ENDBRANCH   7  23
TORSDOF 2
ENDMDL
MODEL       93
REMARK 921   NORMALIZED FREE ENERGY PREDICTED BY IDOCK:   -3.31 KCAL/MOL
REMARK 922        TOTAL FREE ENERGY PREDICTED BY IDOCK:   -3.86 KCAL/MOL
REMARK 923 INTER-LIGAND FREE ENERGY PREDICTED BY IDOCK:   -3.73 KCAL/MOL
REMARK 924 INTRA-LIGAND FREE ENERGY PREDICTED BY IDOCK:   -0.13 KCAL/MOL
REMARK 927      BINDING AFFINITY PREDICTED BY RF-SCORE:    0.00 PKD
ROOT
HETATM    1  C   UNL     1      -9.063   9.751  66.938  1.00  0.00    -0.162 C  
HETATM    2  C   UNL     1     -10.285   9.996  66.262  1.00  0.00    -0.285 C  
HETATM    3  C   UNL     1     -10.266   8.795  67.129  1.00  0.00    -0.346 C  
HETATM    4  C   UNL     1      -8.624   8.625  68.347  1.00  0.00    -0.135 C  
HETATM    5  C   UNL     1      -7.579   7.210  63.812  1.00  0.00    -0.109 C  
HETATM    6  O   UNL     1      -8.338   7.725  69.417  1.00  0.00    -0.129 OA 
HETATM    7  C   UNL     1      -9.811   9.230  68.660  1.00  0.00    -0.173 C  
HETATM    8  C   UNL     1     -10.500   7.501  68.871  1.00  0.00    -0.214 C  
HETATM    9  C   UNL     1      -8.250   8.293  66.098  1.00  0.00    -0.119 C  
HETATM   10  C   UNL     1      -8.091   5.882  64.339  1.00  0.00    -0.128 C  
HETATM   11  H   UNL     1      -7.577   7.646  69.980  1.00  0.00     0.000 HD 
HETATM   12  C   UNL     1      -9.665   6.354  67.872  1.00  0.00    -0.124 C  
HETATM   13  C   UNL     1      -8.114   8.454  64.563  1.00  0.00    -0.152 C  
HETATM   14  C   UNL     1      -8.934   6.748  66.428  1.00  0.00    -0.165 C  
HETATM   15  C   UNL     1      -7.958   5.698  65.840  1.00  0.00    -0.107 C  
HETATM   16  C   UNL     1      -8.141   4.247  66.297  1.00  0.00    -0.102 C  
HETATM   17  C   UNL     1      -9.161   3.409  65.547  1.00  0.00    -0.153 C  
HETATM   18  C   UNL     1      -9.345   3.763  64.094  1.00  0.00    -0.146 C  
HETATM   19  C   UNL     1      -8.735   5.003  63.552  1.00  0.00    -0.079 C  
HETATM   20  O   UNL     1     -10.020   3.059  63.343  1.00  0.00    -0.118 OA 
ENDROOT
BRANCH   4  21
HETATM   21  C   UNL     1      -7.504   9.679  68.650  1.00  0.00    -0.075 C  
HETATM   22  C   UNL     1      -6.700  10.521  68.933  1.00  0.00    -0.060 C  
ENDBRANCH   4  21
BRANCH   7  23
HETATM   23  C   UNL     1     -10.212  10.199  69.741  1.00  0.00    -0.286 C  
HETATM   24  C   UNL     1     -11.633  10.703  69.494  1.00  0.00    -0.360 C  
ENDBRANCH   7  23
TORSDOF 2
ENDMDL
MODEL       94
REMARK 921   NORMALIZED FREE ENERGY PREDICTED BY IDOCK:   -3.27 KCAL/MOL
REMARK 922        TOTAL FREE ENERGY PREDICTED BY IDOCK:   -3.81 KCAL/MOL
REMARK 923 INTER-LIGAND FREE ENERGY PREDICTED BY IDOCK:   -3.74 KCAL/MOL
REMARK 924 INTRA-LIGAND FREE ENERGY PREDICTED BY IDOCK:   -0.07 KCAL/MOL
REMARK 927      BINDING AFFINITY PREDICTED BY RF-SCORE:    0.00 PKD
ROOT
HETATM    1  C   UNL     1      -8.175   7.468  70.517  1.00  0.00    -0.118 C  
HETATM    2  C   UNL     1      -8.494   8.660  69.817  1.00  0.00    -0.129 C  
HETATM    3  C   UNL     1      -9.464   7.551  69.663  1.00  0.00    -0.156 C  
HETATM    4  C   UNL     1      -9.174   5.957  70.922  1.00  0.00    -0.153 C  
HETATM    5  C   UNL     1      -6.097   5.782  67.160  1.00  0.00    -0.022 C  
HETATM    6  O   UNL     1      -9.981   4.811  71.187  1.00  0.00    -0.185 OA 
HETATM    7  C   UNL     1      -9.966   7.048  71.158  1.00  0.00    -0.191 C  
HETATM    8  C   UNL     1     -11.195   6.262  69.985  1.00  0.00    -0.480 C  
HETATM    9  C   UNL     1      -7.613   6.216  69.248  1.00  0.00    -0.098 C  
HETATM   10  C   UNL     1      -7.260   5.048  66.520  1.00  0.00    -0.077 C  
HETATM   11  H   UNL     1      -9.847   4.073  71.770  1.00  0.00     0.000 HD 
HETATM   12  C   UNL     1     -10.405   5.258  68.810  1.00  0.00    -0.206 C  
HETATM   13  C   UNL     1      -6.489   6.735  68.316  1.00  0.00    -0.053 C  
HETATM   14  C   UNL     1      -8.848   5.513  68.277  1.00  0.00    -0.104 C  
HETATM   15  C   UNL     1      -8.187   4.348  67.497  1.00  0.00    -0.099 C  
HETATM   16  C   UNL     1      -9.126   3.336  66.833  1.00  0.00    -0.191 C  
HETATM   17  C   UNL     1      -9.651   3.684  65.451  1.00  0.00    -0.156 C  
HETATM   18  C   UNL     1      -8.728   4.517  64.600  1.00  0.00    -0.147 C  
HETATM   19  C   UNL     1      -7.520   5.132  65.203  1.00  0.00    -0.073 C  
HETATM   20  O   UNL     1      -8.968   4.729  63.411  1.00  0.00    -0.139 OA 
ENDROOT
BRANCH   4  21
HETATM   21  C   UNL     1      -8.219   5.836  72.160  1.00  0.00    -0.112 C  
HETATM   22  C   UNL     1      -7.554   5.721  73.149  1.00  0.00    -0.096 C  
ENDBRANCH   4  21
BRANCH   7  23
HETATM   23  C   UNL     1     -10.575   7.619  72.412  1.00  0.00    -0.313 C  
HETATM   24  C   UNL     1     -11.515   8.772  72.062  1.00  0.00    -0.441 C  
ENDBRANCH   7  23
TORSDOF 2
ENDMDL
MODEL       95
REMARK 921   NORMALIZED FREE ENERGY PREDICTED BY IDOCK:   -3.27 KCAL/MOL
REMARK 922        TOTAL FREE ENERGY PREDICTED BY IDOCK:   -3.81 KCAL/MOL
REMARK 923 INTER-LIGAND FREE ENERGY PREDICTED BY IDOCK:   -3.67 KCAL/MOL
REMARK 924 INTRA-LIGAND FREE ENERGY PREDICTED BY IDOCK:   -0.14 KCAL/MOL
REMARK 927      BINDING AFFINITY PREDICTED BY RF-SCORE:    0.00 PKD
ROOT
HETATM    1  C   UNL     1      -9.755   8.070  66.503  1.00  0.00    -0.297 C  
HETATM    2  C   UNL     1     -10.646   9.110  66.872  1.00  0.00    -0.237 C  
HETATM    3  C   UNL     1      -9.296   9.183  67.478  1.00  0.00    -0.157 C  
HETATM    4  C   UNL     1      -7.919   7.876  66.699  1.00  0.00    -0.103 C  
HETATM    5  C   UNL     1     -10.854   5.629  69.860  1.00  0.00    -0.370 C  
HETATM    6  O   UNL     1      -6.510   7.770  66.895  1.00  0.00    -0.052 OA 
HETATM    7  C   UNL     1      -8.154   9.158  66.280  1.00  0.00    -0.111 C  
HETATM    8  C   UNL     1      -7.200   9.703  67.796  1.00  0.00    -0.085 C  
HETATM    9  C   UNL     1      -9.587   6.938  67.981  1.00  0.00    -0.125 C  
HETATM   10  C   UNL     1      -9.812   6.120  70.847  1.00  0.00    -0.215 C  
HETATM   11  H   UNL     1      -5.872   7.165  66.535  1.00  0.00     0.000 HD 
HETATM   12  C   UNL     1      -7.323   8.541  69.080  1.00  0.00    -0.081 C  
HETATM   13  C   UNL     1     -10.943   6.451  68.551  1.00  0.00    -0.396 C  
HETATM   14  C   UNL     1      -8.626   7.526  69.283  1.00  0.00    -0.136 C  
HETATM   15  C   UNL     1      -8.429   6.337  70.258  1.00  0.00    -0.134 C  
HETATM   16  C   UNL     1      -7.329   6.481  71.315  1.00  0.00    -0.080 C  
HETATM   17  C   UNL     1      -7.696   7.201  72.601  1.00  0.00    -0.093 C  
HETATM   18  C   UNL     1      -9.133   7.061  73.032  1.00  0.00    -0.132 C  
HETATM   19  C   UNL     1     -10.128   6.464  72.108  1.00  0.00    -0.195 C  
HETATM   20  O   UNL     1      -9.514   7.462  74.132  1.00  0.00    -0.249 OA 
ENDROOT
BRANCH   4  21
HETATM   21  C   UNL     1      -8.025   6.973  65.422  1.00  0.00    -0.129 C  
HETATM   22  C   UNL     1      -8.036   6.250  64.468  1.00  0.00    -0.121 C  
ENDBRANCH   4  21
BRANCH   7  23
HETATM   23  C   UNL     1      -7.802   9.902  65.018  1.00  0.00    -0.131 C  
HETATM   24  C   UNL     1      -8.790  11.046  64.791  1.00  0.00    -0.041 C  
ENDBRANCH   7  23
TORSDOF 2
ENDMDL
MODEL       96
REMARK 921   NORMALIZED FREE ENERGY PREDICTED BY IDOCK:   -3.26 KCAL/MOL
REMARK 922        TOTAL FREE ENERGY PREDICTED BY IDOCK:   -3.81 KCAL/MOL
REMARK 923 INTER-LIGAND FREE ENERGY PREDICTED BY IDOCK:   -3.71 KCAL/MOL
REMARK 924 INTRA-LIGAND FREE ENERGY PREDICTED BY IDOCK:   -0.09 KCAL/MOL
REMARK 927      BINDING AFFINITY PREDICTED BY RF-SCORE:    0.00 PKD
ROOT
HETATM    1  C   UNL     1      -8.190   8.805  68.684  1.00  0.00    -0.117 C  
HETATM    2  C   UNL     1      -8.673   8.912  70.013  1.00  0.00    -0.151 C  
HETATM    3  C   UNL     1      -9.599   9.387  68.958  1.00  0.00    -0.164 C  
HETATM    4  C   UNL     1      -9.036   8.935  67.038  1.00  0.00    -0.135 C  
HETATM    5  C   UNL     1      -6.579  12.785  68.709  1.00  0.00    -0.090 C  
HETATM    6  O   UNL     1      -9.734   9.065  65.800  1.00  0.00    -0.380 OA 
HETATM    7  C   UNL     1      -9.836   8.178  67.852  1.00  0.00    -0.206 C  
HETATM    8  C   UNL     1     -11.192   9.411  67.467  1.00  0.00     0.319 C  
HETATM    9  C   UNL     1      -7.771  10.534  68.109  1.00  0.00    -0.096 C  
HETATM   10  C   UNL     1      -7.790  13.522  68.167  1.00  0.00    -0.144 C  
HETATM   11  H   UNL     1      -9.473   8.857  64.911  1.00  0.00     0.000 HD 
HETATM   12  C   UNL     1     -10.546  10.980  67.105  1.00  0.00    -0.294 C  
HETATM   13  C   UNL     1      -6.834  11.303  69.075  1.00  0.00    -0.099 C  
HETATM   14  C   UNL     1      -9.106  11.549  67.719  1.00  0.00    -0.165 C  
HETATM   15  C   UNL     1      -8.517  12.811  67.040  1.00  0.00    -0.154 C  
HETATM   16  C   UNL     1      -9.496  13.711  66.279  1.00  0.00    -0.209 C  
HETATM   17  C   UNL     1     -10.247  14.754  67.088  1.00  0.00    -0.245 C  
HETATM   18  C   UNL     1      -9.511  15.296  68.286  1.00  0.00    -0.205 C  
HETATM   19  C   UNL     1      -8.256  14.646  68.739  1.00  0.00    -0.156 C  
HETATM   20  O   UNL     1      -9.945  16.255  68.925  1.00  0.00    -0.225 OA 
ENDROOT
BRANCH   4  21
HETATM   21  C   UNL     1      -7.895   7.982  66.540  1.00  0.00    -0.097 C  
HETATM   22  C   UNL     1      -7.005   7.240  66.237  1.00  0.00    -0.066 C  
ENDBRANCH   4  21
BRANCH   7  23
HETATM   23  C   UNL     1     -10.269   6.736  67.807  1.00  0.00    -0.212 C  
HETATM   24  C   UNL     1     -11.052   6.384  69.071  1.00  0.00    -0.424 C  
ENDBRANCH   7  23
TORSDOF 2
ENDMDL
MODEL       97
REMARK 921   NORMALIZED FREE ENERGY PREDICTED BY IDOCK:   -3.23 KCAL/MOL
REMARK 922        TOTAL FREE ENERGY PREDICTED BY IDOCK:   -3.76 KCAL/MOL
REMARK 923 INTER-LIGAND FREE ENERGY PREDICTED BY IDOCK:   -3.66 KCAL/MOL
REMARK 924 INTRA-LIGAND FREE ENERGY PREDICTED BY IDOCK:   -0.10 KCAL/MOL
REMARK 927      BINDING AFFINITY PREDICTED BY RF-SCORE:    0.00 PKD
ROOT
HETATM    1  C   UNL     1      -9.983   9.062  66.695  1.00  0.00    -0.349 C  
HETATM    2  C   UNL     1     -10.607   9.251  67.954  1.00  0.00    -0.288 C  
HETATM    3  C   UNL     1      -9.144   9.021  67.997  1.00  0.00    -0.140 C  
HETATM    4  C   UNL     1      -8.201   9.073  66.175  1.00  0.00    -0.115 C  
HETATM    5  C   UNL     1     -10.404   4.793  66.871  1.00  0.00    -0.202 C  
HETATM    6  O   UNL     1      -6.816   9.071  65.835  1.00  0.00    -0.077 OA 
HETATM    7  C   UNL     1      -8.387  10.129  67.027  1.00  0.00    -0.125 C  
HETATM    8  C   UNL     1      -6.995   9.398  68.045  1.00  0.00    -0.079 C  
HETATM    9  C   UNL     1      -9.553   7.248  66.558  1.00  0.00    -0.211 C  
HETATM   10  C   UNL     1      -9.079   4.462  67.533  1.00  0.00    -0.146 C  
HETATM   11  H   UNL     1      -6.379   9.095  64.992  1.00  0.00     0.000 HD 
HETATM   12  C   UNL     1      -6.899   7.676  67.854  1.00  0.00    -0.068 C  
HETATM   13  C   UNL     1     -10.749   6.301  66.832  1.00  0.00    -0.411 C  
HETATM   14  C   UNL     1      -8.209   6.714  67.492  1.00  0.00    -0.122 C  
HETATM   15  C   UNL     1      -7.896   5.269  67.028  1.00  0.00    -0.100 C  
HETATM   16  C   UNL     1      -6.539   4.687  67.437  1.00  0.00    -0.047 C  
HETATM   17  C   UNL     1      -6.450   4.040  68.808  1.00  0.00    -0.037 C  
HETATM   18  C   UNL     1      -7.718   3.396  69.303  1.00  0.00    -0.051 C  
HETATM   19  C   UNL     1      -8.994   3.622  68.579  1.00  0.00    -0.178 C  
HETATM   20  O   UNL     1      -7.732   2.706  70.322  1.00  0.00    -0.043 OA 
ENDROOT
BRANCH   4  21
HETATM   21  C   UNL     1      -8.762   9.531  64.785  1.00  0.00    -0.225 C  
HETATM   22  C   UNL     1      -9.263   9.859  63.747  1.00  0.00    -0.289 C  
ENDBRANCH   4  21
BRANCH   7  23
HETATM   23  C   UNL     1      -8.308  11.621  66.839  1.00  0.00    -0.169 C  
HETATM   24  C   UNL     1      -8.948  12.334  68.029  1.00  0.00    -0.190 C  
ENDBRANCH   7  23
TORSDOF 2
ENDMDL
MODEL       98
REMARK 921   NORMALIZED FREE ENERGY PREDICTED BY IDOCK:   -3.17 KCAL/MOL
REMARK 922        TOTAL FREE ENERGY PREDICTED BY IDOCK:   -3.70 KCAL/MOL
REMARK 923 INTER-LIGAND FREE ENERGY PREDICTED BY IDOCK:   -4.03 KCAL/MOL
REMARK 924 INTRA-LIGAND FREE ENERGY PREDICTED BY IDOCK:    0.33 KCAL/MOL
REMARK 927      BINDING AFFINITY PREDICTED BY RF-SCORE:    0.00 PKD
ROOT
HETATM    1  C   UNL     1     -10.214   6.836  69.979  1.00  0.00    -0.211 C  
HETATM    2  C   UNL     1     -11.583   6.566  69.724  1.00  0.00    -0.392 C  
HETATM    3  C   UNL     1     -10.737   5.377  69.981  1.00  0.00    -0.296 C  
HETATM    4  C   UNL     1      -8.845   5.786  70.664  1.00  0.00    -0.140 C  
HETATM    5  C   UNL     1      -9.124   6.405  65.848  1.00  0.00    -0.074 C  
HETATM    6  O   UNL     1      -7.827   4.928  71.176  1.00  0.00    -0.083 OA 
HETATM    7  C   UNL     1      -9.958   5.561  71.430  1.00  0.00    -0.241 C  
HETATM    8  C   UNL     1      -9.726   3.748  71.024  1.00  0.00    -0.248 C  
HETATM    9  C   UNL     1      -9.257   6.315  68.460  1.00  0.00    -0.123 C  
HETATM   10  C   UNL     1      -8.794   4.924  65.855  1.00  0.00    -0.130 C  
HETATM   11  H   UNL     1      -6.951   5.117  71.492  1.00  0.00     0.000 HD 
HETATM   12  C   UNL     1      -8.941   3.532  69.491  1.00  0.00    -0.178 C  
HETATM   13  C   UNL     1      -9.798   6.924  67.142  1.00  0.00    -0.214 C  
HETATM   14  C   UNL     1      -9.053   4.620  68.236  1.00  0.00    -0.151 C  
HETATM   15  C   UNL     1      -8.035   4.447  67.080  1.00  0.00    -0.101 C  
HETATM   16  C   UNL     1      -7.407   3.060  66.910  1.00  0.00    -0.070 C  
HETATM   17  C   UNL     1      -8.187   2.044  66.093  1.00  0.00    -0.089 C  
HETATM   18  C   UNL     1      -9.040   2.619  64.992  1.00  0.00    -0.137 C  
HETATM   19  C   UNL     1      -9.260   4.084  64.915  1.00  0.00    -0.152 C  
HETATM   20  O   UNL     1      -9.591   1.894  64.163  1.00  0.00    -0.132 OA 
ENDROOT
BRANCH   4  21
HETATM   21  C   UNL     1      -8.245   7.147  71.157  1.00  0.00    -0.112 C  
HETATM   22  C   UNL     1      -7.858   8.204  71.567  1.00  0.00    -0.122 C  
ENDBRANCH   4  21
BRANCH   7  23
HETATM   23  C   UNL     1     -10.280   5.843  72.874  1.00  0.00    -0.212 C  
HETATM   24  C   UNL     1     -11.179   4.743  73.436  1.00  0.00    -0.425 C  
ENDBRANCH   7  23
TORSDOF 2
ENDMDL
MODEL       99
REMARK 921   NORMALIZED FREE ENERGY PREDICTED BY IDOCK:   -3.07 KCAL/MOL
REMARK 922        TOTAL FREE ENERGY PREDICTED BY IDOCK:   -3.59 KCAL/MOL
REMARK 923 INTER-LIGAND FREE ENERGY PREDICTED BY IDOCK:   -4.11 KCAL/MOL
REMARK 924 INTRA-LIGAND FREE ENERGY PREDICTED BY IDOCK:    0.52 KCAL/MOL
REMARK 927      BINDING AFFINITY PREDICTED BY RF-SCORE:    0.00 PKD
ROOT
HETATM    1  C   UNL     1      -8.909   8.044  71.140  1.00  0.00    -0.159 C  
HETATM    2  C   UNL     1      -7.833   8.872  70.729  1.00  0.00    -0.135 C  
HETATM    3  C   UNL     1      -8.796   8.503  69.664  1.00  0.00    -0.137 C  
HETATM    4  C   UNL     1     -10.510   7.586  70.321  1.00  0.00    -0.222 C  
HETATM    5  C   UNL     1      -6.812   4.433  70.143  1.00  0.00    -0.034 C  
HETATM    6  O   UNL     1     -11.716   7.251  69.636  1.00  0.00    -0.502 OA 
HETATM    7  C   UNL     1     -10.325   8.930  70.136  1.00  0.00    -0.228 C  
HETATM    8  C   UNL     1     -10.501   8.582  68.304  1.00  0.00    -0.222 C  
HETATM    9  C   UNL     1      -8.582   6.335  70.459  1.00  0.00    -0.139 C  
HETATM   10  C   UNL     1      -7.292   4.280  68.712  1.00  0.00    -0.056 C  
HETATM   11  H   UNL     1     -12.510   6.826  69.939  1.00  0.00     0.000 HD 
HETATM   12  C   UNL     1      -9.994   6.970  67.908  1.00  0.00    -0.183 C  
HETATM   13  C   UNL     1      -7.176   5.783  70.808  1.00  0.00    -0.079 C  
HETATM   14  C   UNL     1      -8.847   6.126  68.771  1.00  0.00    -0.121 C  
HETATM   15  C   UNL     1      -8.760   4.603  68.495  1.00  0.00    -0.113 C  
HETATM   16  C   UNL     1      -9.303   4.108  67.151  1.00  0.00    -0.198 C  
HETATM   17  C   UNL     1      -8.360   4.164  65.962  1.00  0.00    -0.109 C  
HETATM   18  C   UNL     1      -6.900   3.989  66.287  1.00  0.00    -0.058 C  
HETATM   19  C   UNL     1      -6.448   4.015  67.700  1.00  0.00    -0.038 C  
HETATM   20  O   UNL     1      -6.057   3.856  65.399  1.00  0.00    -0.022 OA 
ENDROOT
BRANCH   4  21
HETATM   21  C   UNL     1     -11.043   7.418  71.785  1.00  0.00    -0.269 C  
HETATM   22  C   UNL     1     -11.409   7.219  72.908  1.00  0.00    -0.290 C  
ENDBRANCH   4  21
BRANCH   7  23
HETATM   23  C   UNL     1     -11.077  10.143  70.617  1.00  0.00    -0.397 C  
HETATM   24  C   UNL     1     -11.666  10.902  69.429  1.00  0.00    -0.397 C  
ENDBRANCH   7  23
TORSDOF 2
ENDMDL
MODEL      100
REMARK 921   NORMALIZED FREE ENERGY PREDICTED BY IDOCK:   -2.91 KCAL/MOL
REMARK 922        TOTAL FREE ENERGY PREDICTED BY IDOCK:   -3.41 KCAL/MOL
REMARK 923 INTER-LIGAND FREE ENERGY PREDICTED BY IDOCK:   -3.31 KCAL/MOL
REMARK 924 INTRA-LIGAND FREE ENERGY PREDICTED BY IDOCK:   -0.09 KCAL/MOL
REMARK 927      BINDING AFFINITY PREDICTED BY RF-SCORE:    0.00 PKD
ROOT
HETATM    1  C   UNL     1      -7.533   8.240  66.907  1.00  0.00    -0.088 C  
HETATM    2  C   UNL     1      -6.157   7.903  66.981  1.00  0.00    -0.053 C  
HETATM    3  C   UNL     1      -7.084   6.760  66.803  1.00  0.00    -0.072 C  
HETATM    4  C   UNL     1      -9.024   7.272  66.373  1.00  0.00    -0.158 C  
HETATM    5  C   UNL     1      -8.119   7.732  71.130  1.00  0.00    -0.095 C  
HETATM    6  O   UNL     1     -10.138   6.475  65.973  1.00  0.00    -0.400 OA 
HETATM    7  C   UNL     1      -8.028   7.022  65.468  1.00  0.00    -0.130 C  
HETATM    8  C   UNL     1      -8.292   5.209  65.856  1.00  0.00    -0.118 C  
HETATM    9  C   UNL     1      -8.317   7.715  68.520  1.00  0.00    -0.129 C  
HETATM   10  C   UNL     1      -8.518   6.267  71.128  1.00  0.00    -0.124 C  
HETATM   11  H   UNL     1     -11.036   6.712  65.774  1.00  0.00     0.000 HD 
HETATM   12  C   UNL     1      -8.890   4.981  67.469  1.00  0.00    -0.102 C  
HETATM   13  C   UNL     1      -7.588   8.260  69.774  1.00  0.00    -0.092 C  
HETATM   14  C   UNL     1      -8.571   6.024  68.727  1.00  0.00    -0.112 C  
HETATM   15  C   UNL     1      -9.445   5.861  69.996  1.00  0.00    -0.189 C  
HETATM   16  C   UNL     1     -10.111   4.498  70.210  1.00  0.00    -0.230 C  
HETATM   17  C   UNL     1      -9.284   3.425  70.898  1.00  0.00    -0.200 C  
HETATM   18  C   UNL     1      -8.275   3.928  71.896  1.00  0.00    -0.083 C  
HETATM   19  C   UNL     1      -7.978   5.380  71.981  1.00  0.00    -0.113 C  
HETATM   20  O   UNL     1      -7.660   3.155  72.631  1.00  0.00    -0.051 OA 
ENDROOT
BRANCH   4  21
HETATM   21  C   UNL     1      -9.616   8.672  65.994  1.00  0.00    -0.265 C  
HETATM   22  C   UNL     1     -10.004   9.777  65.738  1.00  0.00    -0.349 C  
ENDBRANCH   4  21
BRANCH   7  23
HETATM   23  C   UNL     1      -7.875   7.333  64.002  1.00  0.00    -0.114 C  
HETATM   24  C   UNL     1      -6.413   7.188  63.584  1.00  0.00    -0.044 C  
ENDBRANCH   7  23
TORSDOF 2
ENDMDL
MODEL      101
REMARK 921   NORMALIZED FREE ENERGY PREDICTED BY IDOCK:   -2.89 KCAL/MOL
REMARK 922        TOTAL FREE ENERGY PREDICTED BY IDOCK:   -3.39 KCAL/MOL
REMARK 923 INTER-LIGAND FREE ENERGY PREDICTED BY IDOCK:   -3.30 KCAL/MOL
REMARK 924 INTRA-LIGAND FREE ENERGY PREDICTED BY IDOCK:   -0.09 KCAL/MOL
REMARK 927      BINDING AFFINITY PREDICTED BY RF-SCORE:    0.00 PKD
ROOT
HETATM    1  C   UNL     1      -8.952  12.674  68.931  1.00  0.00     0.315 C  
HETATM    2  C   UNL     1      -9.996  11.945  69.555  1.00  0.00     0.760 C  
HETATM    3  C   UNL     1      -9.389  11.298  68.368  1.00  0.00    -0.181 C  
HETATM    4  C   UNL     1      -7.679  12.192  67.669  1.00  0.00    -0.148 C  
HETATM    5  C   UNL     1     -11.632  14.609  66.191  1.00  0.00    -0.332 C  
HETATM    6  O   UNL     1      -6.737  11.773  66.683  1.00  0.00    -0.315 OA 
HETATM    7  C   UNL     1      -7.752  11.178  68.586  1.00  0.00    -0.135 C  
HETATM    8  C   UNL     1      -8.095  10.048  67.133  1.00  0.00    -0.117 C  
HETATM    9  C   UNL     1      -9.636  13.359  67.332  1.00  0.00    -0.223 C  
HETATM   10  C   UNL     1     -11.557  13.606  65.055  1.00  0.00    -0.345 C  
HETATM   11  H   UNL     1      -5.945  12.187  66.359  1.00  0.00     0.000 HD 
HETATM   12  C   UNL     1      -8.866  10.897  65.831  1.00  0.00    -0.197 C  
HETATM   13  C   UNL     1     -10.957  14.149  67.506  1.00  0.00    -0.292 C  
HETATM   14  C   UNL     1      -9.840  12.230  66.048  1.00  0.00    -0.263 C  
HETATM   15  C   UNL     1     -10.168  13.058  64.780  1.00  0.00    -0.312 C  
HETATM   16  C   UNL     1     -10.049  12.340  63.432  1.00  0.00    -0.290 C  
HETATM   17  C   UNL     1     -11.254  11.542  62.966  1.00  0.00     0.066 C  
HETATM   18  C   UNL     1     -12.592  12.068  63.416  1.00  0.00    -0.469 C  
HETATM   19  C   UNL     1     -12.658  13.141  64.439  1.00  0.00    -0.315 C  
HETATM   20  O   UNL     1     -13.644  11.606  62.975  1.00  0.00    -0.089 OA 
ENDROOT
BRANCH   4  21
HETATM   21  C   UNL     1      -6.810  13.316  68.331  1.00  0.00    -0.098 C  
HETATM   22  C   UNL     1      -6.134  14.206  68.762  1.00  0.00    -0.085 C  
ENDBRANCH   4  21
BRANCH   7  23
HETATM   23  C   UNL     1      -6.768  10.631  69.587  1.00  0.00    -0.116 C  
HETATM   24  C   UNL     1      -7.335   9.376  70.248  1.00  0.00    -0.118 C  
ENDBRANCH   7  23
TORSDOF 2
ENDMDL
MODEL      102
REMARK 921   NORMALIZED FREE ENERGY PREDICTED BY IDOCK:   -2.86 KCAL/MOL
REMARK 922        TOTAL FREE ENERGY PREDICTED BY IDOCK:   -3.35 KCAL/MOL
REMARK 923 INTER-LIGAND FREE ENERGY PREDICTED BY IDOCK:   -3.30 KCAL/MOL
REMARK 924 INTRA-LIGAND FREE ENERGY PREDICTED BY IDOCK:   -0.06 KCAL/MOL
REMARK 927      BINDING AFFINITY PREDICTED BY RF-SCORE:    0.00 PKD
ROOT
HETATM    1  C   UNL     1      -9.236  17.143  66.904  1.00  0.00    -0.255 C  
HETATM    2  C   UNL     1     -10.506  17.158  67.536  1.00  0.00    -0.348 C  
HETATM    3  C   UNL     1      -9.369  16.757  68.398  1.00  0.00    -0.231 C  
HETATM    4  C   UNL     1      -7.510  17.047  67.580  1.00  0.00    -0.161 C  
HETATM    5  C   UNL     1      -9.562  12.997  65.836  1.00  0.00    -0.126 C  
HETATM    6  O   UNL     1      -6.207  16.950  68.153  1.00  0.00    -0.128 OA 
HETATM    7  C   UNL     1      -8.206  17.934  68.357  1.00  0.00    -0.303 C  
HETATM    8  C   UNL     1      -7.711  16.866  69.813  1.00  0.00     0.783 C  
HETATM    9  C   UNL     1      -8.765  15.352  66.655  1.00  0.00    -0.332 C  
HETATM   10  C   UNL     1      -8.913  12.395  67.068  1.00  0.00    -0.209 C  
HETATM   11  H   UNL     1      -5.346  17.084  67.774  1.00  0.00     0.000 HD 
HETATM   12  C   UNL     1      -7.472  15.213  69.341  1.00  0.00    -0.204 C  
HETATM   13  C   UNL     1      -9.852  14.515  65.934  1.00  0.00    -0.347 C  
HETATM   14  C   UNL     1      -8.260  14.496  68.061  1.00  0.00    -0.145 C  
HETATM   15  C   UNL     1      -7.690  13.141  67.572  1.00  0.00    -0.168 C  
HETATM   16  C   UNL     1      -6.853  12.338  68.574  1.00  0.00    -0.081 C  
HETATM   17  C   UNL     1      -7.605  11.435  69.536  1.00  0.00     0.200 C  
HETATM   18  C   UNL     1      -8.893  10.859  69.008  1.00  0.00    -0.096 C  
HETATM   19  C   UNL     1      -9.463  11.365  67.735  1.00  0.00    -0.167 C  
HETATM   20  O   UNL     1      -9.509   9.992  69.628  1.00  0.00    -0.214 OA 
ENDROOT
BRANCH   4  21
HETATM   21  C   UNL     1      -7.113  17.825  66.279  1.00  0.00    -0.329 C  
HETATM   22  C   UNL     1      -6.857  18.481  65.309  1.00  0.00    -0.031 C  
ENDBRANCH   4  21
BRANCH   7  23
HETATM   23  C   UNL     1      -8.069  19.416  68.592  1.00  0.00    -0.402 C  
HETATM   24  C   UNL     1      -9.410  20.005  69.027  1.00  0.00    -0.003 C  
ENDBRANCH   7  23
TORSDOF 2
ENDMDL
MODEL      103
REMARK 921   NORMALIZED FREE ENERGY PREDICTED BY IDOCK:   -2.84 KCAL/MOL
REMARK 922        TOTAL FREE ENERGY PREDICTED BY IDOCK:   -3.33 KCAL/MOL
REMARK 923 INTER-LIGAND FREE ENERGY PREDICTED BY IDOCK:   -3.17 KCAL/MOL
REMARK 924 INTRA-LIGAND FREE ENERGY PREDICTED BY IDOCK:   -0.16 KCAL/MOL
REMARK 927      BINDING AFFINITY PREDICTED BY RF-SCORE:    0.00 PKD
ROOT
HETATM    1  C   UNL     1      -8.803  10.033  68.629  1.00  0.00    -0.132 C  
HETATM    2  C   UNL     1      -8.643   9.425  69.901  1.00  0.00    -0.201 C  
HETATM    3  C   UNL     1      -7.564   9.149  68.923  1.00  0.00    -0.076 C  
HETATM    4  C   UNL     1      -7.631  10.279  67.211  1.00  0.00    -0.095 C  
HETATM    5  C   UNL     1     -10.816   6.610  66.995  1.00  0.00    -0.467 C  
HETATM    6  O   UNL     1      -6.694  10.423  66.144  1.00  0.00    -0.101 OA 
HETATM    7  C   UNL     1      -6.953  10.582  68.361  1.00  0.00    -0.066 C  
HETATM    8  C   UNL     1      -5.692   9.310  67.812  1.00  0.00    -0.038 C  
HETATM    9  C   UNL     1      -9.275   8.681  67.428  1.00  0.00    -0.158 C  
HETATM   10  C   UNL     1      -9.606   5.876  66.449  1.00  0.00    -0.173 C  
HETATM   11  H   UNL     1      -6.725  10.946  65.352  1.00  0.00     0.000 HD 
HETATM   12  C   UNL     1      -6.414   8.080  66.824  1.00  0.00    -0.056 C  
HETATM   13  C   UNL     1     -10.484   7.829  67.891  1.00  0.00    -0.263 C  
HETATM   14  C   UNL     1      -8.010   7.617  66.945  1.00  0.00    -0.115 C  
HETATM   15  C   UNL     1      -8.570   6.763  65.781  1.00  0.00    -0.144 C  
HETATM   16  C   UNL     1      -7.554   5.988  64.935  1.00  0.00    -0.092 C  
HETATM   17  C   UNL     1      -7.125   4.625  65.449  1.00  0.00    -0.063 C  
HETATM   18  C   UNL     1      -8.165   3.875  66.239  1.00  0.00    -0.104 C  
HETATM   19  C   UNL     1      -9.408   4.564  66.666  1.00  0.00    -0.156 C  
HETATM   20  O   UNL     1      -7.996   2.702  66.571  1.00  0.00    -0.079 OA 
ENDROOT
BRANCH   4  21
HETATM   21  C   UNL     1      -8.517  11.530  66.886  1.00  0.00    -0.165 C  
HETATM   22  C   UNL     1      -9.134  12.515  66.594  1.00  0.00    -0.203 C  
ENDBRANCH   4  21
BRANCH   7  23
HETATM   23  C   UNL     1      -6.361  11.860  68.894  1.00  0.00    -0.073 C  
HETATM   24  C   UNL     1      -5.780  11.629  70.289  1.00  0.00    -0.152 C  
ENDBRANCH   7  23
TORSDOF 2
ENDMDL
MODEL      104
REMARK 921   NORMALIZED FREE ENERGY PREDICTED BY IDOCK:   -2.80 KCAL/MOL
REMARK 922        TOTAL FREE ENERGY PREDICTED BY IDOCK:   -3.29 KCAL/MOL
REMARK 923 INTER-LIGAND FREE ENERGY PREDICTED BY IDOCK:   -3.16 KCAL/MOL
REMARK 924 INTRA-LIGAND FREE ENERGY PREDICTED BY IDOCK:   -0.13 KCAL/MOL
REMARK 927      BINDING AFFINITY PREDICTED BY RF-SCORE:    0.00 PKD
ROOT
HETATM    1  C   UNL     1      -9.710   4.085  66.802  1.00  0.00    -0.216 C  
HETATM    2  C   UNL     1     -10.447   4.661  65.735  1.00  0.00    -0.290 C  
HETATM    3  C   UNL     1      -9.091   5.221  65.948  1.00  0.00    -0.159 C  
HETATM    4  C   UNL     1      -7.916   4.177  67.266  1.00  0.00    -0.096 C  
HETATM    5  C   UNL     1     -11.086   7.007  69.631  1.00  0.00    -0.254 C  
HETATM    6  O   UNL     1      -6.531   4.299  67.589  1.00  0.00    -0.036 OA 
HETATM    7  C   UNL     1      -7.980   3.995  65.911  1.00  0.00    -0.094 C  
HETATM    8  C   UNL     1      -6.941   5.546  65.772  1.00  0.00    -0.066 C  
HETATM    9  C   UNL     1      -9.678   5.337  68.189  1.00  0.00    -0.184 C  
HETATM   10  C   UNL     1      -9.973   8.025  69.464  1.00  0.00    -0.186 C  
HETATM   11  H   UNL     1      -5.986   3.816  68.199  1.00  0.00     0.000 HD 
HETATM   12  C   UNL     1      -7.202   6.613  67.116  1.00  0.00    -0.081 C  
HETATM   13  C   UNL     1     -11.080   5.864  68.587  1.00  0.00    -0.191 C  
HETATM   14  C   UNL     1      -8.629   6.685  67.972  1.00  0.00    -0.118 C  
HETATM   15  C   UNL     1      -8.582   7.432  69.329  1.00  0.00    -0.137 C  
HETATM   16  C   UNL     1      -7.459   8.456  69.520  1.00  0.00    -0.088 C  
HETATM   17  C   UNL     1      -7.707   9.860  68.996  1.00  0.00    -0.089 C  
HETATM   18  C   UNL     1      -9.144  10.314  69.020  1.00  0.00    -0.183 C  
HETATM   19  C   UNL     1     -10.223   9.337  69.309  1.00  0.00    -0.211 C  
HETATM   20  O   UNL     1      -9.452  11.480  68.774  1.00  0.00    -0.175 OA 
ENDROOT
BRANCH   4  21
HETATM   21  C   UNL     1      -8.160   2.768  67.907  1.00  0.00    -0.076 C  
HETATM   22  C   UNL     1      -8.408   1.723  68.440  1.00  0.00    -0.077 C  
ENDBRANCH   4  21
BRANCH   7  23
HETATM   23  C   UNL     1      -7.547   2.869  65.008  1.00  0.00    -0.076 C  
HETATM   24  C   UNL     1      -8.135   3.062  63.611  1.00  0.00    -0.082 C  
ENDBRANCH   7  23
TORSDOF 2
ENDMDL
MODEL      105
REMARK 921   NORMALIZED FREE ENERGY PREDICTED BY IDOCK:   -2.67 KCAL/MOL
REMARK 922        TOTAL FREE ENERGY PREDICTED BY IDOCK:   -3.14 KCAL/MOL
REMARK 923 INTER-LIGAND FREE ENERGY PREDICTED BY IDOCK:   -3.44 KCAL/MOL
REMARK 924 INTRA-LIGAND FREE ENERGY PREDICTED BY IDOCK:    0.30 KCAL/MOL
REMARK 927      BINDING AFFINITY PREDICTED BY RF-SCORE:    0.00 PKD
ROOT
HETATM    1  C   UNL     1     -10.514   7.400  68.853  1.00  0.00    -0.213 C  
HETATM    2  C   UNL     1     -11.257   6.405  68.169  1.00  0.00    -0.270 C  
HETATM    3  C   UNL     1     -10.825   6.046  69.540  1.00  0.00    -0.439 C  
HETATM    4  C   UNL     1     -10.039   7.591  70.638  1.00  0.00    -0.187 C  
HETATM    5  C   UNL     1      -6.748   5.823  67.524  1.00  0.00    -0.059 C  
HETATM    6  O   UNL     1      -9.684   7.677  72.017  1.00  0.00    -0.159 OA 
HETATM    7  C   UNL     1     -11.351   7.202  70.602  1.00  0.00    -0.327 C  
HETATM    8  C   UNL     1     -10.836   5.780  71.706  1.00  0.00    -0.311 C  
HETATM    9  C   UNL     1      -8.736   6.825  68.900  1.00  0.00    -0.129 C  
HETATM   10  C   UNL     1      -6.477   4.880  68.681  1.00  0.00    -0.037 C  
HETATM   11  H   UNL     1      -9.321   8.392  72.525  1.00  0.00     0.000 HD 
HETATM   12  C   UNL     1      -9.176   5.342  71.452  1.00  0.00    -0.171 C  
HETATM   13  C   UNL     1      -8.168   6.440  67.511  1.00  0.00    -0.117 C  
HETATM   14  C   UNL     1      -8.376   5.557  70.008  1.00  0.00    -0.116 C  
HETATM   15  C   UNL     1      -6.832   5.432  70.050  1.00  0.00    -0.059 C  
HETATM   16  C   UNL     1      -6.231   4.630  71.208  1.00  0.00    -0.018 C  
HETATM   17  C   UNL     1      -6.138   3.124  71.030  1.00  0.00    -0.018 C  
HETATM   18  C   UNL     1      -5.941   2.652  69.614  1.00  0.00    -0.023 C  
HETATM   19  C   UNL     1      -6.084   3.608  68.488  1.00  0.00    -0.031 C  
HETATM   20  O   UNL     1      -5.691   1.473  69.360  1.00  0.00    -0.020 OA 
ENDROOT
BRANCH   4  21
HETATM   21  C   UNL     1     -10.031   9.126  70.319  1.00  0.00    -0.246 C  
HETATM   22  C   UNL     1     -10.088  10.307  70.127  1.00  0.00    -0.099 C  
ENDBRANCH   4  21
BRANCH   7  23
HETATM   23  C   UNL     1     -12.632   7.881  71.012  1.00  0.00    -0.111 C  
HETATM   24  C   UNL     1     -13.611   6.855  71.580  1.00  0.00    -0.277 C  
ENDBRANCH   7  23
TORSDOF 2
ENDMDL
MODEL      106
REMARK 921   NORMALIZED FREE ENERGY PREDICTED BY IDOCK:   -2.51 KCAL/MOL
REMARK 922        TOTAL FREE ENERGY PREDICTED BY IDOCK:   -2.97 KCAL/MOL
REMARK 923 INTER-LIGAND FREE ENERGY PREDICTED BY IDOCK:   -3.20 KCAL/MOL
REMARK 924 INTRA-LIGAND FREE ENERGY PREDICTED BY IDOCK:    0.24 KCAL/MOL
REMARK 927      BINDING AFFINITY PREDICTED BY RF-SCORE:    0.00 PKD
ROOT
HETATM    1  C   UNL     1      -8.532   9.321  69.426  1.00  0.00    -0.137 C  
HETATM    2  C   UNL     1      -7.633   9.606  70.485  1.00  0.00    -0.151 C  
HETATM    3  C   UNL     1      -7.570   8.225  69.950  1.00  0.00    -0.080 C  
HETATM    4  C   UNL     1      -8.629   7.912  68.221  1.00  0.00    -0.124 C  
HETATM    5  C   UNL     1     -11.573   7.880  72.092  1.00  0.00    -0.380 C  
HETATM    6  O   UNL     1      -8.669   6.795  67.334  1.00  0.00    -0.119 OA 
HETATM    7  C   UNL     1      -7.314   8.281  68.316  1.00  0.00    -0.095 C  
HETATM    8  C   UNL     1      -6.968   6.495  68.763  1.00  0.00    -0.080 C  
HETATM    9  C   UNL     1      -9.883   8.235  70.126  1.00  0.00    -0.184 C  
HETATM   10  C   UNL     1     -11.186   6.413  72.106  1.00  0.00    -0.319 C  
HETATM   11  H   UNL     1      -9.160   6.650  66.534  1.00  0.00     0.000 HD 
HETATM   12  C   UNL     1      -8.335   5.753  69.532  1.00  0.00    -0.112 C  
HETATM   13  C   UNL     1     -10.551   8.814  71.399  1.00  0.00    -0.349 C  
HETATM   14  C   UNL     1      -9.458   6.594  70.430  1.00  0.00    -0.170 C  
HETATM   15  C   UNL     1     -10.778   5.850  70.756  1.00  0.00    -0.344 C  
HETATM   16  C   UNL     1     -10.739   4.319  70.719  1.00  0.00     0.837 C  
HETATM   17  C   UNL     1     -10.273   3.609  71.977  1.00  0.00    -0.145 C  
HETATM   18  C   UNL     1     -10.582   4.316  73.271  1.00  0.00    -0.204 C  
HETATM   19  C   UNL     1     -11.081   5.713  73.249  1.00  0.00    -0.288 C  
HETATM   20  O   UNL     1     -10.400   3.771  74.360  1.00  0.00    -0.175 OA 
ENDROOT
BRANCH   4  21
HETATM   21  C   UNL     1      -9.309   8.960  67.275  1.00  0.00    -0.173 C  
HETATM   22  C   UNL     1      -9.889   9.709  66.542  1.00  0.00    -0.298 C  
ENDBRANCH   4  21
BRANCH   7  23
HETATM   23  C   UNL     1      -6.345   8.878  67.329  1.00  0.00    -0.060 C  
HETATM   24  C   UNL     1      -6.086  10.344  67.669  1.00  0.00    -0.052 C  
ENDBRANCH   7  23
TORSDOF 2
ENDMDL
MODEL      107
REMARK 921   NORMALIZED FREE ENERGY PREDICTED BY IDOCK:   -2.51 KCAL/MOL
REMARK 922        TOTAL FREE ENERGY PREDICTED BY IDOCK:   -2.96 KCAL/MOL
REMARK 923 INTER-LIGAND FREE ENERGY PREDICTED BY IDOCK:   -2.86 KCAL/MOL
REMARK 924 INTRA-LIGAND FREE ENERGY PREDICTED BY IDOCK:   -0.11 KCAL/MOL
REMARK 927      BINDING AFFINITY PREDICTED BY RF-SCORE:    0.00 PKD
ROOT
HETATM    1  C   UNL     1      -9.610   8.854  70.243  1.00  0.00    -0.212 C  
HETATM    2  C   UNL     1      -8.939   9.115  71.465  1.00  0.00    -0.079 C  
HETATM    3  C   UNL     1      -8.198   8.269  70.500  1.00  0.00    -0.114 C  
HETATM    4  C   UNL     1      -9.022   8.162  68.624  1.00  0.00    -0.137 C  
HETATM    5  C   UNL     1     -11.351   5.215  71.714  1.00  0.00     0.216 C  
HETATM    6  O   UNL     1      -8.521   7.606  67.410  1.00  0.00    -0.121 OA 
HETATM    7  C   UNL     1      -8.082   9.061  69.051  1.00  0.00    -0.107 C  
HETATM    8  C   UNL     1      -6.846   7.663  68.898  1.00  0.00    -0.061 C  
HETATM    9  C   UNL     1     -10.175   7.073  70.294  1.00  0.00    -0.206 C  
HETATM   10  C   UNL     1     -10.263   4.252  71.278  1.00  0.00    -0.106 C  
HETATM   11  H   UNL     1      -8.902   7.556  66.541  1.00  0.00     0.000 HD 
HETATM   12  C   UNL     1      -7.599   6.116  69.130  1.00  0.00    -0.095 C  
HETATM   13  C   UNL     1     -10.988   6.713  71.563  1.00  0.00    -0.287 C  
HETATM   14  C   UNL     1      -8.953   5.881  70.071  1.00  0.00    -0.146 C  
HETATM   15  C   UNL     1      -9.684   4.526  69.901  1.00  0.00    -0.288 C  
HETATM   16  C   UNL     1      -8.864   3.360  69.339  1.00  0.00    -0.154 C  
HETATM   17  C   UNL     1      -8.042   2.553  70.329  1.00  0.00    -0.056 C  
HETATM   18  C   UNL     1      -8.613   2.462  71.720  1.00  0.00    -0.064 C  
HETATM   19  C   UNL     1      -9.761   3.319  72.106  1.00  0.00    -0.230 C  
HETATM   20  O   UNL     1      -8.127   1.710  72.565  1.00  0.00    -0.050 OA 
ENDROOT
BRANCH   4  21
HETATM   21  C   UNL     1     -10.186   9.010  68.006  1.00  0.00    -0.260 C  
HETATM   22  C   UNL     1     -11.037   9.724  67.557  1.00  0.00    -0.089 C  
ENDBRANCH   4  21
BRANCH   7  23
HETATM   23  C   UNL     1      -7.604  10.381  68.504  1.00  0.00    -0.095 C  
HETATM   24  C   UNL     1      -6.659  11.051  69.500  1.00  0.00    -0.118 C  
ENDBRANCH   7  23
TORSDOF 2
ENDMDL
MODEL      108
REMARK 921   NORMALIZED FREE ENERGY PREDICTED BY IDOCK:   -2.46 KCAL/MOL
REMARK 922        TOTAL FREE ENERGY PREDICTED BY IDOCK:   -2.90 KCAL/MOL
REMARK 923 INTER-LIGAND FREE ENERGY PREDICTED BY IDOCK:   -3.45 KCAL/MOL
REMARK 924 INTRA-LIGAND FREE ENERGY PREDICTED BY IDOCK:    0.55 KCAL/MOL
REMARK 927      BINDING AFFINITY PREDICTED BY RF-SCORE:    0.00 PKD
ROOT
HETATM    1  C   UNL     1      -8.770   8.500  65.596  1.00  0.00    -0.213 C  
HETATM    2  C   UNL     1      -9.840   9.389  65.317  1.00  0.00    -0.072 C  
HETATM    3  C   UNL     1      -9.088   9.668  66.563  1.00  0.00    -0.185 C  
HETATM    4  C   UNL     1      -7.357   8.592  66.796  1.00  0.00    -0.082 C  
HETATM    5  C   UNL     1     -11.241   5.908  67.963  1.00  0.00     0.112 C  
HETATM    6  O   UNL     1      -6.303   8.704  67.751  1.00  0.00    -0.055 OA 
HETATM    7  C   UNL     1      -7.478   9.823  66.210  1.00  0.00    -0.100 C  
HETATM    8  C   UNL     1      -7.624  10.504  67.949  1.00  0.00    -0.092 C  
HETATM    9  C   UNL     1      -9.319   7.403  67.005  1.00  0.00    -0.183 C  
HETATM   10  C   UNL     1     -11.010   6.550  69.318  1.00  0.00    -0.389 C  
HETATM   11  H   UNL     1      -5.502   8.206  67.859  1.00  0.00     0.000 HD 
HETATM   12  C   UNL     1      -8.296   9.333  69.039  1.00  0.00    -0.123 C  
HETATM   13  C   UNL     1     -10.684   6.711  66.762  1.00  0.00    -0.329 C  
HETATM   14  C   UNL     1      -9.344   8.127  68.567  1.00  0.00    -0.138 C  
HETATM   15  C   UNL     1      -9.578   6.980  69.582  1.00  0.00    -0.150 C  
HETATM   16  C   UNL     1      -9.293   7.288  71.056  1.00  0.00    -0.158 C  
HETATM   17  C   UNL     1     -10.410   7.939  71.854  1.00  0.00    -0.271 C  
HETATM   18  C   UNL     1     -11.807   7.577  71.423  1.00  0.00    -0.294 C  
HETATM   19  C   UNL     1     -12.022   6.837  70.155  1.00  0.00    -0.244 C  
HETATM   20  O   UNL     1     -12.789   7.911  72.086  1.00  0.00    -0.280 OA 
ENDROOT
BRANCH   4  21
HETATM   21  C   UNL     1      -6.608   7.688  65.757  1.00  0.00    -0.045 C  
HETATM   22  C   UNL     1      -6.082   7.029  64.906  1.00  0.00    -0.037 C  
ENDBRANCH   4  21
BRANCH   7  23
HETATM   23  C   UNL     1      -6.578  10.618  65.301  1.00  0.00     0.006 C  
HETATM   24  C   UNL     1      -5.239  10.883  65.989  1.00  0.00    -0.129 C  
ENDBRANCH   7  23
TORSDOF 2
ENDMDL
MODEL      109
REMARK 921   NORMALIZED FREE ENERGY PREDICTED BY IDOCK:   -2.14 KCAL/MOL
REMARK 922        TOTAL FREE ENERGY PREDICTED BY IDOCK:   -2.55 KCAL/MOL
REMARK 923 INTER-LIGAND FREE ENERGY PREDICTED BY IDOCK:   -3.06 KCAL/MOL
REMARK 924 INTRA-LIGAND FREE ENERGY PREDICTED BY IDOCK:    0.51 KCAL/MOL
REMARK 927      BINDING AFFINITY PREDICTED BY RF-SCORE:    0.00 PKD
ROOT
HETATM    1  C   UNL     1      -7.869  17.435  69.023  1.00  0.00    -0.128 C  
HETATM    2  C   UNL     1      -6.748  16.568  69.081  1.00  0.00    -0.213 C  
HETATM    3  C   UNL     1      -7.139  17.013  67.722  1.00  0.00    -0.162 C  
HETATM    4  C   UNL     1      -8.543  18.509  67.667  1.00  0.00    -0.264 C  
HETATM    5  C   UNL     1     -10.633  14.193  68.482  1.00  0.00    -0.257 C  
HETATM    6  O   UNL     1      -9.029  19.300  66.584  1.00  0.00    -0.309 OA 
HETATM    7  C   UNL     1      -7.183  18.668  67.679  1.00  0.00    -0.225 C  
HETATM    8  C   UNL     1      -7.228  18.170  65.874  1.00  0.00    -0.275 C  
HETATM    9  C   UNL     1      -9.299  16.441  68.344  1.00  0.00    -0.217 C  
HETATM   10  C   UNL     1     -10.637  14.150  66.965  1.00  0.00    -0.276 C  
HETATM   11  H   UNL     1      -9.679  19.992  66.558  1.00  0.00     0.000 HD 
HETATM   12  C   UNL     1      -8.574  17.129  65.532  1.00  0.00     0.892 C  
HETATM   13  C   UNL     1      -9.551  15.113  69.101  1.00  0.00    -0.232 C  
HETATM   14  C   UNL     1      -9.259  16.108  66.655  1.00  0.00    -0.273 C  
HETATM   15  C   UNL     1     -10.641  15.510  66.290  1.00  0.00    -0.310 C  
HETATM   16  C   UNL     1     -11.003  15.453  64.802  1.00  0.00    -0.411 C  
HETATM   17  C   UNL     1     -10.510  14.250  64.017  1.00  0.00     1.067 C  
HETATM   18  C   UNL     1     -10.384  12.972  64.805  1.00  0.00    -0.336 C  
HETATM   19  C   UNL     1     -10.506  12.999  66.284  1.00  0.00    -0.285 C  
HETATM   20  O   UNL     1     -10.150  11.897  64.251  1.00  0.00    -0.278 OA 
ENDROOT
BRANCH   4  21
HETATM   21  C   UNL     1      -9.095  19.391  68.840  1.00  0.00    -0.363 C  
HETATM   22  C   UNL     1      -9.508  20.129  69.688  1.00  0.00     0.479 C  
ENDBRANCH   4  21
BRANCH   7  23
HETATM   23  C   UNL     1      -6.293  19.844  67.982  1.00  0.00    -0.266 C  
HETATM   24  C   UNL     1      -6.745  21.065  67.182  1.00  0.00    -0.424 C  
ENDBRANCH   7  23
TORSDOF 2
ENDMDL
MODEL      110
REMARK 921   NORMALIZED FREE ENERGY PREDICTED BY IDOCK:   -1.75 KCAL/MOL
REMARK 922        TOTAL FREE ENERGY PREDICTED BY IDOCK:   -2.11 KCAL/MOL
REMARK 923 INTER-LIGAND FREE ENERGY PREDICTED BY IDOCK:   -2.63 KCAL/MOL
REMARK 924 INTRA-LIGAND FREE ENERGY PREDICTED BY IDOCK:    0.52 KCAL/MOL
REMARK 927      BINDING AFFINITY PREDICTED BY RF-SCORE:    0.00 PKD
ROOT
HETATM    1  C   UNL     1      -6.363  16.930  67.385  1.00  0.00    -0.184 C  
HETATM    2  C   UNL     1      -5.866  16.739  66.071  1.00  0.00     0.915 C  
HETATM    3  C   UNL     1      -7.338  16.646  66.215  1.00  0.00    -0.116 C  
HETATM    4  C   UNL     1      -8.074  17.239  68.036  1.00  0.00    -0.221 C  
HETATM    5  C   UNL     1      -6.261  12.732  68.279  1.00  0.00    -0.078 C  
HETATM    6  O   UNL     1      -9.412  17.452  68.483  1.00  0.00    -0.280 OA 
HETATM    7  C   UNL     1      -7.909  18.026  66.928  1.00  0.00    -0.247 C  
HETATM    8  C   UNL     1      -9.448  17.199  66.256  1.00  0.00    -0.267 C  
HETATM    9  C   UNL     1      -6.900  15.257  68.021  1.00  0.00    -0.152 C  
HETATM   10  C   UNL     1      -7.668  12.374  67.841  1.00  0.00    -0.135 C  
HETATM   11  H   UNL     1      -9.753  17.727  69.326  1.00  0.00     0.000 HD 
HETATM   12  C   UNL     1      -9.642  15.596  66.892  1.00  0.00    -0.244 C  
HETATM   13  C   UNL     1      -5.809  14.164  67.898  1.00  0.00    -0.133 C  
HETATM   14  C   UNL     1      -8.371  14.636  67.376  1.00  0.00    -0.223 C  
HETATM   15  C   UNL     1      -8.732  13.388  68.222  1.00  0.00    -0.172 C  
HETATM   16  C   UNL     1     -10.162  12.853  68.095  1.00  0.00    -0.239 C  
HETATM   17  C   UNL     1     -10.442  11.897  66.949  1.00  0.00    -0.253 C  
HETATM   18  C   UNL     1      -9.281  11.033  66.529  1.00  0.00    -0.171 C  
HETATM   19  C   UNL     1      -7.923  11.310  67.059  1.00  0.00    -0.150 C  
HETATM   20  O   UNL     1      -9.425  10.111  65.725  1.00  0.00    -0.179 OA 
ENDROOT
BRANCH   4  21
HETATM   21  C   UNL     1      -7.338  17.975  69.208  1.00  0.00    -0.031 C  
HETATM   22  C   UNL     1      -6.766  18.601  70.054  1.00  0.00     0.231 C  
ENDBRANCH   4  21
BRANCH   7  23
HETATM   23  C   UNL     1      -7.863  19.519  66.731  1.00  0.00    -0.291 C  
HETATM   24  C   UNL     1      -8.931  19.949  65.727  1.00  0.00    -0.010 C  
ENDBRANCH   7  23
TORSDOF 2
ENDMDL
MODEL      111
REMARK 921   NORMALIZED FREE ENERGY PREDICTED BY IDOCK:   -1.62 KCAL/MOL
REMARK 922        TOTAL FREE ENERGY PREDICTED BY IDOCK:   -1.97 KCAL/MOL
REMARK 923 INTER-LIGAND FREE ENERGY PREDICTED BY IDOCK:   -1.78 KCAL/MOL
REMARK 924 INTRA-LIGAND FREE ENERGY PREDICTED BY IDOCK:   -0.18 KCAL/MOL
REMARK 927      BINDING AFFINITY PREDICTED BY RF-SCORE:    0.00 PKD
ROOT
HETATM    1  C   UNL     1      -5.784  14.506  68.091  1.00  0.00    -0.130 C  
HETATM    2  C   UNL     1      -5.170  15.318  69.078  1.00  0.00    -0.098 C  
HETATM    3  C   UNL     1      -6.626  15.100  69.248  1.00  0.00    -0.139 C  
HETATM    4  C   UNL     1      -7.442  13.674  68.017  1.00  0.00    -0.133 C  
HETATM    5  C   UNL     1      -6.830  17.875  65.644  1.00  0.00    -0.160 C  
HETATM    6  O   UNL     1      -8.737  13.075  68.005  1.00  0.00    -0.171 OA 
HETATM    7  C   UNL     1      -6.938  13.474  69.274  1.00  0.00    -0.008 C  
HETATM    8  C   UNL     1      -8.524  14.245  69.905  1.00  0.00     1.023 C  
HETATM    9  C   UNL     1      -6.795  15.636  66.997  1.00  0.00    -0.009 C  
HETATM   10  C   UNL     1      -8.208  18.151  66.216  1.00  0.00    -0.243 C  
HETATM   11  H   UNL     1      -9.114  12.416  67.435  1.00  0.00     0.000 HD 
HETATM   12  C   UNL     1      -9.188  15.367  68.760  1.00  0.00    -0.206 C  
HETATM   13  C   UNL     1      -5.996  16.838  66.435  1.00  0.00     0.194 C  
HETATM   14  C   UNL     1      -8.268  16.223  67.667  1.00  0.00    -0.166 C  
HETATM   15  C   UNL     1      -9.035  16.913  66.511  1.00  0.00    -0.303 C  
HETATM   16  C   UNL     1     -10.520  17.209  66.742  1.00  0.00    -0.263 C  
HETATM   17  C   UNL     1     -10.862  18.504  67.460  1.00  0.00    -0.337 C  
HETATM   18  C   UNL     1      -9.899  19.641  67.237  1.00  0.00    -0.371 C  
HETATM   19  C   UNL     1      -8.602  19.389  66.562  1.00  0.00    -0.363 C  
HETATM   20  O   UNL     1     -10.150  20.780  67.631  1.00  0.00    -0.330 OA 
ENDROOT
BRANCH   4  21
HETATM   21  C   UNL     1      -6.719  12.640  67.088  1.00  0.00    -0.025 C  
HETATM   22  C   UNL     1      -6.237  11.836  66.341  1.00  0.00     0.212 C  
ENDBRANCH   4  21
BRANCH   7  23
HETATM   23  C   UNL     1      -6.504  12.238  70.018  1.00  0.00     0.067 C  
HETATM   24  C   UNL     1      -5.683  12.625  71.247  1.00  0.00     0.176 C  
ENDBRANCH   7  23
TORSDOF 2
ENDMDL
MODEL      112
REMARK 921   NORMALIZED FREE ENERGY PREDICTED BY IDOCK:   -1.35 KCAL/MOL
REMARK 922        TOTAL FREE ENERGY PREDICTED BY IDOCK:   -1.67 KCAL/MOL
REMARK 923 INTER-LIGAND FREE ENERGY PREDICTED BY IDOCK:   -2.14 KCAL/MOL
REMARK 924 INTRA-LIGAND FREE ENERGY PREDICTED BY IDOCK:    0.47 KCAL/MOL
REMARK 927      BINDING AFFINITY PREDICTED BY RF-SCORE:    0.00 PKD
ROOT
HETATM    1  C   UNL     1      -6.440   7.527  67.750  1.00  0.00    -0.054 C  
HETATM    2  C   UNL     1      -6.225   8.229  66.536  1.00  0.00    -0.054 C  
HETATM    3  C   UNL     1      -7.583   7.665  66.713  1.00  0.00    -0.098 C  
HETATM    4  C   UNL     1      -7.988   6.939  68.589  1.00  0.00    -0.120 C  
HETATM    5  C   UNL     1      -5.368   3.747  66.019  1.00  0.00    -0.013 C  
HETATM    6  O   UNL     1      -9.207   6.491  69.179  1.00  0.00    -0.135 OA 
HETATM    7  C   UNL     1      -8.223   8.210  68.139  1.00  0.00    -0.129 C  
HETATM    8  C   UNL     1      -9.696   7.490  67.233  1.00  0.00    -0.217 C  
HETATM    9  C   UNL     1      -6.503   5.707  67.331  1.00  0.00    -0.047 C  
HETATM   10  C   UNL     1      -6.748   3.307  65.565  1.00  0.00    -0.044 C  
HETATM   11  H   UNL     1      -9.394   6.155  70.048  1.00  0.00     0.000 HD 
HETATM   12  C   UNL     1      -9.443   5.821  66.829  1.00  0.00    -0.154 C  
HETATM   13  C   UNL     1      -5.285   5.213  66.510  1.00  0.00    -0.008 C  
HETATM   14  C   UNL     1      -7.941   5.154  66.561  1.00  0.00    -0.104 C  
HETATM   15  C   UNL     1      -7.867   3.606  66.547  1.00  0.00    -0.088 C  
HETATM   16  C   UNL     1      -9.165   2.851  66.243  1.00  0.00    -0.107 C  
HETATM   17  C   UNL     1      -9.515   2.638  64.781  1.00  0.00    -0.116 C  
HETATM   18  C   UNL     1      -8.339   2.507  63.848  1.00  0.00    -0.082 C  
HETATM   19  C   UNL     1      -6.972   2.819  64.333  1.00  0.00    -0.048 C  
HETATM   20  O   UNL     1      -8.488   2.174  62.672  1.00  0.00    -0.071 OA 
ENDROOT
BRANCH   4  21
HETATM   21  C   UNL     1      -7.155   7.091  69.908  1.00  0.00    -0.070 C  
HETATM   22  C   UNL     1      -6.585   7.186  70.958  1.00  0.00    -0.044 C  
ENDBRANCH   4  21
BRANCH   7  23
HETATM   23  C   UNL     1      -8.499   9.512  68.846  1.00  0.00    -0.123 C  
HETATM   24  C   UNL     1      -9.706   9.362  69.770  1.00  0.00    -0.215 C  
ENDBRANCH   7  23
TORSDOF 2
ENDMDL
MODEL      113
REMARK 921   NORMALIZED FREE ENERGY PREDICTED BY IDOCK:   -1.31 KCAL/MOL
REMARK 922        TOTAL FREE ENERGY PREDICTED BY IDOCK:   -1.62 KCAL/MOL
REMARK 923 INTER-LIGAND FREE ENERGY PREDICTED BY IDOCK:   -3.46 KCAL/MOL
REMARK 924 INTRA-LIGAND FREE ENERGY PREDICTED BY IDOCK:    1.84 KCAL/MOL
REMARK 927      BINDING AFFINITY PREDICTED BY RF-SCORE:    0.00 PKD
ROOT
HETATM    1  C   UNL     1     -10.308   6.599  70.006  1.00  0.00    -0.232 C  
HETATM    2  C   UNL     1     -10.553   5.746  68.899  1.00  0.00    -0.337 C  
HETATM    3  C   UNL     1      -9.125   5.992  69.211  1.00  0.00    -0.126 C  
HETATM    4  C   UNL     1      -8.775   6.952  70.990  1.00  0.00    -0.136 C  
HETATM    5  C   UNL     1     -10.116  10.112  67.546  1.00  0.00    -0.244 C  
HETATM    6  O   UNL     1      -7.562   7.201  71.699  1.00  0.00    -0.086 OA 
HETATM    7  C   UNL     1      -8.833   5.598  70.792  1.00  0.00    -0.146 C  
HETATM    8  C   UNL     1      -7.123   5.753  70.045  1.00  0.00    -0.067 C  
HETATM    9  C   UNL     1      -9.712   8.233  69.322  1.00  0.00    -0.177 C  
HETATM   10  C   UNL     1      -8.624  10.111  67.267  1.00  0.00    -0.125 C  
HETATM   11  H   UNL     1      -7.399   7.645  72.523  1.00  0.00     0.000 HD 
HETATM   12  C   UNL     1      -6.870   7.322  69.346  1.00  0.00    -0.050 C  
HETATM   13  C   UNL     1     -10.645   8.834  68.240  1.00  0.00    -0.194 C  
HETATM   14  C   UNL     1      -8.096   8.264  68.728  1.00  0.00    -0.115 C  
HETATM   15  C   UNL     1      -7.754   9.751  68.457  1.00  0.00    -0.081 C  
HETATM   16  C   UNL     1      -6.274  10.098  68.262  1.00  0.00    -0.049 C  
HETATM   17  C   UNL     1      -5.705   9.931  66.864  1.00  0.00    -0.050 C  
HETATM   18  C   UNL     1      -6.680  10.155  65.737  1.00  0.00    -0.110 C  
HETATM   19  C   UNL     1      -8.129  10.281  66.028  1.00  0.00    -0.139 C  
HETATM   20  O   UNL     1      -6.305  10.206  64.566  1.00  0.00    -0.124 OA 
ENDROOT
BRANCH   4  21
HETATM   21  C   UNL     1      -9.772   7.264  72.158  1.00  0.00    -0.177 C  
HETATM   22  C   UNL     1     -10.510   7.580  73.048  1.00  0.00    -0.396 C  
ENDBRANCH   4  21
BRANCH   7  23
HETATM   23  C   UNL     1      -9.002   4.433  71.731  1.00  0.00    -0.157 C  
HETATM   24  C   UNL     1      -9.450   4.927  73.106  1.00  0.00    -0.144 C  
ENDBRANCH   7  23
TORSDOF 2
ENDMDL
MODEL      114
REMARK 921   NORMALIZED FREE ENERGY PREDICTED BY IDOCK:   -1.07 KCAL/MOL
REMARK 922        TOTAL FREE ENERGY PREDICTED BY IDOCK:   -1.35 KCAL/MOL
REMARK 923 INTER-LIGAND FREE ENERGY PREDICTED BY IDOCK:   -1.86 KCAL/MOL
REMARK 924 INTRA-LIGAND FREE ENERGY PREDICTED BY IDOCK:    0.51 KCAL/MOL
REMARK 927      BINDING AFFINITY PREDICTED BY RF-SCORE:    0.00 PKD
ROOT
HETATM    1  C   UNL     1      -9.253  11.950  67.305  1.00  0.00    -0.179 C  
HETATM    2  C   UNL     1      -8.951  12.475  66.022  1.00  0.00     0.156 C  
HETATM    3  C   UNL     1      -7.790  12.291  66.925  1.00  0.00    -0.045 C  
HETATM    4  C   UNL     1      -8.182  11.239  68.643  1.00  0.00    -0.146 C  
HETATM    5  C   UNL     1      -9.675  15.850  69.052  1.00  0.00    -0.243 C  
HETATM    6  O   UNL     1      -7.309  10.721  69.646  1.00  0.00    -0.201 OA 
HETATM    7  C   UNL     1      -7.748  10.722  67.452  1.00  0.00    -0.107 C  
HETATM    8  C   UNL     1      -6.061  11.395  67.910  1.00  0.00    -0.050 C  
HETATM    9  C   UNL     1      -9.088  13.353  68.528  1.00  0.00    -0.077 C  
HETATM   10  C   UNL     1      -8.242  16.046  69.513  1.00  0.00    -0.018 C  
HETATM   11  H   UNL     1      -7.490  10.234  70.441  1.00  0.00     0.000 HD 
HETATM   12  C   UNL     1      -6.186  12.787  68.938  1.00  0.00    -0.085 C  
HETATM   13  C   UNL     1      -9.898  14.617  68.142  1.00  0.00    -0.224 C  
HETATM   14  C   UNL     1      -7.481  13.834  68.920  1.00  0.00    -0.056 C  
HETATM   15  C   UNL     1      -7.593  14.813  70.116  1.00  0.00     0.377 C  
HETATM   16  C   UNL     1      -6.304  15.116  70.888  1.00  0.00     0.304 C  
HETATM   17  C   UNL     1      -5.413  16.217  70.341  1.00  0.00    -0.171 C  
HETATM   18  C   UNL     1      -6.129  17.328  69.618  1.00  0.00    -0.244 C  
HETATM   19  C   UNL     1      -7.566  17.184  69.277  1.00  0.00    -0.025 C  
HETATM   20  O   UNL     1      -5.539  18.351  69.270  1.00  0.00    -0.203 OA 
ENDROOT
BRANCH   4  21
HETATM   21  C   UNL     1      -9.462  10.422  69.032  1.00  0.00    -0.205 C  
HETATM   22  C   UNL     1     -10.462   9.860  69.376  1.00  0.00    -0.250 C  
ENDBRANCH   4  21
BRANCH   7  23
HETATM   23  C   UNL     1      -7.733   9.326  66.887  1.00  0.00    -0.094 C  
HETATM   24  C   UNL     1      -7.010   8.380  67.844  1.00  0.00    -0.078 C  
ENDBRANCH   7  23
TORSDOF 2
ENDMDL
MODEL      115
REMARK 921   NORMALIZED FREE ENERGY PREDICTED BY IDOCK:   -1.03 KCAL/MOL
REMARK 922        TOTAL FREE ENERGY PREDICTED BY IDOCK:   -1.32 KCAL/MOL
REMARK 923 INTER-LIGAND FREE ENERGY PREDICTED BY IDOCK:   -1.31 KCAL/MOL
REMARK 924 INTRA-LIGAND FREE ENERGY PREDICTED BY IDOCK:   -0.00 KCAL/MOL
REMARK 927      BINDING AFFINITY PREDICTED BY RF-SCORE:    0.00 PKD
ROOT
HETATM    1  C   UNL     1      -9.698  13.859  69.487  1.00  0.00     0.677 C  
HETATM    2  C   UNL     1      -9.091  14.501  70.596  1.00  0.00     2.434 C  
HETATM    3  C   UNL     1     -10.182  15.259  69.941  1.00  0.00    -0.233 C  
HETATM    4  C   UNL     1     -11.267  14.201  68.556  1.00  0.00    -0.260 C  
HETATM    5  C   UNL     1      -7.051  15.723  66.667  1.00  0.00     0.295 C  
HETATM    6  O   UNL     1     -12.472  14.523  67.863  1.00  0.00    -0.599 OA 
HETATM    7  C   UNL     1     -11.547  14.323  69.891  1.00  0.00    -0.337 C  
HETATM    8  C   UNL     1     -12.167  16.042  69.483  1.00  0.00     0.003 C  
HETATM    9  C   UNL     1      -9.112  14.743  67.948  1.00  0.00    -0.183 C  
HETATM   10  C   UNL     1      -7.882  16.955  66.359  1.00  0.00    -0.348 C  
HETATM   11  H   UNL     1     -12.974  14.034  67.222  1.00  0.00     0.000 HD 
HETATM   12  C   UNL     1     -11.360  16.700  68.095  1.00  0.00    -0.095 C  
HETATM   13  C   UNL     1      -7.571  14.872  67.852  1.00  0.00    -0.146 C  
HETATM   14  C   UNL     1      -9.810  16.288  67.648  1.00  0.00    -0.238 C  
HETATM   15  C   UNL     1      -9.372  16.700  66.220  1.00  0.00    -0.323 C  
HETATM   16  C   UNL     1     -10.133  17.859  65.567  1.00  0.00     0.298 C  
HETATM   17  C   UNL     1      -9.660  19.265  65.891  1.00  0.00    -0.094 C  
HETATM   18  C   UNL     1      -8.186  19.403  66.170  1.00  0.00    -0.311 C  
HETATM   19  C   UNL     1      -7.350  18.190  66.348  1.00  0.00    -0.285 C  
HETATM   20  O   UNL     1      -7.656  20.508  66.287  1.00  0.00    -0.189 OA 
ENDROOT
BRANCH   4  21
HETATM   21  C   UNL     1     -11.251  12.664  68.253  1.00  0.00    -0.312 C  
HETATM   22  C   UNL     1     -11.190  11.479  68.085  1.00  0.00    -0.335 C  
ENDBRANCH   4  21
BRANCH   7  23
HETATM   23  C   UNL     1     -12.434  13.542  70.825  1.00  0.00    -0.428 C  
HETATM   24  C   UNL     1     -12.497  14.232  72.188  1.00  0.00    -0.306 C  
ENDBRANCH   7  23
TORSDOF 2
ENDMDL
MODEL      116
REMARK 921   NORMALIZED FREE ENERGY PREDICTED BY IDOCK:   -0.94 KCAL/MOL
REMARK 922        TOTAL FREE ENERGY PREDICTED BY IDOCK:   -1.21 KCAL/MOL
REMARK 923 INTER-LIGAND FREE ENERGY PREDICTED BY IDOCK:   -2.48 KCAL/MOL
REMARK 924 INTRA-LIGAND FREE ENERGY PREDICTED BY IDOCK:    1.27 KCAL/MOL
REMARK 927      BINDING AFFINITY PREDICTED BY RF-SCORE:    0.00 PKD
ROOT
HETATM    1  C   UNL     1     -10.455  16.092  69.629  1.00  0.00    -0.300 C  
HETATM    2  C   UNL     1     -10.442  16.738  68.367  1.00  0.00    -0.339 C  
HETATM    3  C   UNL     1     -10.809  15.303  68.343  1.00  0.00    -0.257 C  
HETATM    4  C   UNL     1     -11.140  14.459  70.184  1.00  0.00    -0.024 C  
HETATM    5  C   UNL     1      -6.378  14.797  69.260  1.00  0.00    -0.115 C  
HETATM    6  O   UNL     1     -11.667  13.184  70.551  1.00  0.00    -0.529 OA 
HETATM    7  C   UNL     1     -12.078  15.044  69.375  1.00  0.00    -0.290 C  
HETATM    8  C   UNL     1     -12.002  13.476  68.354  1.00  0.00    -0.378 C  
HETATM    9  C   UNL     1      -8.951  14.983  69.695  1.00  0.00     0.014 C  
HETATM   10  C   UNL     1      -6.627  13.449  68.610  1.00  0.00    -0.091 C  
HETATM   11  H   UNL     1     -11.820  12.793  71.403  1.00  0.00     0.000 HD 
HETATM   12  C   UNL     1     -10.450  12.710  68.472  1.00  0.00    -0.249 C  
HETATM   13  C   UNL     1      -7.625  15.709  69.357  1.00  0.00    -0.221 C  
HETATM   14  C   UNL     1      -9.034  13.535  68.766  1.00  0.00     0.098 C  
HETATM   15  C   UNL     1      -7.808  12.679  69.173  1.00  0.00     0.381 C  
HETATM   16  C   UNL     1      -7.826  11.202  68.766  1.00  0.00    -0.142 C  
HETATM   17  C   UNL     1      -7.334  10.865  67.370  1.00  0.00    -0.099 C  
HETATM   18  C   UNL     1      -6.267  11.777  66.823  1.00  0.00    -0.094 C  
HETATM   19  C   UNL     1      -5.938  13.038  67.531  1.00  0.00    -0.113 C  
HETATM   20  O   UNL     1      -5.676  11.516  65.774  1.00  0.00    -0.127 OA 
ENDROOT
BRANCH   4  21
HETATM   21  C   UNL     1     -11.275  15.156  71.581  1.00  0.00    -0.312 C  
HETATM   22  C   UNL     1     -11.435  15.634  72.668  1.00  0.00    -0.358 C  
ENDBRANCH   4  21
BRANCH   7  23
HETATM   23  C   UNL     1     -13.470  15.559  69.629  1.00  0.00     1.412 C  
HETATM   24  C   UNL     1     -13.984  15.044  70.973  1.00  0.00    -0.343 C  
ENDBRANCH   7  23
TORSDOF 2
ENDMDL
MODEL      117
REMARK 921   NORMALIZED FREE ENERGY PREDICTED BY IDOCK:   -0.89 KCAL/MOL
REMARK 922        TOTAL FREE ENERGY PREDICTED BY IDOCK:   -1.16 KCAL/MOL
REMARK 923 INTER-LIGAND FREE ENERGY PREDICTED BY IDOCK:   -2.15 KCAL/MOL
REMARK 924 INTRA-LIGAND FREE ENERGY PREDICTED BY IDOCK:    1.00 KCAL/MOL
REMARK 927      BINDING AFFINITY PREDICTED BY RF-SCORE:    0.00 PKD
ROOT
HETATM    1  C   UNL     1      -6.141   5.826  71.537  1.00  0.00    -0.034 C  
HETATM    2  C   UNL     1      -5.177   6.327  70.626  1.00  0.00    -0.014 C  
HETATM    3  C   UNL     1      -6.519   6.949  70.540  1.00  0.00    -0.051 C  
HETATM    4  C   UNL     1      -7.806   6.457  72.061  1.00  0.00    -0.100 C  
HETATM    5  C   UNL     1      -7.593   2.904  68.746  1.00  0.00    -0.048 C  
HETATM    6  O   UNL     1      -9.088   6.976  72.411  1.00  0.00    -0.133 OA 
HETATM    7  C   UNL     1      -6.953   7.527  72.030  1.00  0.00    -0.063 C  
HETATM    8  C   UNL     1      -8.183   8.324  70.864  1.00  0.00    -0.123 C  
HETATM    9  C   UNL     1      -7.337   4.779  70.554  1.00  0.00    -0.050 C  
HETATM   10  C   UNL     1      -8.689   3.732  68.103  1.00  0.00    -0.127 C  
HETATM   11  H   UNL     1      -9.684   6.749  73.114  1.00  0.00     0.000 HD 
HETATM   12  C   UNL     1      -9.069   7.136  69.961  1.00  0.00    -0.145 C  
HETATM   13  C   UNL     1      -6.649   3.696  69.685  1.00  0.00    -0.033 C  
HETATM   14  C   UNL     1      -8.465   5.633  69.573  1.00  0.00    -0.110 C  
HETATM   15  C   UNL     1      -9.491   4.587  69.068  1.00  0.00    -0.229 C  
HETATM   16  C   UNL     1     -10.795   5.126  68.470  1.00  0.00     0.330 C  
HETATM   17  C   UNL     1     -10.775   5.506  67.000  1.00  0.00    -0.286 C  
HETATM   18  C   UNL     1      -9.833   4.708  66.138  1.00  0.00    -0.226 C  
HETATM   19  C   UNL     1      -8.841   3.802  66.769  1.00  0.00    -0.132 C  
HETATM   20  O   UNL     1      -9.842   4.812  64.911  1.00  0.00    -0.062 OA 
ENDROOT
BRANCH   4  21
HETATM   21  C   UNL     1      -7.509   5.702  73.401  1.00  0.00    -0.095 C  
HETATM   22  C   UNL     1      -7.359   5.135  74.446  1.00  0.00    -0.086 C  
ENDBRANCH   4  21
BRANCH   7  23
HETATM   23  C   UNL     1      -6.421   8.444  73.100  1.00  0.00    -0.113 C  
HETATM   24  C   UNL     1      -7.347   8.423  74.316  1.00  0.00    -0.224 C  
ENDBRANCH   7  23
TORSDOF 2
ENDMDL
MODEL      118
REMARK 921   NORMALIZED FREE ENERGY PREDICTED BY IDOCK:   -0.60 KCAL/MOL
REMARK 922        TOTAL FREE ENERGY PREDICTED BY IDOCK:   -0.83 KCAL/MOL
REMARK 923 INTER-LIGAND FREE ENERGY PREDICTED BY IDOCK:   -1.73 KCAL/MOL
REMARK 924 INTRA-LIGAND FREE ENERGY PREDICTED BY IDOCK:    0.90 KCAL/MOL
REMARK 927      BINDING AFFINITY PREDICTED BY RF-SCORE:    0.00 PKD
ROOT
HETATM    1  C   UNL     1     -11.011   8.944  71.979  1.00  0.00    -0.412 C  
HETATM    2  C   UNL     1      -9.620   9.165  72.147  1.00  0.00     0.252 C  
HETATM    3  C   UNL     1     -10.157   9.477  70.802  1.00  0.00    -0.352 C  
HETATM    4  C   UNL     1     -12.203   9.468  70.657  1.00  0.00    -0.123 C  
HETATM    5  C   UNL     1     -10.434   4.939  70.544  1.00  0.00    -0.170 C  
HETATM    6  O   UNL     1     -13.071   9.880  69.602  1.00  0.00    -0.010 OA 
HETATM    7  C   UNL     1     -11.412  10.547  70.946  1.00  0.00    -0.304 C  
HETATM    8  C   UNL     1     -10.999  10.584  69.120  1.00  0.00    -0.286 C  
HETATM    9  C   UNL     1     -11.204   7.411  70.928  1.00  0.00    -0.292 C  
HETATM   10  C   UNL     1     -10.343   5.242  69.060  1.00  0.00    -0.246 C  
HETATM   11  H   UNL     1     -14.019   9.876  69.534  1.00  0.00     0.000 HD 
HETATM   12  C   UNL     1     -11.112   9.006  68.407  1.00  0.00     0.159 C  
HETATM   13  C   UNL     1     -10.418   6.187  71.461  1.00  0.00    -0.268 C  
HETATM   14  C   UNL     1     -10.861   7.592  69.251  1.00  0.00    -0.111 C  
HETATM   15  C   UNL     1     -11.327   6.285  68.561  1.00  0.00    -0.149 C  
HETATM   16  C   UNL     1     -11.465   6.316  67.035  1.00  0.00     0.227 C  
HETATM   17  C   UNL     1     -10.210   6.049  66.223  1.00  0.00    -0.049 C  
HETATM   18  C   UNL     1      -9.210   5.122  66.863  1.00  0.00    -0.118 C  
HETATM   19  C   UNL     1      -9.373   4.727  68.284  1.00  0.00    -0.177 C  
HETATM   20  O   UNL     1      -8.234   4.703  66.241  1.00  0.00    -0.106 OA 
ENDROOT
BRANCH   4  21
HETATM   21  C   UNL     1     -13.275   9.396  71.798  1.00  0.00    -0.487 C  
HETATM   22  C   UNL     1     -14.140   9.391  72.627  1.00  0.00    -0.151 C  
ENDBRANCH   4  21
BRANCH   7  23
HETATM   23  C   UNL     1     -11.701  11.897  71.550  1.00  0.00     1.648 C  
HETATM   24  C   UNL     1     -13.151  12.294  71.276  1.00  0.00    -0.208 C  
ENDBRANCH   7  23
TORSDOF 2
ENDMDL
MODEL      119
REMARK 921   NORMALIZED FREE ENERGY PREDICTED BY IDOCK:   -0.27 KCAL/MOL
REMARK 922        TOTAL FREE ENERGY PREDICTED BY IDOCK:   -0.46 KCAL/MOL
REMARK 923 INTER-LIGAND FREE ENERGY PREDICTED BY IDOCK:   -1.93 KCAL/MOL
REMARK 924 INTRA-LIGAND FREE ENERGY PREDICTED BY IDOCK:    1.47 KCAL/MOL
REMARK 927      BINDING AFFINITY PREDICTED BY RF-SCORE:    0.00 PKD
ROOT
HETATM    1  C   UNL     1      -9.579   4.702  66.839  1.00  0.00    -0.197 C  
HETATM    2  C   UNL     1      -9.600   4.730  65.421  1.00  0.00    -0.152 C  
HETATM    3  C   UNL     1      -8.259   4.844  66.040  1.00  0.00    -0.112 C  
HETATM    4  C   UNL     1      -8.197   4.480  68.058  1.00  0.00    -0.094 C  
HETATM    5  C   UNL     1      -9.809   8.978  67.153  1.00  0.00    -0.262 C  
HETATM    6  O   UNL     1      -7.095   4.325  68.951  1.00  0.00    -0.050 OA 
HETATM    7  C   UNL     1      -8.014   3.562  67.059  1.00  0.00    -0.083 C  
HETATM    8  C   UNL     1      -6.307   4.304  66.853  1.00  0.00    -0.040 C  
HETATM    9  C   UNL     1      -9.219   6.442  67.419  1.00  0.00    -0.117 C  
HETATM   10  C   UNL     1      -8.323   9.284  67.175  1.00  0.00    -0.124 C  
HETATM   11  H   UNL     1      -7.066   4.157  69.885  1.00  0.00     0.000 HD 
HETATM   12  C   UNL     1      -6.273   5.973  67.326  1.00  0.00    -0.033 C  
HETATM   13  C   UNL     1     -10.163   7.510  66.811  1.00  0.00    -0.324 C  
HETATM   14  C   UNL     1      -7.595   6.983  67.239  1.00  0.00    -0.108 C  
HETATM   15  C   UNL     1      -7.488   8.325  68.006  1.00  0.00    -0.097 C  
HETATM   16  C   UNL     1      -6.078   8.844  68.306  1.00  0.00    -0.053 C  
HETATM   17  C   UNL     1      -5.394   9.654  67.219  1.00  0.00    -0.036 C  
HETATM   18  C   UNL     1      -6.313  10.457  66.336  1.00  0.00    -0.092 C  
HETATM   19  C   UNL     1      -7.780  10.243  66.406  1.00  0.00    -0.116 C  
HETATM   20  O   UNL     1      -5.873  11.273  65.526  1.00  0.00    -0.069 OA 
ENDROOT
BRANCH   4  21
HETATM   21  C   UNL     1      -9.311   3.891  68.991  1.00  0.00    -0.237 C  
HETATM   22  C   UNL     1     -10.106   3.392  69.735  1.00  0.00     0.640 C  
ENDBRANCH   4  21
BRANCH   7  23
HETATM   23  C   UNL     1      -8.050   2.057  67.033  1.00  0.00    -0.072 C  
HETATM   24  C   UNL     1      -9.400   1.555  67.540  1.00  0.00    -0.100 C  
ENDBRANCH   7  23
TORSDOF 2
ENDMDL
MODEL      120
REMARK 921   NORMALIZED FREE ENERGY PREDICTED BY IDOCK:   -0.04 KCAL/MOL
REMARK 922        TOTAL FREE ENERGY PREDICTED BY IDOCK:   -0.20 KCAL/MOL
REMARK 923 INTER-LIGAND FREE ENERGY PREDICTED BY IDOCK:   -0.38 KCAL/MOL
REMARK 924 INTRA-LIGAND FREE ENERGY PREDICTED BY IDOCK:    0.18 KCAL/MOL
REMARK 927      BINDING AFFINITY PREDICTED BY RF-SCORE:    0.00 PKD
ROOT
HETATM    1  C   UNL     1      -7.257  11.430  68.382  1.00  0.00    -0.087 C  
HETATM    2  C   UNL     1      -6.739  11.314  69.697  1.00  0.00    -0.122 C  
HETATM    3  C   UNL     1      -7.983  12.110  69.570  1.00  0.00     0.939 C  
HETATM    4  C   UNL     1      -8.900  12.006  67.737  1.00  0.00    -0.165 C  
HETATM    5  C   UNL     1      -5.137  15.086  67.627  1.00  0.00     0.046 C  
HETATM    6  O   UNL     1     -10.171  12.479  67.296  1.00  0.00    -0.215 OA 
HETATM    7  C   UNL     1      -9.143  11.200  68.817  1.00  0.00    -0.144 C  
HETATM    8  C   UNL     1     -10.099  12.643  69.531  1.00  0.00     0.930 C  
HETATM    9  C   UNL     1      -6.916  13.176  67.807  1.00  0.00    -0.145 C  
HETATM   10  C   UNL     1      -6.201  16.064  68.090  1.00  0.00    -0.127 C  
HETATM   11  H   UNL     1     -10.596  12.432  66.448  1.00  0.00     0.000 HD 
HETATM   12  C   UNL     1      -9.491  14.162  68.950  1.00  0.00    -0.029 C  
HETATM   13  C   UNL     1      -5.434  13.603  67.956  1.00  0.00    -0.116 C  
HETATM   14  C   UNL     1      -7.910  14.406  68.487  1.00  0.00    -0.138 C  
HETATM   15  C   UNL     1      -7.619  15.701  67.686  1.00  0.00    -0.179 C  
HETATM   16  C   UNL     1      -8.615  16.855  67.845  1.00  0.00    -0.208 C  
HETATM   17  C   UNL     1      -8.408  17.788  69.024  1.00  0.00    -0.029 C  
HETATM   18  C   UNL     1      -6.978  17.971  69.461  1.00  0.00     0.027 C  
HETATM   19  C   UNL     1      -5.918  17.092  68.910  1.00  0.00    -0.158 C  
HETATM   20  O   UNL     1      -6.666  18.820  70.297  1.00  0.00     0.198 OA 
ENDROOT
BRANCH   4  21
HETATM   21  C   UNL     1      -8.600  11.047  66.535  1.00  0.00    -0.165 C  
HETATM   22  C   UNL     1      -8.293  10.332  65.624  1.00  0.00    -0.159 C  
ENDBRANCH   4  21
BRANCH   7  23
HETATM   23  C   UNL     1      -9.824   9.864  68.964  1.00  0.00    -0.193 C  
HETATM   24  C   UNL     1      -8.889   8.872  69.654  1.00  0.00    -0.142 C  
ENDBRANCH   7  23
TORSDOF 2
ENDMDL
MODEL      121
REMARK 921   NORMALIZED FREE ENERGY PREDICTED BY IDOCK:   -0.01 KCAL/MOL
REMARK 922        TOTAL FREE ENERGY PREDICTED BY IDOCK:   -0.17 KCAL/MOL
REMARK 923 INTER-LIGAND FREE ENERGY PREDICTED BY IDOCK:   -0.31 KCAL/MOL
REMARK 924 INTRA-LIGAND FREE ENERGY PREDICTED BY IDOCK:    0.14 KCAL/MOL
REMARK 927      BINDING AFFINITY PREDICTED BY RF-SCORE:    0.00 PKD
ROOT
HETATM    1  C   UNL     1      -7.767  11.167  67.734  1.00  0.00    -0.112 C  
HETATM    2  C   UNL     1      -6.561  11.681  68.275  1.00  0.00    -0.059 C  
HETATM    3  C   UNL     1      -6.484  10.299  67.746  1.00  0.00    -0.062 C  
HETATM    4  C   UNL     1      -8.126   9.682  66.680  1.00  0.00    -0.119 C  
HETATM    5  C   UNL     1      -8.955   9.405  71.465  1.00  0.00     0.325 C  
HETATM    6  O   UNL     1      -8.348   8.516  65.889  1.00  0.00    -0.123 OA 
HETATM    7  C   UNL     1      -7.005  10.283  66.174  1.00  0.00    -0.116 C  
HETATM    8  C   UNL     1      -6.164   8.623  66.385  1.00  0.00    -0.060 C  
HETATM    9  C   UNL     1      -8.427   9.913  68.952  1.00  0.00    -0.127 C  
HETATM   10  C   UNL     1      -8.332   8.034  71.275  1.00  0.00    -0.130 C  
HETATM   11  H   UNL     1      -9.108   8.230  65.396  1.00  0.00     0.000 HD 
HETATM   12  C   UNL     1      -6.873   7.707  67.677  1.00  0.00    -0.069 C  
HETATM   13  C   UNL     1      -8.549  10.453  70.399  1.00  0.00     0.905 C  
HETATM   14  C   UNL     1      -7.610   8.398  69.001  1.00  0.00    -0.092 C  
HETATM   15  C   UNL     1      -8.475   7.458  69.878  1.00  0.00    -0.139 C  
HETATM   16  C   UNL     1      -8.168   5.959  69.800  1.00  0.00    -0.113 C  
HETATM   17  C   UNL     1      -7.062   5.432  70.698  1.00  0.00    -0.061 C  
HETATM   18  C   UNL     1      -6.885   6.164  72.003  1.00  0.00    -0.072 C  
HETATM   19  C   UNL     1      -7.596   7.446  72.234  1.00  0.00    -0.092 C  
HETATM   20  O   UNL     1      -6.135   5.737  72.880  1.00  0.00    -0.041 OA 
ENDROOT
BRANCH   4  21
HETATM   21  C   UNL     1      -9.343  10.524  66.164  1.00  0.00    -0.210 C  
HETATM   22  C   UNL     1     -10.299  11.102  65.731  1.00  0.00    -0.316 C  
ENDBRANCH   4  21
BRANCH   7  23
HETATM   23  C   UNL     1      -6.714  10.970  64.866  1.00  0.00     0.576 C  
HETATM   24  C   UNL     1      -5.222  10.885  64.548  1.00  0.00    -0.005 C  
ENDBRANCH   7  23
TORSDOF 2
ENDMDL
MODEL      122
REMARK 921   NORMALIZED FREE ENERGY PREDICTED BY IDOCK:    1.23 KCAL/MOL
REMARK 922        TOTAL FREE ENERGY PREDICTED BY IDOCK:    1.22 KCAL/MOL
REMARK 923 INTER-LIGAND FREE ENERGY PREDICTED BY IDOCK:   -0.92 KCAL/MOL
REMARK 924 INTRA-LIGAND FREE ENERGY PREDICTED BY IDOCK:    2.13 KCAL/MOL
REMARK 927      BINDING AFFINITY PREDICTED BY RF-SCORE:    0.00 PKD
ROOT
HETATM    1  C   UNL     1      -8.722   6.930  69.274  1.00  0.00    -0.135 C  
HETATM    2  C   UNL     1     -10.105   6.613  69.282  1.00  0.00    -0.187 C  
HETATM    3  C   UNL     1      -9.369   6.224  68.056  1.00  0.00    -0.114 C  
HETATM    4  C   UNL     1      -7.327   6.386  68.177  1.00  0.00    -0.089 C  
HETATM    5  C   UNL     1      -9.369  10.727  67.377  1.00  0.00    -0.163 C  
HETATM    6  O   UNL     1      -6.297   5.952  67.291  1.00  0.00    -0.038 OA 
HETATM    7  C   UNL     1      -8.075   5.277  68.469  1.00  0.00    -0.087 C  
HETATM    8  C   UNL     1      -8.231   5.040  66.618  1.00  0.00    -0.108 C  
HETATM    9  C   UNL     1      -8.493   8.371  68.107  1.00  0.00    -0.132 C  
HETATM   10  C   UNL     1      -9.236  10.283  65.932  1.00  0.00    -0.205 C  
HETATM   11  H   UNL     1      -5.352   6.027  67.346  1.00  0.00     0.000 HD 
HETATM   12  C   UNL     1      -8.129   6.551  65.770  1.00  0.00    -0.128 C  
HETATM   13  C   UNL     1      -9.426   9.571  68.407  1.00  0.00    -0.144 C  
HETATM   14  C   UNL     1      -8.590   8.010  66.426  1.00  0.00    -0.155 C  
HETATM   15  C   UNL     1      -8.124   9.282  65.673  1.00  0.00    -0.112 C  
HETATM   16  C   UNL     1      -7.777   9.123  64.190  1.00  0.00    -0.121 C  
HETATM   17  C   UNL     1      -8.924   9.213  63.198  1.00  0.00    -0.002 C  
HETATM   18  C   UNL     1     -10.063  10.110  63.607  1.00  0.00     0.382 C  
HETATM   19  C   UNL     1     -10.124  10.645  64.990  1.00  0.00    -0.388 C  
HETATM   20  O   UNL     1     -10.971  10.390  62.824  1.00  0.00     1.165 OA 
ENDROOT
BRANCH   4  21
HETATM   21  C   UNL     1      -6.429   6.649  69.435  1.00  0.00    -0.043 C  
HETATM   22  C   UNL     1      -5.811   6.861  70.439  1.00  0.00    -0.024 C  
ENDBRANCH   4  21
BRANCH   7  23
HETATM   23  C   UNL     1      -7.780   4.017  69.239  1.00  0.00    -0.053 C  
HETATM   24  C   UNL     1      -6.636   4.258  70.223  1.00  0.00    -0.032 C  
ENDBRANCH   7  23
TORSDOF 2
ENDMDL
MODEL      123
REMARK 921   NORMALIZED FREE ENERGY PREDICTED BY IDOCK:    1.41 KCAL/MOL
REMARK 922        TOTAL FREE ENERGY PREDICTED BY IDOCK:    1.42 KCAL/MOL
REMARK 923 INTER-LIGAND FREE ENERGY PREDICTED BY IDOCK:   -0.53 KCAL/MOL
REMARK 924 INTRA-LIGAND FREE ENERGY PREDICTED BY IDOCK:    1.95 KCAL/MOL
REMARK 927      BINDING AFFINITY PREDICTED BY RF-SCORE:    0.00 PKD
ROOT
HETATM    1  C   UNL     1      -7.551  18.472  68.100  1.00  0.00    -0.291 C  
HETATM    2  C   UNL     1      -6.921  18.004  69.282  1.00  0.00    -0.155 C  
HETATM    3  C   UNL     1      -7.155  16.980  68.238  1.00  0.00    -0.190 C  
HETATM    4  C   UNL     1      -7.762  17.712  66.420  1.00  0.00    -0.290 C  
HETATM    5  C   UNL     1     -11.481  17.530  69.549  1.00  0.00     1.834 C  
HETATM    6  O   UNL     1      -7.915  17.073  65.154  1.00  0.00     1.177 OA 
HETATM    7  C   UNL     1      -6.472  17.480  66.815  1.00  0.00    -0.234 C  
HETATM    8  C   UNL     1      -6.835  15.666  66.525  1.00  0.00     1.045 C  
HETATM    9  C   UNL     1      -9.308  17.836  68.123  1.00  0.00    -0.281 C  
HETATM   10  C   UNL     1     -11.591  16.118  69.003  1.00  0.00    -0.298 C  
HETATM   11  H   UNL     1      -8.196  17.412  64.312  1.00  0.00     0.000 HD 
HETATM   12  C   UNL     1      -8.518  15.307  66.749  1.00  0.00    -0.290 C  
HETATM   13  C   UNL     1     -10.072  18.162  69.431  1.00  0.00     0.060 C  
HETATM   14  C   UNL     1      -9.515  16.163  67.772  1.00  0.00    -0.217 C  
HETATM   15  C   UNL     1     -11.038  15.933  67.601  1.00  0.00    -0.266 C  
HETATM   16  C   UNL     1     -11.473  14.621  66.941  1.00  0.00    -0.372 C  
HETATM   17  C   UNL     1     -11.603  13.404  67.841  1.00  0.00    -0.374 C  
HETATM   18  C   UNL     1     -12.006  13.693  69.263  1.00  0.00    -0.336 C  
HETATM   19  C   UNL     1     -12.017  15.092  69.759  1.00  0.00    -0.366 C  
HETATM   20  O   UNL     1     -12.298  12.787  70.043  1.00  0.00    -0.223 OA 
ENDROOT
BRANCH   4  21
HETATM   21  C   UNL     1      -7.803  19.196  65.916  1.00  0.00    -0.167 C  
HETATM   22  C   UNL     1      -7.889  20.307  65.474  1.00  0.00     0.091 C  
ENDBRANCH   4  21
BRANCH   7  23
HETATM   23  C   UNL     1      -5.141  17.945  66.286  1.00  0.00    -0.213 C  
HETATM   24  C   UNL     1      -5.292  19.304  65.605  1.00  0.00    -0.178 C  
ENDBRANCH   7  23
TORSDOF 2
ENDMDL
MODEL      124
REMARK 921   NORMALIZED FREE ENERGY PREDICTED BY IDOCK:    1.48 KCAL/MOL
REMARK 922        TOTAL FREE ENERGY PREDICTED BY IDOCK:    1.49 KCAL/MOL
REMARK 923 INTER-LIGAND FREE ENERGY PREDICTED BY IDOCK:    0.95 KCAL/MOL
REMARK 924 INTRA-LIGAND FREE ENERGY PREDICTED BY IDOCK:    0.54 KCAL/MOL
REMARK 927      BINDING AFFINITY PREDICTED BY RF-SCORE:    0.00 PKD
ROOT
HETATM    1  C   UNL     1      -8.734  11.164  68.599  1.00  0.00    -0.153 C  
HETATM    2  C   UNL     1      -9.777  10.757  67.727  1.00  0.00    -0.179 C  
HETATM    3  C   UNL     1      -8.691  11.544  67.097  1.00  0.00    -0.160 C  
HETATM    4  C   UNL     1      -7.040  11.851  68.277  1.00  0.00    -0.081 C  
HETATM    5  C   UNL     1     -10.618  14.925  69.462  1.00  0.00    -0.242 C  
HETATM    6  O   UNL     1      -5.757  12.395  67.973  1.00  0.00    -0.058 OA 
HETATM    7  C   UNL     1      -7.236  10.815  67.403  1.00  0.00    -0.093 C  
HETATM    8  C   UNL     1      -6.845  12.044  66.045  1.00  0.00     1.258 C  
HETATM    9  C   UNL     1      -8.942  12.999  68.886  1.00  0.00     0.315 C  
HETATM   10  C   UNL     1      -9.975  15.756  68.367  1.00  0.00    -0.217 C  
HETATM   11  H   UNL     1      -4.993  12.537  68.519  1.00  0.00     0.000 HD 
HETATM   12  C   UNL     1      -7.265  13.663  66.508  1.00  0.00     1.954 C  
HETATM   13  C   UNL     1     -10.364  13.401  69.352  1.00  0.00     0.349 C  
HETATM   14  C   UNL     1      -8.481  14.029  67.585  1.00  0.00    -0.193 C  
HETATM   15  C   UNL     1      -8.500  15.476  68.138  1.00  0.00    -0.147 C  
HETATM   16  C   UNL     1      -7.796  16.549  67.301  1.00  0.00    -0.185 C  
HETATM   17  C   UNL     1      -8.600  17.191  66.184  1.00  0.00    -0.222 C  
HETATM   18  C   UNL     1     -10.083  17.288  66.428  1.00  0.00    -0.316 C  
HETATM   19  C   UNL     1     -10.692  16.572  67.576  1.00  0.00    -0.283 C  
HETATM   20  O   UNL     1     -10.817  17.927  65.673  1.00  0.00    -0.397 OA 
ENDROOT
BRANCH   4  21
HETATM   21  C   UNL     1      -6.673  11.196  69.653  1.00  0.00    -0.134 C  
HETATM   22  C   UNL     1      -6.447  10.744  70.740  1.00  0.00     0.247 C  
ENDBRANCH   4  21
BRANCH   7  23
HETATM   23  C   UNL     1      -6.573   9.473  67.242  1.00  0.00    -0.071 C  
HETATM   24  C   UNL     1      -5.493   9.546  66.164  1.00  0.00    -0.044 C  
ENDBRANCH   7  23
TORSDOF 2
ENDMDL
MODEL      125
REMARK 921   NORMALIZED FREE ENERGY PREDICTED BY IDOCK:    1.51 KCAL/MOL
REMARK 922        TOTAL FREE ENERGY PREDICTED BY IDOCK:    1.53 KCAL/MOL
REMARK 923 INTER-LIGAND FREE ENERGY PREDICTED BY IDOCK:    1.46 KCAL/MOL
REMARK 924 INTRA-LIGAND FREE ENERGY PREDICTED BY IDOCK:    0.07 KCAL/MOL
REMARK 927      BINDING AFFINITY PREDICTED BY RF-SCORE:    0.00 PKD
ROOT
HETATM    1  C   UNL     1      -8.137  13.231  69.572  1.00  0.00     1.059 C  
HETATM    2  C   UNL     1      -6.854  12.683  69.828  1.00  0.00     0.261 C  
HETATM    3  C   UNL     1      -7.140  12.998  68.409  1.00  0.00    -0.103 C  
HETATM    4  C   UNL     1      -8.853  14.081  68.086  1.00  0.00    -0.182 C  
HETATM    5  C   UNL     1      -9.877   9.381  68.806  1.00  0.00    -0.172 C  
HETATM    6  O   UNL     1      -9.359  14.708  66.908  1.00  0.00    -0.220 OA 
HETATM    7  C   UNL     1      -7.596  14.585  68.280  1.00  0.00    -0.121 C  
HETATM    8  C   UNL     1      -7.246  14.074  66.513  1.00  0.00     2.060 C  
HETATM    9  C   UNL     1      -9.152  11.895  68.748  1.00  0.00     0.042 C  
HETATM   10  C   UNL     1      -9.646   9.322  67.308  1.00  0.00    -0.200 C  
HETATM   11  H   UNL     1     -10.152  15.209  66.758  1.00  0.00     0.000 HD 
HETATM   12  C   UNL     1      -8.217  12.717  66.036  1.00  0.00     1.145 C  
HETATM   13  C   UNL     1      -9.168  10.555  69.526  1.00  0.00    -0.072 C  
HETATM   14  C   UNL     1      -8.780  11.566  67.100  1.00  0.00    -0.160 C  
HETATM   15  C   UNL     1      -9.895  10.628  66.574  1.00  0.00    -0.250 C  
HETATM   16  C   UNL     1     -10.006  10.464  65.054  1.00  0.00    -0.399 C  
HETATM   17  C   UNL     1      -9.114   9.420  64.405  1.00  0.00    -0.180 C  
HETATM   18  C   UNL     1      -8.786   8.226  65.263  1.00  0.00    -0.031 C  
HETATM   19  C   UNL     1      -9.128   8.237  66.707  1.00  0.00    -0.190 C  
HETATM   20  O   UNL     1      -8.208   7.243  64.800  1.00  0.00    -0.124 OA 
ENDROOT
BRANCH   4  21
HETATM   21  C   UNL     1      -9.778  14.802  69.125  1.00  0.00    -0.149 C  
HETATM   22  C   UNL     1     -10.505  15.406  69.862  1.00  0.00    -0.310 C  
ENDBRANCH   4  21
BRANCH   7  23
HETATM   23  C   UNL     1      -7.088  15.955  68.648  1.00  0.00    -0.133 C  
HETATM   24  C   UNL     1      -5.615  16.089  68.264  1.00  0.00    -0.110 C  
ENDBRANCH   7  23
TORSDOF 2
ENDMDL
MODEL      126
REMARK 921   NORMALIZED FREE ENERGY PREDICTED BY IDOCK:    1.51 KCAL/MOL
REMARK 922        TOTAL FREE ENERGY PREDICTED BY IDOCK:    1.53 KCAL/MOL
REMARK 923 INTER-LIGAND FREE ENERGY PREDICTED BY IDOCK:    1.00 KCAL/MOL
REMARK 924 INTRA-LIGAND FREE ENERGY PREDICTED BY IDOCK:    0.53 KCAL/MOL
REMARK 927      BINDING AFFINITY PREDICTED BY RF-SCORE:    0.00 PKD
ROOT
HETATM    1  C   UNL     1     -11.281  15.244  65.275  1.00  0.00    -0.338 C  
HETATM    2  C   UNL     1     -10.592  16.010  64.300  1.00  0.00     1.035 C  
HETATM    3  C   UNL     1      -9.812  14.910  64.915  1.00  0.00     0.078 C  
HETATM    4  C   UNL     1     -10.900  13.613  66.074  1.00  0.00    -0.275 C  
HETATM    5  C   UNL     1      -9.897  17.699  68.514  1.00  0.00    -0.346 C  
HETATM    6  O   UNL     1     -10.547  12.366  66.672  1.00  0.00    -0.227 OA 
HETATM    7  C   UNL     1     -10.636  13.485  64.737  1.00  0.00    -0.429 C  
HETATM    8  C   UNL     1      -8.917  12.947  65.247  1.00  0.00     1.070 C  
HETATM    9  C   UNL     1     -10.589  15.723  66.944  1.00  0.00    -0.317 C  
HETATM   10  C   UNL     1      -8.635  16.929  68.858  1.00  0.00    -0.206 C  
HETATM   11  H   UNL     1     -11.050  11.766  67.209  1.00  0.00     0.000 HD 
HETATM   12  C   UNL     1      -8.453  13.646  66.767  1.00  0.00     0.012 C  
HETATM   13  C   UNL     1     -10.593  17.250  67.205  1.00  0.00    -0.283 C  
HETATM   14  C   UNL     1      -9.027  15.107  67.324  1.00  0.00    -0.213 C  
HETATM   15  C   UNL     1      -8.782  15.418  68.822  1.00  0.00    -0.195 C  
HETATM   16  C   UNL     1      -7.630  14.675  69.506  1.00  0.00    -0.042 C  
HETATM   17  C   UNL     1      -6.242  15.277  69.371  1.00  0.00    -0.122 C  
HETATM   18  C   UNL     1      -6.198  16.778  69.255  1.00  0.00    -0.201 C  
HETATM   19  C   UNL     1      -7.453  17.541  69.042  1.00  0.00    -0.179 C  
HETATM   20  O   UNL     1      -5.133  17.394  69.300  1.00  0.00    -0.158 OA 
ENDROOT
BRANCH   4  21
HETATM   21  C   UNL     1     -12.455  13.489  66.226  1.00  0.00    -0.384 C  
HETATM   22  C   UNL     1     -13.638  13.440  66.407  1.00  0.00     3.695 C  
ENDBRANCH   4  21
BRANCH   7  23
HETATM   23  C   UNL     1     -11.256  12.651  63.646  1.00  0.00    -0.525 C  
HETATM   24  C   UNL     1     -10.422  11.392  63.411  1.00  0.00    -0.452 C  
ENDBRANCH   7  23
TORSDOF 2
ENDMDL
MODEL      127
REMARK 921   NORMALIZED FREE ENERGY PREDICTED BY IDOCK:    1.59 KCAL/MOL
REMARK 922        TOTAL FREE ENERGY PREDICTED BY IDOCK:    1.62 KCAL/MOL
REMARK 923 INTER-LIGAND FREE ENERGY PREDICTED BY IDOCK:    1.81 KCAL/MOL
REMARK 924 INTRA-LIGAND FREE ENERGY PREDICTED BY IDOCK:   -0.19 KCAL/MOL
REMARK 927      BINDING AFFINITY PREDICTED BY RF-SCORE:    0.00 PKD
ROOT
HETATM    1  C   UNL     1     -10.744  15.621  67.339  1.00  0.00    -0.309 C  
HETATM    2  C   UNL     1     -10.907  17.030  67.314  1.00  0.00    -0.123 C  
HETATM    3  C   UNL     1     -10.059  16.506  68.411  1.00  0.00    -0.255 C  
HETATM    4  C   UNL     1      -9.564  14.521  68.256  1.00  0.00    -0.212 C  
HETATM    5  C   UNL     1     -14.078  15.056  69.986  1.00  0.00     1.922 C  
HETATM    6  O   UNL     1      -8.647  13.722  69.002  1.00  0.00    -0.362 OA 
HETATM    7  C   UNL     1      -8.845  15.580  67.771  1.00  0.00    -0.173 C  
HETATM    8  C   UNL     1      -8.303  15.870  69.540  1.00  0.00    -0.077 C  
HETATM    9  C   UNL     1     -11.764  14.974  68.766  1.00  0.00    -0.360 C  
HETATM   10  C   UNL     1     -13.333  15.127  71.306  1.00  0.00    -0.551 C  
HETATM   11  H   UNL     1      -8.417  12.803  68.931  1.00  0.00     0.000 HD 
HETATM   12  C   UNL     1      -9.493  15.310  70.673  1.00  0.00     1.142 C  
HETATM   13  C   UNL     1     -13.238  15.452  68.746  1.00  0.00     2.281 C  
HETATM   14  C   UNL     1     -11.123  15.244  70.341  1.00  0.00    -0.324 C  
HETATM   15  C   UNL     1     -11.993  14.414  71.320  1.00  0.00    -0.359 C  
HETATM   16  C   UNL     1     -11.433  14.191  72.728  1.00  0.00     1.677 C  
HETATM   17  C   UNL     1     -11.691  15.280  73.755  1.00  0.00    -0.171 C  
HETATM   18  C   UNL     1     -12.975  16.047  73.575  1.00  0.00    -0.586 C  
HETATM   19  C   UNL     1     -13.768  15.880  72.331  1.00  0.00    -0.409 C  
HETATM   20  O   UNL     1     -13.372  16.841  74.427  1.00  0.00     0.083 OA 
ENDROOT
BRANCH   4  21
HETATM   21  C   UNL     1      -9.767  13.542  67.049  1.00  0.00    -0.251 C  
HETATM   22  C   UNL     1      -9.880  12.739  66.168  1.00  0.00    -0.269 C  
ENDBRANCH   4  21
BRANCH   7  23
HETATM   23  C   UNL     1      -7.740  15.686  66.753  1.00  0.00    -0.169 C  
HETATM   24  C   UNL     1      -7.495  17.151  66.395  1.00  0.00    -0.341 C  
ENDBRANCH   7  23
TORSDOF 2
ENDMDL
MODEL      128
REMARK 921   NORMALIZED FREE ENERGY PREDICTED BY IDOCK:    2.18 KCAL/MOL
REMARK 922        TOTAL FREE ENERGY PREDICTED BY IDOCK:    2.28 KCAL/MOL
REMARK 923 INTER-LIGAND FREE ENERGY PREDICTED BY IDOCK:    1.72 KCAL/MOL
REMARK 924 INTRA-LIGAND FREE ENERGY PREDICTED BY IDOCK:    0.55 KCAL/MOL
REMARK 927      BINDING AFFINITY PREDICTED BY RF-SCORE:    0.00 PKD
ROOT
HETATM    1  C   UNL     1      -6.873  15.833  69.229  1.00  0.00    -0.184 C  
HETATM    2  C   UNL     1      -6.411  15.506  70.530  1.00  0.00     0.168 C  
HETATM    3  C   UNL     1      -7.172  14.440  69.838  1.00  0.00     0.113 C  
HETATM    4  C   UNL     1      -7.555  14.790  67.853  1.00  0.00    -0.139 C  
HETATM    5  C   UNL     1     -10.659  17.244  70.681  1.00  0.00     1.214 C  
HETATM    6  O   UNL     1      -8.092  13.945  66.837  1.00  0.00    -0.388 OA 
HETATM    7  C   UNL     1      -6.472  14.130  68.370  1.00  0.00    -0.103 C  
HETATM    8  C   UNL     1      -7.629  12.681  68.629  1.00  0.00    -0.083 C  
HETATM    9  C   UNL     1      -8.719  16.097  69.350  1.00  0.00    -0.101 C  
HETATM   10  C   UNL     1     -11.435  15.944  70.588  1.00  0.00    -0.426 C  
HETATM   11  H   UNL     1      -8.269  14.107  65.918  1.00  0.00     0.000 HD 
HETATM   12  C   UNL     1      -9.268  13.205  68.861  1.00  0.00     0.282 C  
HETATM   13  C   UNL     1      -9.134  17.105  70.451  1.00  0.00     3.103 C  
HETATM   14  C   UNL     1      -9.681  14.679  69.516  1.00  0.00     0.108 C  
HETATM   15  C   UNL     1     -11.155  15.122  69.342  1.00  0.00    -0.283 C  
HETATM   16  C   UNL     1     -12.187  14.018  69.092  1.00  0.00    -0.299 C  
HETATM   17  C   UNL     1     -12.762  13.320  70.313  1.00  0.00    -0.045 C  
HETATM   18  C   UNL     1     -12.860  14.167  71.555  1.00  0.00    -0.354 C  
HETATM   19  C   UNL     1     -12.202  15.496  71.598  1.00  0.00    -0.468 C  
HETATM   20  O   UNL     1     -13.452  13.768  72.558  1.00  0.00    -0.513 OA 
ENDROOT
BRANCH   4  21
HETATM   21  C   UNL     1      -6.977  15.907  66.917  1.00  0.00    -0.077 C  
HETATM   22  C   UNL     1      -6.462  16.742  66.228  1.00  0.00     0.216 C  
ENDBRANCH   4  21
BRANCH   7  23
HETATM   23  C   UNL     1      -5.128  13.763  67.797  1.00  0.00    -0.011 C  
HETATM   24  C   UNL     1      -5.208  12.408  67.097  1.00  0.00    -0.009 C  
ENDBRANCH   7  23
TORSDOF 2
ENDMDL
MODEL      129
REMARK 921   NORMALIZED FREE ENERGY PREDICTED BY IDOCK:    2.36 KCAL/MOL
REMARK 922        TOTAL FREE ENERGY PREDICTED BY IDOCK:    2.47 KCAL/MOL
REMARK 923 INTER-LIGAND FREE ENERGY PREDICTED BY IDOCK:    1.80 KCAL/MOL
REMARK 924 INTRA-LIGAND FREE ENERGY PREDICTED BY IDOCK:    0.67 KCAL/MOL
REMARK 927      BINDING AFFINITY PREDICTED BY RF-SCORE:    0.00 PKD
ROOT
HETATM    1  C   UNL     1      -9.090  12.922  67.792  1.00  0.00    -0.197 C  
HETATM    2  C   UNL     1      -9.715  13.294  66.574  1.00  0.00    -0.273 C  
HETATM    3  C   UNL     1      -8.350  13.832  66.780  1.00  0.00     0.086 C  
HETATM    4  C   UNL     1      -7.332  13.037  68.375  1.00  0.00    -0.116 C  
HETATM    5  C   UNL     1     -10.507  16.414  69.849  1.00  0.00    -0.201 C  
HETATM    6  O   UNL     1      -5.970  13.170  68.779  1.00  0.00    -0.070 OA 
HETATM    7  C   UNL     1      -7.307  12.583  67.084  1.00  0.00    -0.066 C  
HETATM    8  C   UNL     1      -6.177  14.031  66.720  1.00  0.00     2.068 C  
HETATM    9  C   UNL     1      -9.091  14.430  68.895  1.00  0.00    -0.069 C  
HETATM   10  C   UNL     1      -9.331  17.332  69.571  1.00  0.00     0.416 C  
HETATM   11  H   UNL     1      -5.498  12.803  69.517  1.00  0.00     0.000 HD 
HETATM   12  C   UNL     1      -6.478  15.361  67.794  1.00  0.00    -0.183 C  
HETATM   13  C   UNL     1     -10.487  15.081  69.061  1.00  0.00    -0.245 C  
HETATM   14  C   UNL     1      -7.957  15.663  68.497  1.00  0.00    -0.138 C  
HETATM   15  C   UNL     1      -7.968  16.671  69.674  1.00  0.00     0.490 C  
HETATM   16  C   UNL     1      -6.807  17.668  69.746  1.00  0.00     0.219 C  
HETATM   17  C   UNL     1      -6.940  18.942  68.931  1.00  0.00    -0.342 C  
HETATM   18  C   UNL     1      -8.348  19.447  68.744  1.00  0.00    -0.344 C  
HETATM   19  C   UNL     1      -9.497  18.593  69.134  1.00  0.00    -0.119 C  
HETATM   20  O   UNL     1      -8.573  20.548  68.242  1.00  0.00     0.080 OA 
ENDROOT
BRANCH   4  21
HETATM   21  C   UNL     1      -7.699  11.801  69.265  1.00  0.00     0.217 C  
HETATM   22  C   UNL     1      -8.006  10.908  70.002  1.00  0.00     0.732 C  
ENDBRANCH   4  21
BRANCH   7  23
HETATM   23  C   UNL     1      -6.872  11.280  66.466  1.00  0.00    -0.101 C  
HETATM   24  C   UNL     1      -5.660  10.723  67.212  1.00  0.00    -0.042 C  
ENDBRANCH   7  23
TORSDOF 2
ENDMDL
MODEL      130
REMARK 921   NORMALIZED FREE ENERGY PREDICTED BY IDOCK:    3.04 KCAL/MOL
REMARK 922        TOTAL FREE ENERGY PREDICTED BY IDOCK:    3.24 KCAL/MOL
REMARK 923 INTER-LIGAND FREE ENERGY PREDICTED BY IDOCK:    2.73 KCAL/MOL
REMARK 924 INTRA-LIGAND FREE ENERGY PREDICTED BY IDOCK:    0.50 KCAL/MOL
REMARK 927      BINDING AFFINITY PREDICTED BY RF-SCORE:    0.00 PKD
ROOT
HETATM    1  C   UNL     1     -12.242  15.756  68.992  1.00  0.00    -0.050 C  
HETATM    2  C   UNL     1     -13.268  15.548  68.035  1.00  0.00     3.586 C  
HETATM    3  C   UNL     1     -12.941  14.377  68.883  1.00  0.00     1.362 C  
HETATM    4  C   UNL     1     -11.699  14.771  70.468  1.00  0.00    -0.293 C  
HETATM    5  C   UNL     1      -9.167  14.371  66.335  1.00  0.00    -0.242 C  
HETATM    6  O   UNL     1     -11.309  13.964  71.578  1.00  0.00     0.249 OA 
HETATM    7  C   UNL     1     -13.068  14.803  70.478  1.00  0.00    -0.275 C  
HETATM    8  C   UNL     1     -12.993  12.933  70.518  1.00  0.00     0.172 C  
HETATM    9  C   UNL     1     -10.726  14.850  68.382  1.00  0.00    -0.245 C  
HETATM   10  C   UNL     1      -9.177  12.904  66.722  1.00  0.00    -0.230 C  
HETATM   11  H   UNL     1     -10.734  14.146  72.312  1.00  0.00     0.000 HD 
HETATM   12  C   UNL     1     -11.552  12.334  69.758  1.00  0.00    -0.314 C  
HETATM   13  C   UNL     1     -10.330  15.205  66.927  1.00  0.00    -0.272 C  
HETATM   14  C   UNL     1     -10.752  13.135  68.537  1.00  0.00    -0.277 C  
HETATM   15  C   UNL     1      -9.320  12.640  68.211  1.00  0.00    -0.195 C  
HETATM   16  C   UNL     1      -8.973  11.203  68.614  1.00  0.00    -0.162 C  
HETATM   17  C   UNL     1      -9.349  10.102  67.637  1.00  0.00    -0.162 C  
HETATM   18  C   UNL     1      -9.333  10.495  66.183  1.00  0.00    -0.176 C  
HETATM   19  C   UNL     1      -9.198  11.923  65.804  1.00  0.00    -0.110 C  
HETATM   20  O   UNL     1      -9.463   9.656  65.291  1.00  0.00    -0.250 OA 
ENDROOT
BRANCH   4  21
HETATM   21  C   UNL     1     -11.226  16.154  71.034  1.00  0.00    -0.297 C  
HETATM   22  C   UNL     1     -10.806  17.210  71.412  1.00  0.00     1.586 C  
ENDBRANCH   4  21
BRANCH   7  23
HETATM   23  C   UNL     1     -14.070  15.410  71.424  1.00  0.00    -0.539 C  
HETATM   24  C   UNL     1     -14.232  14.524  72.658  1.00  0.00    -0.132 C  
ENDBRANCH   7  23
TORSDOF 2
ENDMDL
MODEL      131
REMARK 921   NORMALIZED FREE ENERGY PREDICTED BY IDOCK:    3.97 KCAL/MOL
REMARK 922        TOTAL FREE ENERGY PREDICTED BY IDOCK:    4.28 KCAL/MOL
REMARK 923 INTER-LIGAND FREE ENERGY PREDICTED BY IDOCK:    3.41 KCAL/MOL
REMARK 924 INTRA-LIGAND FREE ENERGY PREDICTED BY IDOCK:    0.86 KCAL/MOL
REMARK 927      BINDING AFFINITY PREDICTED BY RF-SCORE:    0.00 PKD
ROOT
HETATM    1  C   UNL     1     -11.042  15.041  65.292  1.00  0.00    -0.391 C  
HETATM    2  C   UNL     1      -9.955  15.628  64.595  1.00  0.00     0.904 C  
HETATM    3  C   UNL     1      -9.915  14.151  64.708  1.00  0.00    -0.043 C  
HETATM    4  C   UNL     1     -11.633  13.287  65.424  1.00  0.00    -0.321 C  
HETATM    5  C   UNL     1      -8.975  15.134  69.054  1.00  0.00    -0.219 C  
HETATM    6  O   UNL     1     -12.031  11.919  65.508  1.00  0.00    -0.399 OA 
HETATM    7  C   UNL     1     -11.323  13.517  64.111  1.00  0.00    -0.370 C  
HETATM    8  C   UNL     1     -10.185  12.036  64.243  1.00  0.00    -0.347 C  
HETATM    9  C   UNL     1     -10.394  14.483  66.954  1.00  0.00    -0.264 C  
HETATM   10  C   UNL     1      -8.326  13.764  68.989  1.00  0.00     0.229 C  
HETATM   11  H   UNL     1     -12.826  11.519  65.840  1.00  0.00     0.000 HD 
HETATM   12  C   UNL     1      -9.604  11.819  65.864  1.00  0.00    -0.249 C  
HETATM   13  C   UNL     1      -9.650  15.593  67.738  1.00  0.00    -0.209 C  
HETATM   14  C   UNL     1      -9.414  13.067  66.950  1.00  0.00    -0.242 C  
HETATM   15  C   UNL     1      -9.214  12.665  68.433  1.00  0.00    -0.135 C  
HETATM   16  C   UNL     1      -8.684  11.253  68.705  1.00  0.00    -0.105 C  
HETATM   17  C   UNL     1      -7.178  11.063  68.670  1.00  0.00    -0.091 C  
HETATM   18  C   UNL     1      -6.365  12.259  69.089  1.00  0.00    -0.095 C  
HETATM   19  C   UNL     1      -7.026  13.575  69.273  1.00  0.00    -0.008 C  
HETATM   20  O   UNL     1      -5.147  12.181  69.255  1.00  0.00    -0.059 OA 
ENDROOT
BRANCH   4  21
HETATM   21  C   UNL     1     -13.041  13.933  65.659  1.00  0.00    -0.205 C  
HETATM   22  C   UNL     1     -14.150  14.365  65.799  1.00  0.00     3.985 C  
ENDBRANCH   4  21
BRANCH   7  23
HETATM   23  C   UNL     1     -12.154  13.558  62.855  1.00  0.00     0.614 C  
HETATM   24  C   UNL     1     -13.365  12.637  62.997  1.00  0.00     1.433 C  
ENDBRANCH   7  23
TORSDOF 2
ENDMDL
MODEL      132
REMARK 921   NORMALIZED FREE ENERGY PREDICTED BY IDOCK:    4.01 KCAL/MOL
REMARK 922        TOTAL FREE ENERGY PREDICTED BY IDOCK:    4.32 KCAL/MOL
REMARK 923 INTER-LIGAND FREE ENERGY PREDICTED BY IDOCK:    3.86 KCAL/MOL
REMARK 924 INTRA-LIGAND FREE ENERGY PREDICTED BY IDOCK:    0.46 KCAL/MOL
REMARK 927      BINDING AFFINITY PREDICTED BY RF-SCORE:    0.00 PKD
ROOT
HETATM    1  C   UNL     1     -10.534  18.071  66.585  1.00  0.00    -0.332 C  
HETATM    2  C   UNL     1     -11.657  17.501  67.238  1.00  0.00     1.230 C  
HETATM    3  C   UNL     1     -10.516  17.847  68.118  1.00  0.00    -0.380 C  
HETATM    4  C   UNL     1      -9.037  18.959  67.231  1.00  0.00    -0.280 C  
HETATM    5  C   UNL     1      -8.631  14.262  66.037  1.00  0.00     0.865 C  
HETATM    6  O   UNL     1      -7.897  19.616  67.783  1.00  0.00    -0.275 OA 
HETATM    7  C   UNL     1     -10.125  19.442  67.909  1.00  0.00    -0.503 C  
HETATM    8  C   UNL     1      -9.215  18.959  69.473  1.00  0.00     0.328 C  
HETATM    9  C   UNL     1      -9.197  16.766  66.545  1.00  0.00    -0.294 C  
HETATM   10  C   UNL     1      -7.819  14.228  67.319  1.00  0.00    -0.170 C  
HETATM   11  H   UNL     1      -7.213  20.130  67.372  1.00  0.00     0.000 HD 
HETATM   12  C   UNL     1      -8.138  17.625  69.200  1.00  0.00     0.057 C  
HETATM   13  C   UNL     1      -9.665  15.411  65.956  1.00  0.00    -0.370 C  
HETATM   14  C   UNL     1      -8.387  16.463  68.034  1.00  0.00    -0.178 C  
HETATM   15  C   UNL     1      -7.179  15.551  67.702  1.00  0.00    -0.203 C  
HETATM   16  C   UNL     1      -6.093  15.417  68.774  1.00  0.00    -0.098 C  
HETATM   17  C   UNL     1      -6.315  14.373  69.855  1.00  0.00    -0.155 C  
HETATM   18  C   UNL     1      -7.098  13.158  69.429  1.00  0.00     0.166 C  
HETATM   19  C   UNL     1      -7.790  13.147  68.117  1.00  0.00    -0.145 C  
HETATM   20  O   UNL     1      -7.206  12.176  70.163  1.00  0.00     0.603 OA 
ENDROOT
BRANCH   4  21
HETATM   21  C   UNL     1      -9.041  19.674  65.836  1.00  0.00    -0.140 C  
HETATM   22  C   UNL     1      -8.968  20.244  64.785  1.00  0.00     2.239 C  
ENDBRANCH   4  21
BRANCH   7  23
HETATM   23  C   UNL     1     -10.781  20.797  67.959  1.00  0.00     0.633 C  
HETATM   24  C   UNL     1     -10.757  21.339  69.387  1.00  0.00     1.263 C  
ENDBRANCH   7  23
TORSDOF 2
ENDMDL
MODEL      133
REMARK 921   NORMALIZED FREE ENERGY PREDICTED BY IDOCK:    4.62 KCAL/MOL
REMARK 922        TOTAL FREE ENERGY PREDICTED BY IDOCK:    5.00 KCAL/MOL
REMARK 923 INTER-LIGAND FREE ENERGY PREDICTED BY IDOCK:    4.82 KCAL/MOL
REMARK 924 INTRA-LIGAND FREE ENERGY PREDICTED BY IDOCK:    0.17 KCAL/MOL
REMARK 927      BINDING AFFINITY PREDICTED BY RF-SCORE:    0.00 PKD
ROOT
HETATM    1  C   UNL     1      -9.621   6.169  66.590  1.00  0.00    -0.181 C  
HETATM    2  C   UNL     1      -8.482   5.646  65.926  1.00  0.00    -0.136 C  
HETATM    3  C   UNL     1      -8.219   6.279  67.240  1.00  0.00    -0.109 C  
HETATM    4  C   UNL     1      -9.891   6.739  68.336  1.00  0.00    -0.136 C  
HETATM    5  C   UNL     1      -9.102  10.076  64.886  1.00  0.00    -0.265 C  
HETATM    6  O   UNL     1     -10.037   7.184  69.684  1.00  0.00    -0.185 OA 
HETATM    7  C   UNL     1      -9.176   5.573  68.391  1.00  0.00    -0.124 C  
HETATM    8  C   UNL     1      -7.913   6.533  69.386  1.00  0.00    -0.114 C  
HETATM    9  C   UNL     1      -9.525   8.031  66.465  1.00  0.00    -0.278 C  
HETATM   10  C   UNL     1      -8.236  10.684  65.975  1.00  0.00    -0.158 C  
HETATM   11  H   UNL     1     -10.811   7.397  70.191  1.00  0.00     0.000 HD 
HETATM   12  C   UNL     1      -7.926   8.220  68.977  1.00  0.00    -0.112 C  
HETATM   13  C   UNL     1      -9.330   8.550  65.018  1.00  0.00     0.386 C  
HETATM   14  C   UNL     1      -8.371   8.803  67.482  1.00  0.00    -0.109 C  
HETATM   15  C   UNL     1      -8.649  10.325  67.391  1.00  0.00    -0.125 C  
HETATM   16  C   UNL     1      -8.005  11.214  68.460  1.00  0.00    -0.143 C  
HETATM   17  C   UNL     1      -6.580  11.673  68.209  1.00  0.00    -0.059 C  
HETATM   18  C   UNL     1      -6.204  11.855  66.761  1.00  0.00    -0.044 C  
HETATM   19  C   UNL     1      -7.115  11.369  65.695  1.00  0.00     0.582 C  
HETATM   20  O   UNL     1      -5.136  12.373  66.436  1.00  0.00    -0.157 OA 
ENDROOT
BRANCH   4  21
HETATM   21  C   UNL     1     -11.382   6.325  68.086  1.00  0.00    -0.039 C  
HETATM   22  C   UNL     1     -12.510   6.024  67.816  1.00  0.00     6.643 C  
ENDBRANCH   4  21
BRANCH   7  23
HETATM   23  C   UNL     1      -9.491   4.204  68.935  1.00  0.00    -0.238 C  
HETATM   24  C   UNL     1      -8.198   3.451  69.244  1.00  0.00    -0.076 C  
ENDBRANCH   7  23
TORSDOF 2
ENDMDL
MODEL      134
REMARK 921   NORMALIZED FREE ENERGY PREDICTED BY IDOCK:    4.67 KCAL/MOL
REMARK 922        TOTAL FREE ENERGY PREDICTED BY IDOCK:    5.06 KCAL/MOL
REMARK 923 INTER-LIGAND FREE ENERGY PREDICTED BY IDOCK:    3.08 KCAL/MOL
REMARK 924 INTRA-LIGAND FREE ENERGY PREDICTED BY IDOCK:    1.98 KCAL/MOL
REMARK 927      BINDING AFFINITY PREDICTED BY RF-SCORE:    0.00 PKD
ROOT
HETATM    1  C   UNL     1      -9.811  16.672  67.296  1.00  0.00    -0.255 C  
HETATM    2  C   UNL     1     -10.940  16.621  66.439  1.00  0.00     0.120 C  
HETATM    3  C   UNL     1     -11.180  16.188  67.836  1.00  0.00    -0.245 C  
HETATM    4  C   UNL     1      -9.643  16.568  69.142  1.00  0.00    -0.228 C  
HETATM    5  C   UNL     1      -8.725  12.598  66.486  1.00  0.00    -0.011 C  
HETATM    6  O   UNL     1      -9.570  16.460  70.563  1.00  0.00     1.178 OA 
HETATM    7  C   UNL     1     -10.705  17.389  68.872  1.00  0.00    -0.139 C  
HETATM    8  C   UNL     1     -11.716  16.239  69.951  1.00  0.00    -0.062 C  
HETATM    9  C   UNL     1      -9.259  14.910  67.589  1.00  0.00    -0.187 C  
HETATM   10  C   UNL     1      -9.498  11.931  67.609  1.00  0.00    -0.182 C  
HETATM   11  H   UNL     1      -8.859  16.636  71.167  1.00  0.00     0.000 HD 
HETATM   12  C   UNL     1     -11.078  14.625  69.938  1.00  0.00    -0.238 C  
HETATM   13  C   UNL     1      -9.042  14.100  66.286  1.00  0.00    -0.072 C  
HETATM   14  C   UNL     1     -10.235  13.977  68.657  1.00  0.00    -0.233 C  
HETATM   15  C   UNL     1      -9.456  12.667  68.936  1.00  0.00     0.254 C  
HETATM   16  C   UNL     1      -9.925  11.818  70.122  1.00  0.00     2.313 C  
HETATM   17  C   UNL     1     -11.059  10.840  69.866  1.00  0.00    -0.339 C  
HETATM   18  C   UNL     1     -11.120  10.274  68.471  1.00  0.00    -0.242 C  
HETATM   19  C   UNL     1     -10.269  10.849  67.401  1.00  0.00    -0.236 C  
HETATM   20  O   UNL     1     -11.890   9.357  68.185  1.00  0.00     0.893 OA 
ENDROOT
BRANCH   4  21
HETATM   21  C   UNL     1      -8.356  17.436  68.928  1.00  0.00    -0.160 C  
HETATM   22  C   UNL     1      -7.371  18.075  68.687  1.00  0.00    -0.286 C  
ENDBRANCH   4  21
BRANCH   7  23
HETATM   23  C   UNL     1     -10.953  18.855  69.115  1.00  0.00     1.478 C  
HETATM   24  C   UNL     1      -9.641  19.559  69.458  1.00  0.00    -0.039 C  
ENDBRANCH   7  23
TORSDOF 2
ENDMDL
MODEL      135
REMARK 921   NORMALIZED FREE ENERGY PREDICTED BY IDOCK:    5.17 KCAL/MOL
REMARK 922        TOTAL FREE ENERGY PREDICTED BY IDOCK:    5.62 KCAL/MOL
REMARK 923 INTER-LIGAND FREE ENERGY PREDICTED BY IDOCK:    5.72 KCAL/MOL
REMARK 924 INTRA-LIGAND FREE ENERGY PREDICTED BY IDOCK:   -0.10 KCAL/MOL
REMARK 927      BINDING AFFINITY PREDICTED BY RF-SCORE:    0.00 PKD
ROOT
HETATM    1  C   UNL     1      -7.429  14.961  69.043  1.00  0.00    -0.144 C  
HETATM    2  C   UNL     1      -8.172  14.895  70.250  1.00  0.00     0.849 C  
HETATM    3  C   UNL     1      -8.974  14.848  69.005  1.00  0.00    -0.174 C  
HETATM    4  C   UNL     1      -7.890  14.616  67.278  1.00  0.00    -0.186 C  
HETATM    5  C   UNL     1      -7.766  19.234  68.801  1.00  0.00    -0.397 C  
HETATM    6  O   UNL     1      -8.304  14.359  65.937  1.00  0.00     0.432 OA 
HETATM    7  C   UNL     1      -8.426  13.616  68.044  1.00  0.00    -0.174 C  
HETATM    8  C   UNL     1     -10.073  14.078  67.284  1.00  0.00    -0.249 C  
HETATM    9  C   UNL     1      -7.701  16.662  68.320  1.00  0.00    -0.183 C  
HETATM   10  C   UNL     1      -9.038  19.314  67.977  1.00  0.00    -0.368 C  
HETATM   11  H   UNL     1      -7.802  14.252  65.138  1.00  0.00     0.000 HD 
HETATM   12  C   UNL     1     -10.120  15.752  66.827  1.00  0.00    -0.276 C  
HETATM   13  C   UNL     1      -7.415  17.816  69.314  1.00  0.00     0.019 C  
HETATM   14  C   UNL     1      -9.234  16.940  67.586  1.00  0.00    -0.228 C  
HETATM   15  C   UNL     1      -9.131  18.300  66.851  1.00  0.00    -0.282 C  
HETATM   16  C   UNL     1     -10.226  18.621  65.828  1.00  0.00    -0.135 C  
HETATM   17  C   UNL     1     -11.506  19.243  66.358  1.00  0.00     0.793 C  
HETATM   18  C   UNL     1     -11.344  20.114  67.577  1.00  0.00     0.903 C  
HETATM   19  C   UNL     1     -10.054  20.127  68.310  1.00  0.00    -0.471 C  
HETATM   20  O   UNL     1     -12.274  20.798  68.004  1.00  0.00     3.668 OA 
ENDROOT
BRANCH   4  21
HETATM   21  C   UNL     1      -6.372  14.266  67.104  1.00  0.00     0.683 C  
HETATM   22  C   UNL     1      -5.195  14.062  67.017  1.00  0.00     1.190 C  
ENDBRANCH   4  21
BRANCH   7  23
HETATM   23  C   UNL     1      -8.165  12.135  68.121  1.00  0.00    -0.164 C  
HETATM   24  C   UNL     1      -8.699  11.576  69.439  1.00  0.00     0.614 C  
ENDBRANCH   7  23
TORSDOF 2
ENDMDL
MODEL      136
REMARK 921   NORMALIZED FREE ENERGY PREDICTED BY IDOCK:    6.46 KCAL/MOL
REMARK 922        TOTAL FREE ENERGY PREDICTED BY IDOCK:    7.06 KCAL/MOL
REMARK 923 INTER-LIGAND FREE ENERGY PREDICTED BY IDOCK:    7.17 KCAL/MOL
REMARK 924 INTRA-LIGAND FREE ENERGY PREDICTED BY IDOCK:   -0.11 KCAL/MOL
REMARK 927      BINDING AFFINITY PREDICTED BY RF-SCORE:    0.00 PKD
ROOT
HETATM    1  C   UNL     1      -8.213  17.652  67.734  1.00  0.00    -0.225 C  
HETATM    2  C   UNL     1      -8.541  18.600  68.737  1.00  0.00    -0.292 C  
HETATM    3  C   UNL     1      -7.959  17.329  69.228  1.00  0.00     0.113 C  
HETATM    4  C   UNL     1      -7.192  16.103  67.773  1.00  0.00    -0.138 C  
HETATM    5  C   UNL     1     -12.035  15.713  67.997  1.00  0.00     0.115 C  
HETATM    6  O   UNL     1      -6.414  14.910  67.865  1.00  0.00    -0.134 OA 
HETATM    7  C   UNL     1      -6.510  17.061  68.474  1.00  0.00    -0.164 C  
HETATM    8  C   UNL     1      -6.506  15.847  69.899  1.00  0.00    -0.113 C  
HETATM    9  C   UNL     1      -9.487  16.288  67.827  1.00  0.00    -0.221 C  
HETATM   10  C   UNL     1     -11.687  14.670  69.043  1.00  0.00    -0.339 C  
HETATM   11  H   UNL     1      -6.059  14.342  67.191  1.00  0.00     0.000 HD 
HETATM   12  C   UNL     1      -7.874  14.781  69.835  1.00  0.00     0.224 C  
HETATM   13  C   UNL     1     -10.950  16.796  67.778  1.00  0.00    -0.217 C  
HETATM   14  C   UNL     1      -9.333  15.194  69.147  1.00  0.00    -0.215 C  
HETATM   15  C   UNL     1     -10.320  14.031  68.875  1.00  0.00    -0.183 C  
HETATM   16  C   UNL     1     -10.135  12.754  69.702  1.00  0.00     1.215 C  
HETATM   17  C   UNL     1     -10.796  12.715  71.068  1.00  0.00     3.984 C  
HETATM   18  C   UNL     1     -12.072  13.507  71.192  1.00  0.00    -0.066 C  
HETATM   19  C   UNL     1     -12.473  14.437  70.108  1.00  0.00    -0.395 C  
HETATM   20  O   UNL     1     -12.782  13.426  72.195  1.00  0.00    -0.205 OA 
ENDROOT
BRANCH   4  21
HETATM   21  C   UNL     1      -6.936  16.408  66.257  1.00  0.00     0.398 C  
HETATM   22  C   UNL     1      -6.808  16.598  65.081  1.00  0.00     4.373 C  
ENDBRANCH   4  21
BRANCH   7  23
HETATM   23  C   UNL     1      -5.195  17.758  68.241  1.00  0.00    -0.146 C  
HETATM   24  C   UNL     1      -5.179  19.104  68.964  1.00  0.00    -0.199 C  
ENDBRANCH   7  23
TORSDOF 2
ENDMDL
MODEL      137
REMARK 921   NORMALIZED FREE ENERGY PREDICTED BY IDOCK:    6.90 KCAL/MOL
REMARK 922        TOTAL FREE ENERGY PREDICTED BY IDOCK:    7.55 KCAL/MOL
REMARK 923 INTER-LIGAND FREE ENERGY PREDICTED BY IDOCK:    7.02 KCAL/MOL
REMARK 924 INTRA-LIGAND FREE ENERGY PREDICTED BY IDOCK:    0.54 KCAL/MOL
REMARK 927      BINDING AFFINITY PREDICTED BY RF-SCORE:    0.00 PKD
ROOT
HETATM    1  C   UNL     1      -9.257  10.528  64.535  1.00  0.00    -0.278 C  
HETATM    2  C   UNL     1      -9.026  11.830  64.023  1.00  0.00     0.490 C  
HETATM    3  C   UNL     1      -8.360  11.525  65.311  1.00  0.00     0.497 C  
HETATM    4  C   UNL     1      -8.428   9.555  65.881  1.00  0.00    -0.125 C  
HETATM    5  C   UNL     1     -12.629  11.798  66.871  1.00  0.00     2.337 C  
HETATM    6  O   UNL     1      -7.769   8.861  66.939  1.00  0.00    -0.096 OA 
HETATM    7  C   UNL     1      -7.444  10.156  65.144  1.00  0.00    -0.141 C  
HETATM    8  C   UNL     1      -6.851  10.897  66.758  1.00  0.00    -0.121 C  
HETATM    9  C   UNL     1     -10.421  10.705  65.987  1.00  0.00    -0.250 C  
HETATM   10  C   UNL     1     -11.899  12.133  68.158  1.00  0.00    -0.362 C  
HETATM   11  H   UNL     1      -7.801   7.949  67.204  1.00  0.00     0.000 HD 
HETATM   12  C   UNL     1      -8.153  11.093  67.888  1.00  0.00    -0.119 C  
HETATM   13  C   UNL     1     -11.707  11.505  65.661  1.00  0.00     0.172 C  
HETATM   14  C   UNL     1      -9.738  11.334  67.436  1.00  0.00    -0.190 C  
HETATM   15  C   UNL     1     -10.806  11.152  68.544  1.00  0.00    -0.243 C  
HETATM   16  C   UNL     1     -10.335  11.300  69.994  1.00  0.00     0.723 C  
HETATM   17  C   UNL     1     -10.288  12.706  70.565  1.00  0.00     3.779 C  
HETATM   18  C   UNL     1     -11.311  13.663  70.011  1.00  0.00     0.013 C  
HETATM   19  C   UNL     1     -12.114  13.281  68.823  1.00  0.00    -0.254 C  
HETATM   20  O   UNL     1     -11.479  14.779  70.504  1.00  0.00    -0.270 OA 
ENDROOT
BRANCH   4  21
HETATM   21  C   UNL     1      -8.887   8.303  65.058  1.00  0.00     0.026 C  
HETATM   22  C   UNL     1      -9.228   7.389  64.361  1.00  0.00     1.573 C  
ENDBRANCH   4  21
BRANCH   7  23
HETATM   23  C   UNL     1      -6.348   9.612  64.264  1.00  0.00    -0.105 C  
HETATM   24  C   UNL     1      -5.380   8.768  65.092  1.00  0.00    -0.038 C  
ENDBRANCH   7  23
TORSDOF 2
ENDMDL
MODEL      138
REMARK 921   NORMALIZED FREE ENERGY PREDICTED BY IDOCK:    8.29 KCAL/MOL
REMARK 922        TOTAL FREE ENERGY PREDICTED BY IDOCK:    9.10 KCAL/MOL
REMARK 923 INTER-LIGAND FREE ENERGY PREDICTED BY IDOCK:    8.67 KCAL/MOL
REMARK 924 INTRA-LIGAND FREE ENERGY PREDICTED BY IDOCK:    0.44 KCAL/MOL
REMARK 927      BINDING AFFINITY PREDICTED BY RF-SCORE:    0.00 PKD
ROOT
HETATM    1  C   UNL     1     -12.551  15.577  70.490  1.00  0.00    -0.462 C  
HETATM    2  C   UNL     1     -13.830  15.836  69.935  1.00  0.00     2.188 C  
HETATM    3  C   UNL     1     -13.340  14.446  69.785  1.00  0.00     1.151 C  
HETATM    4  C   UNL     1     -11.653  13.996  70.862  1.00  0.00     0.084 C  
HETATM    5  C   UNL     1     -10.526  16.423  66.801  1.00  0.00    -0.273 C  
HETATM    6  O   UNL     1     -11.000  12.752  71.107  1.00  0.00     2.174 OA 
HETATM    7  C   UNL     1     -12.949  13.838  71.274  1.00  0.00    -0.409 C  
HETATM    8  C   UNL     1     -12.991  12.327  70.169  1.00  0.00     0.578 C  
HETATM    9  C   UNL     1     -11.355  15.406  69.065  1.00  0.00    -0.324 C  
HETATM   10  C   UNL     1     -10.515  15.021  66.222  1.00  0.00    -0.309 C  
HETATM   11  H   UNL     1     -10.219  12.543  71.605  1.00  0.00     0.000 HD 
HETATM   12  C   UNL     1     -11.891  12.479  68.835  1.00  0.00    -0.346 C  
HETATM   13  C   UNL     1     -11.396  16.593  68.070  1.00  0.00    -0.052 C  
HETATM   14  C   UNL     1     -11.447  13.939  68.168  1.00  0.00    -0.346 C  
HETATM   15  C   UNL     1     -10.218  13.920  67.225  1.00  0.00    -0.249 C  
HETATM   16  C   UNL     1      -9.862  12.579  66.575  1.00  0.00    -0.251 C  
HETATM   17  C   UNL     1     -10.588  12.220  65.290  1.00  0.00    -0.322 C  
HETATM   18  C   UNL     1     -10.988  13.387  64.425  1.00  0.00    -0.395 C  
HETATM   19  C   UNL     1     -10.878  14.770  64.952  1.00  0.00    -0.433 C  
HETATM   20  O   UNL     1     -11.437  13.220  63.291  1.00  0.00    -0.202 OA 
ENDROOT
BRANCH   4  21
HETATM   21  C   UNL     1     -10.940  14.834  71.978  1.00  0.00     0.807 C  
HETATM   22  C   UNL     1     -10.344  15.413  72.842  1.00  0.00     3.563 C  
ENDBRANCH   4  21
BRANCH   7  23
HETATM   23  C   UNL     1     -13.575  13.640  72.629  1.00  0.00    -0.596 C  
HETATM   24  C   UNL     1     -13.217  12.259  73.177  1.00  0.00     3.093 C  
ENDBRANCH   7  23
TORSDOF 2
ENDMDL
MODEL      139
REMARK 921   NORMALIZED FREE ENERGY PREDICTED BY IDOCK:    8.87 KCAL/MOL
REMARK 922        TOTAL FREE ENERGY PREDICTED BY IDOCK:    9.75 KCAL/MOL
REMARK 923 INTER-LIGAND FREE ENERGY PREDICTED BY IDOCK:    9.35 KCAL/MOL
REMARK 924 INTRA-LIGAND FREE ENERGY PREDICTED BY IDOCK:    0.40 KCAL/MOL
REMARK 927      BINDING AFFINITY PREDICTED BY RF-SCORE:    0.00 PKD
ROOT
HETATM    1  C   UNL     1     -11.647   8.894  69.604  1.00  0.00     0.391 C  
HETATM    2  C   UNL     1     -12.623   8.113  68.934  1.00  0.00     4.842 C  
HETATM    3  C   UNL     1     -11.624   7.349  69.718  1.00  0.00     0.124 C  
HETATM    4  C   UNL     1     -10.422   8.482  70.936  1.00  0.00    -0.203 C  
HETATM    5  C   UNL     1      -8.884   8.660  66.325  1.00  0.00    -0.187 C  
HETATM    6  O   UNL     1      -9.486   8.105  71.945  1.00  0.00    -0.163 OA 
HETATM    7  C   UNL     1     -11.613   7.900  71.279  1.00  0.00    -0.304 C  
HETATM    8  C   UNL     1     -10.665   6.288  71.366  1.00  0.00    -0.297 C  
HETATM    9  C   UNL     1     -10.039   8.683  68.674  1.00  0.00    -0.207 C  
HETATM   10  C   UNL     1      -8.128   7.417  66.756  1.00  0.00    -0.123 C  
HETATM   11  H   UNL     1      -8.930   8.629  72.509  1.00  0.00     0.000 HD 
HETATM   12  C   UNL     1      -9.296   6.293  70.299  1.00  0.00    -0.170 C  
HETATM   13  C   UNL     1     -10.157   8.963  67.154  1.00  0.00    -0.316 C  
HETATM   14  C   UNL     1      -9.227   7.181  68.892  1.00  0.00    -0.137 C  
HETATM   15  C   UNL     1      -7.829   7.336  68.242  1.00  0.00    -0.122 C  
HETATM   16  C   UNL     1      -6.776   6.281  68.599  1.00  0.00    -0.061 C  
HETATM   17  C   UNL     1      -6.780   5.000  67.784  1.00  0.00    -0.055 C  
HETATM   18  C   UNL     1      -7.241   5.142  66.357  1.00  0.00    -0.077 C  
HETATM   19  C   UNL     1      -7.869   6.409  65.905  1.00  0.00    -0.102 C  
HETATM   20  O   UNL     1      -7.138   4.215  65.554  1.00  0.00    -0.061 OA 
ENDROOT
BRANCH   4  21
HETATM   21  C   UNL     1     -10.550   9.996  71.320  1.00  0.00     0.291 C  
HETATM   22  C   UNL     1     -10.666  11.130  71.688  1.00  0.00     4.871 C  
ENDBRANCH   4  21
BRANCH   7  23
HETATM   23  C   UNL     1     -12.571   8.125  72.420  1.00  0.00    -0.268 C  
HETATM   24  C   UNL     1     -12.987   6.787  73.028  1.00  0.00     1.680 C  
ENDBRANCH   7  23
TORSDOF 2
ENDMDL
MODEL      140
REMARK 921   NORMALIZED FREE ENERGY PREDICTED BY IDOCK:   10.79 KCAL/MOL
REMARK 922        TOTAL FREE ENERGY PREDICTED BY IDOCK:   11.89 KCAL/MOL
REMARK 923 INTER-LIGAND FREE ENERGY PREDICTED BY IDOCK:   10.90 KCAL/MOL
REMARK 924 INTRA-LIGAND FREE ENERGY PREDICTED BY IDOCK:    0.99 KCAL/MOL
REMARK 927      BINDING AFFINITY PREDICTED BY RF-SCORE:    0.00 PKD
ROOT
HETATM    1  C   UNL     1     -11.986  12.713  69.421  1.00  0.00    -0.318 C  
HETATM    2  C   UNL     1     -11.465  11.632  70.177  1.00  0.00    -0.206 C  
HETATM    3  C   UNL     1     -10.454  12.521  69.558  1.00  0.00     0.501 C  
HETATM    4  C   UNL     1     -11.198  14.252  68.744  1.00  0.00    -0.262 C  
HETATM    5  C   UNL     1     -11.904  10.482  65.753  1.00  0.00     2.526 C  
HETATM    6  O   UNL     1     -10.537  15.406  68.229  1.00  0.00    -0.243 OA 
HETATM    7  C   UNL     1     -10.739  14.084  70.023  1.00  0.00     0.376 C  
HETATM    8  C   UNL     1      -9.018  14.142  69.287  1.00  0.00     0.357 C  
HETATM    9  C   UNL     1     -11.707  12.308  67.617  1.00  0.00    -0.403 C  
HETATM   10  C   UNL     1     -10.515  10.872  65.283  1.00  0.00    -0.299 C  
HETATM   11  H   UNL     1     -10.881  16.208  67.852  1.00  0.00     0.000 HD 
HETATM   12  C   UNL     1      -9.006  13.578  67.645  1.00  0.00    -0.200 C  
HETATM   13  C   UNL     1     -12.242  10.915  67.201  1.00  0.00     2.068 C  
HETATM   14  C   UNL     1     -10.092  12.467  67.044  1.00  0.00    -0.222 C  
HETATM   15  C   UNL     1     -10.155  12.331  65.502  1.00  0.00    -0.279 C  
HETATM   16  C   UNL     1      -8.921  12.781  64.713  1.00  0.00     1.470 C  
HETATM   17  C   UNL     1      -7.801  11.770  64.546  1.00  0.00     2.219 C  
HETATM   18  C   UNL     1      -8.234  10.328  64.494  1.00  0.00    -0.158 C  
HETATM   19  C   UNL     1      -9.631   9.963  64.836  1.00  0.00    -0.356 C  
HETATM   20  O   UNL     1      -7.443   9.430  64.203  1.00  0.00    -0.106 OA 
ENDROOT
BRANCH   4  21
HETATM   21  C   UNL     1     -12.634  14.868  68.874  1.00  0.00     0.260 C  
HETATM   22  C   UNL     1     -13.753  15.292  68.911  1.00  0.00     4.372 C  
ENDBRANCH   4  21
BRANCH   7  23
HETATM   23  C   UNL     1     -10.907  14.890  71.285  1.00  0.00     0.215 C  
HETATM   24  C   UNL     1     -12.353  14.808  71.771  1.00  0.00    -0.414 C  
ENDBRANCH   7  23
TORSDOF 2
ENDMDL
MODEL      141
REMARK 921   NORMALIZED FREE ENERGY PREDICTED BY IDOCK:   10.87 KCAL/MOL
REMARK 922        TOTAL FREE ENERGY PREDICTED BY IDOCK:   11.98 KCAL/MOL
REMARK 923 INTER-LIGAND FREE ENERGY PREDICTED BY IDOCK:   10.42 KCAL/MOL
REMARK 924 INTRA-LIGAND FREE ENERGY PREDICTED BY IDOCK:    1.56 KCAL/MOL
REMARK 927      BINDING AFFINITY PREDICTED BY RF-SCORE:    0.00 PKD
ROOT
HETATM    1  C   UNL     1      -6.442  17.873  68.346  1.00  0.00    -0.198 C  
HETATM    2  C   UNL     1      -5.726  17.400  69.475  1.00  0.00    -0.217 C  
HETATM    3  C   UNL     1      -6.699  16.446  68.893  1.00  0.00    -0.174 C  
HETATM    4  C   UNL     1      -7.490  17.004  67.084  1.00  0.00    -0.173 C  
HETATM    5  C   UNL     1      -9.693  19.339  70.738  1.00  0.00     1.964 C  
HETATM    6  O   UNL     1      -8.302  16.289  66.154  1.00  0.00    -0.320 OA 
HETATM    7  C   UNL     1      -6.371  16.241  67.283  1.00  0.00    -0.214 C  
HETATM    8  C   UNL     1      -7.544  14.837  67.684  1.00  0.00    -0.193 C  
HETATM    9  C   UNL     1      -8.190  18.223  68.909  1.00  0.00    -0.177 C  
HETATM   10  C   UNL     1     -10.564  18.096  70.721  1.00  0.00     2.242 C  
HETATM   11  H   UNL     1      -8.668  16.547  65.316  1.00  0.00     0.000 HD 
HETATM   12  C   UNL     1      -9.045  15.423  68.328  1.00  0.00    -0.187 C  
HETATM   13  C   UNL     1      -8.272  19.141  70.154  1.00  0.00     1.351 C  
HETATM   14  C   UNL     1      -9.191  16.848  69.177  1.00  0.00    -0.105 C  
HETATM   15  C   UNL     1     -10.631  17.383  69.382  1.00  0.00     0.005 C  
HETATM   16  C   UNL     1     -11.771  16.364  69.288  1.00  0.00     0.005 C  
HETATM   17  C   UNL     1     -12.107  15.585  70.548  1.00  0.00    -0.423 C  
HETATM   18  C   UNL     1     -11.862  16.314  71.843  1.00  0.00    -0.462 C  
HETATM   19  C   UNL     1     -11.115  17.596  71.841  1.00  0.00     2.226 C  
HETATM   20  O   UNL     1     -12.242  15.853  72.920  1.00  0.00    -0.411 OA 
ENDROOT
BRANCH   4  21
HETATM   21  C   UNL     1      -7.057  18.173  66.134  1.00  0.00    -0.316 C  
HETATM   22  C   UNL     1      -6.803  19.090  65.406  1.00  0.00    -0.218 C  
ENDBRANCH   4  21
BRANCH   7  23
HETATM   23  C   UNL     1      -5.220  15.859  66.389  1.00  0.00     1.709 C  
HETATM   24  C   UNL     1      -5.407  16.471  65.002  1.00  0.00     4.700 C  
ENDBRANCH   7  23
TORSDOF 2
ENDMDL
MODEL      142
REMARK 921   NORMALIZED FREE ENERGY PREDICTED BY IDOCK:   13.26 KCAL/MOL
REMARK 922        TOTAL FREE ENERGY PREDICTED BY IDOCK:   14.65 KCAL/MOL
REMARK 923 INTER-LIGAND FREE ENERGY PREDICTED BY IDOCK:   14.51 KCAL/MOL
REMARK 924 INTRA-LIGAND FREE ENERGY PREDICTED BY IDOCK:    0.14 KCAL/MOL
REMARK 927      BINDING AFFINITY PREDICTED BY RF-SCORE:    0.00 PKD
ROOT
HETATM    1  C   UNL     1     -12.140  13.355  69.596  1.00  0.00    -0.349 C  
HETATM    2  C   UNL     1     -13.446  12.826  69.756  1.00  0.00     2.564 C  
HETATM    3  C   UNL     1     -12.469  11.923  69.103  1.00  0.00     0.263 C  
HETATM    4  C   UNL     1     -10.519  12.558  69.165  1.00  0.00     0.110 C  
HETATM    5  C   UNL     1     -12.988  14.868  65.668  1.00  0.00     0.521 C  
HETATM    6  O   UNL     1      -9.305  11.898  68.810  1.00  0.00    -0.370 OA 
HETATM    7  C   UNL     1     -11.143  11.751  70.078  1.00  0.00     0.154 C  
HETATM    8  C   UNL     1     -10.954  10.379  68.818  1.00  0.00    -0.287 C  
HETATM    9  C   UNL     1     -11.923  13.750  67.782  1.00  0.00    -0.391 C  
HETATM   10  C   UNL     1     -12.555  13.658  64.862  1.00  0.00    -0.380 C  
HETATM   11  H   UNL     1      -8.402  12.192  68.838  1.00  0.00     0.000 HD 
HETATM   12  C   UNL     1     -10.924  10.999  67.197  1.00  0.00    -0.344 C  
HETATM   13  C   UNL     1     -13.052  14.637  67.198  1.00  0.00     2.345 C  
HETATM   14  C   UNL     1     -11.688  12.405  66.734  1.00  0.00    -0.430 C  
HETATM   15  C   UNL     1     -11.286  12.985  65.354  1.00  0.00    -0.327 C  
HETATM   16  C   UNL     1     -10.678  12.009  64.341  1.00  0.00    -0.369 C  
HETATM   17  C   UNL     1     -11.645  11.208  63.487  1.00  0.00     0.357 C  
HETATM   18  C   UNL     1     -12.950  11.892  63.174  1.00  0.00     0.131 C  
HETATM   19  C   UNL     1     -13.315  13.147  63.877  1.00  0.00     1.367 C  
HETATM   20  O   UNL     1     -13.746  11.416  62.364  1.00  0.00     1.506 OA 
ENDROOT
BRANCH   4  21
HETATM   21  C   UNL     1      -9.889  13.737  69.984  1.00  0.00     1.776 C  
HETATM   22  C   UNL     1      -9.472  14.636  70.658  1.00  0.00     1.854 C  
ENDBRANCH   4  21
BRANCH   7  23
HETATM   23  C   UNL     1     -10.806  11.354  71.492  1.00  0.00     4.530 C  
HETATM   24  C   UNL     1     -11.574  10.092  71.880  1.00  0.00     0.278 C  
ENDBRANCH   7  23
TORSDOF 2
ENDMDL
MODEL      143
REMARK 921   NORMALIZED FREE ENERGY PREDICTED BY IDOCK:   14.50 KCAL/MOL
REMARK 922        TOTAL FREE ENERGY PREDICTED BY IDOCK:   16.03 KCAL/MOL
REMARK 923 INTER-LIGAND FREE ENERGY PREDICTED BY IDOCK:   14.20 KCAL/MOL
REMARK 924 INTRA-LIGAND FREE ENERGY PREDICTED BY IDOCK:    1.84 KCAL/MOL
REMARK 927      BINDING AFFINITY PREDICTED BY RF-SCORE:    0.00 PKD
ROOT
HETATM    1  C   UNL     1      -7.092   5.063  68.507  1.00  0.00    -0.058 C  
HETATM    2  C   UNL     1      -7.028   5.989  69.579  1.00  0.00    -0.067 C  
HETATM    3  C   UNL     1      -8.391   5.674  69.090  1.00  0.00    -0.100 C  
HETATM    4  C   UNL     1      -8.502   4.105  67.772  1.00  0.00    -0.098 C  
HETATM    5  C   UNL     1      -7.011   8.156  65.531  1.00  0.00    -0.063 C  
HETATM    6  O   UNL     1      -9.626   3.411  67.232  1.00  0.00    -0.288 OA 
HETATM    7  C   UNL     1      -8.625   4.035  69.134  1.00  0.00    -0.111 C  
HETATM    8  C   UNL     1     -10.348   4.728  68.896  1.00  0.00     0.016 C  
HETATM    9  C   UNL     1      -7.525   6.030  66.968  1.00  0.00    -0.084 C  
HETATM   10  C   UNL     1      -8.506   8.369  65.386  1.00  0.00    -0.193 C  
HETATM   11  H   UNL     1      -9.678   2.685  66.622  1.00  0.00     0.000 HD 
HETATM   12  C   UNL     1     -10.450   5.712  67.469  1.00  0.00    -0.294 C  
HETATM   13  C   UNL     1      -6.599   7.246  66.714  1.00  0.00    -0.056 C  
HETATM   14  C   UNL     1      -9.161   6.552  66.834  1.00  0.00    -0.144 C  
HETATM   15  C   UNL     1      -9.334   7.096  65.394  1.00  0.00     0.562 C  
HETATM   16  C   UNL     1     -10.769   7.296  64.895  1.00  0.00     6.981 C  
HETATM   17  C   UNL     1     -11.446   8.610  65.247  1.00  0.00     8.406 C  
HETATM   18  C   UNL     1     -10.527   9.797  65.373  1.00  0.00     0.421 C  
HETATM   19  C   UNL     1      -9.056   9.595  65.390  1.00  0.00    -0.265 C  
HETATM   20  O   UNL     1     -10.968  10.939  65.496  1.00  0.00    -0.106 OA 
ENDROOT
BRANCH   4  21
HETATM   21  C   UNL     1      -7.399   3.064  67.380  1.00  0.00    -0.058 C  
HETATM   22  C   UNL     1      -6.598   2.251  67.013  1.00  0.00    -0.039 C  
ENDBRANCH   4  21
BRANCH   7  23
HETATM   23  C   UNL     1      -8.539   2.893  70.112  1.00  0.00    -0.111 C  
HETATM   24  C   UNL     1      -8.003   1.644  69.414  1.00  0.00    -0.055 C  
ENDBRANCH   7  23
TORSDOF 2
ENDMDL
MODEL      144
REMARK 921   NORMALIZED FREE ENERGY PREDICTED BY IDOCK:   14.67 KCAL/MOL
REMARK 922        TOTAL FREE ENERGY PREDICTED BY IDOCK:   16.22 KCAL/MOL
REMARK 923 INTER-LIGAND FREE ENERGY PREDICTED BY IDOCK:   16.09 KCAL/MOL
REMARK 924 INTRA-LIGAND FREE ENERGY PREDICTED BY IDOCK:    0.13 KCAL/MOL
REMARK 927      BINDING AFFINITY PREDICTED BY RF-SCORE:    0.00 PKD
ROOT
HETATM    1  C   UNL     1      -8.423  16.276  69.930  1.00  0.00     0.812 C  
HETATM    2  C   UNL     1      -8.530  17.459  70.705  1.00  0.00     5.572 C  
HETATM    3  C   UNL     1      -9.766  17.045  70.002  1.00  0.00     0.995 C  
HETATM    4  C   UNL     1      -9.702  15.178  69.152  1.00  0.00    -0.232 C  
HETATM    5  C   UNL     1      -7.415  18.438  66.360  1.00  0.00    -0.278 C  
HETATM    6  O   UNL     1     -10.725  14.381  68.558  1.00  0.00    -0.239 OA 
HETATM    7  C   UNL     1     -10.136  15.485  70.414  1.00  0.00     0.076 C  
HETATM    8  C   UNL     1     -11.698  16.115  69.595  1.00  0.00    -0.193 C  
HETATM    9  C   UNL     1      -8.414  16.794  68.134  1.00  0.00    -0.213 C  
HETATM   10  C   UNL     1      -8.816  18.628  65.807  1.00  0.00     0.438 C  
HETATM   11  H   UNL     1     -10.696  13.517  68.165  1.00  0.00     0.000 HD 
HETATM   12  C   UNL     1     -11.392  16.672  67.980  1.00  0.00    -0.052 C  
HETATM   13  C   UNL     1      -7.358  17.879  67.802  1.00  0.00    -0.209 C  
HETATM   14  C   UNL     1      -9.928  17.287  67.478  1.00  0.00    -0.296 C  
HETATM   15  C   UNL     1      -9.724  17.419  65.948  1.00  0.00    -0.087 C  
HETATM   16  C   UNL     1     -10.987  17.499  65.083  1.00  0.00     0.313 C  
HETATM   17  C   UNL     1     -11.617  18.870  64.905  1.00  0.00     3.361 C  
HETATM   18  C   UNL     1     -10.657  20.031  64.935  1.00  0.00     0.986 C  
HETATM   19  C   UNL     1      -9.251  19.818  65.358  1.00  0.00     0.708 C  
HETATM   20  O   UNL     1     -11.021  21.171  64.645  1.00  0.00     1.607 OA 
ENDROOT
BRANCH   4  21
HETATM   21  C   UNL     1      -8.626  14.051  69.324  1.00  0.00     0.420 C  
HETATM   22  C   UNL     1      -7.752  13.237  69.417  1.00  0.00     0.562 C  
ENDBRANCH   4  21
BRANCH   7  23
HETATM   23  C   UNL     1     -10.369  14.651  71.647  1.00  0.00     2.294 C  
HETATM   24  C   UNL     1     -11.309  15.381  72.605  1.00  0.00    -0.256 C  
ENDBRANCH   7  23
TORSDOF 2
ENDMDL
MODEL      145
REMARK 921   NORMALIZED FREE ENERGY PREDICTED BY IDOCK:   15.58 KCAL/MOL
REMARK 922        TOTAL FREE ENERGY PREDICTED BY IDOCK:   17.25 KCAL/MOL
REMARK 923 INTER-LIGAND FREE ENERGY PREDICTED BY IDOCK:   17.08 KCAL/MOL
REMARK 924 INTRA-LIGAND FREE ENERGY PREDICTED BY IDOCK:    0.17 KCAL/MOL
REMARK 927      BINDING AFFINITY PREDICTED BY RF-SCORE:    0.00 PKD
ROOT
HETATM    1  C   UNL     1      -7.666  16.276  66.167  1.00  0.00     0.145 C  
HETATM    2  C   UNL     1      -8.555  16.638  65.123  1.00  0.00     2.577 C  
HETATM    3  C   UNL     1      -7.837  17.763  65.767  1.00  0.00     0.050 C  
HETATM    4  C   UNL     1      -6.325  17.215  67.042  1.00  0.00    -0.185 C  
HETATM    5  C   UNL     1     -10.661  16.780  69.201  1.00  0.00    -0.329 C  
HETATM    6  O   UNL     1      -5.321  17.991  67.695  1.00  0.00    -0.142 OA 
HETATM    7  C   UNL     1      -6.207  17.482  65.704  1.00  0.00     0.098 C  
HETATM    8  C   UNL     1      -6.332  19.290  66.174  1.00  0.00    -0.204 C  
HETATM    9  C   UNL     1      -8.466  16.789  67.776  1.00  0.00    -0.196 C  
HETATM   10  C   UNL     1     -10.400  18.237  69.537  1.00  0.00     0.401 C  
HETATM   11  H   UNL     1      -4.621  17.738  68.285  1.00  0.00     0.000 HD 
HETATM   12  C   UNL     1      -7.249  19.510  67.631  1.00  0.00    -0.273 C  
HETATM   13  C   UNL     1      -9.912  16.260  67.950  1.00  0.00    -0.241 C  
HETATM   14  C   UNL     1      -8.455  18.475  68.126  1.00  0.00    -0.317 C  
HETATM   15  C   UNL     1      -8.933  18.624  69.593  1.00  0.00     0.724 C  
HETATM   16  C   UNL     1      -8.682  19.975  70.271  1.00  0.00     1.374 C  
HETATM   17  C   UNL     1      -9.716  21.064  70.045  1.00  0.00     1.950 C  
HETATM   18  C   UNL     1     -11.129  20.581  69.842  1.00  0.00     2.133 C  
HETATM   19  C   UNL     1     -11.394  19.136  69.637  1.00  0.00     3.847 C  
HETATM   20  O   UNL     1     -12.076  21.367  69.809  1.00  0.00     2.805 OA 
ENDROOT
BRANCH   4  21
HETATM   21  C   UNL     1      -5.682  15.804  67.263  1.00  0.00     0.061 C  
HETATM   22  C   UNL     1      -5.156  14.753  67.500  1.00  0.00     0.202 C  
ENDBRANCH   4  21
BRANCH   7  23
HETATM   23  C   UNL     1      -5.138  17.171  64.689  1.00  0.00     2.338 C  
HETATM   24  C   UNL     1      -5.147  18.221  63.579  1.00  0.00     0.262 C  
ENDBRANCH   7  23
TORSDOF 2
ENDMDL
MODEL      146
REMARK 921   NORMALIZED FREE ENERGY PREDICTED BY IDOCK:   16.01 KCAL/MOL
REMARK 922        TOTAL FREE ENERGY PREDICTED BY IDOCK:   17.72 KCAL/MOL
REMARK 923 INTER-LIGAND FREE ENERGY PREDICTED BY IDOCK:   17.28 KCAL/MOL
REMARK 924 INTRA-LIGAND FREE ENERGY PREDICTED BY IDOCK:    0.44 KCAL/MOL
REMARK 927      BINDING AFFINITY PREDICTED BY RF-SCORE:    0.00 PKD
ROOT
HETATM    1  C   UNL     1     -10.822  18.116  66.596  1.00  0.00    -0.043 C  
HETATM    2  C   UNL     1     -12.191  18.420  66.385  1.00  0.00     4.990 C  
HETATM    3  C   UNL     1     -11.814  18.121  67.786  1.00  0.00     2.128 C  
HETATM    4  C   UNL     1      -9.796  18.002  68.139  1.00  0.00    -0.340 C  
HETATM    5  C   UNL     1     -11.452  13.894  66.130  1.00  0.00    -0.351 C  
HETATM    6  O   UNL     1      -9.060  17.908  69.358  1.00  0.00     0.162 OA 
HETATM    7  C   UNL     1     -10.578  19.121  68.247  1.00  0.00    -0.263 C  
HETATM    8  C   UNL     1     -11.190  18.392  69.860  1.00  0.00     3.128 C  
HETATM    9  C   UNL     1     -10.707  16.278  66.914  1.00  0.00    -0.217 C  
HETATM   10  C   UNL     1     -11.714  13.543  67.583  1.00  0.00    -0.398 C  
HETATM   11  H   UNL     1      -8.126  17.853  69.521  1.00  0.00     0.000 HD 
HETATM   12  C   UNL     1     -11.116  16.658  69.846  1.00  0.00    -0.125 C  
HETATM   13  C   UNL     1     -11.399  15.413  65.830  1.00  0.00    -0.104 C  
HETATM   14  C   UNL     1     -11.237  15.740  68.462  1.00  0.00    -0.354 C  
HETATM   15  C   UNL     1     -10.817  14.254  68.581  1.00  0.00    -0.265 C  
HETATM   16  C   UNL     1     -10.849  13.633  69.982  1.00  0.00     0.490 C  
HETATM   17  C   UNL     1     -12.178  13.077  70.461  1.00  0.00    -0.392 C  
HETATM   18  C   UNL     1     -13.078  12.532  69.382  1.00  0.00     1.853 C  
HETATM   19  C   UNL     1     -12.750  12.771  67.955  1.00  0.00     1.522 C  
HETATM   20  O   UNL     1     -14.106  11.913  69.657  1.00  0.00     4.808 OA 
ENDROOT
BRANCH   4  21
HETATM   21  C   UNL     1      -8.604  18.394  67.200  1.00  0.00    -0.262 C  
HETATM   22  C   UNL     1      -7.642  18.668  66.540  1.00  0.00    -0.273 C  
ENDBRANCH   4  21
BRANCH   7  23
HETATM   23  C   UNL     1     -10.258  20.592  68.307  1.00  0.00    -0.127 C  
HETATM   24  C   UNL     1      -9.415  20.896  69.545  1.00  0.00     1.713 C  
ENDBRANCH   7  23
TORSDOF 2
ENDMDL
MODEL      147
REMARK 921   NORMALIZED FREE ENERGY PREDICTED BY IDOCK:   18.18 KCAL/MOL
REMARK 922        TOTAL FREE ENERGY PREDICTED BY IDOCK:   20.14 KCAL/MOL
REMARK 923 INTER-LIGAND FREE ENERGY PREDICTED BY IDOCK:   19.66 KCAL/MOL
REMARK 924 INTRA-LIGAND FREE ENERGY PREDICTED BY IDOCK:    0.49 KCAL/MOL
REMARK 927      BINDING AFFINITY PREDICTED BY RF-SCORE:    0.00 PKD
ROOT
HETATM    1  C   UNL     1     -12.514  14.107  64.057  1.00  0.00    -0.206 C  
HETATM    2  C   UNL     1     -12.259  14.996  62.981  1.00  0.00     2.326 C  
HETATM    3  C   UNL     1     -11.058  14.414  63.624  1.00  0.00     1.274 C  
HETATM    4  C   UNL     1     -11.431  12.894  64.951  1.00  0.00    -0.315 C  
HETATM    5  C   UNL     1     -12.265  17.227  66.995  1.00  0.00     3.430 C  
HETATM    6  O   UNL     1     -10.548  11.992  65.618  1.00  0.00    -0.248 OA 
HETATM    7  C   UNL     1     -11.175  12.763  63.613  1.00  0.00    -0.482 C  
HETATM    8  C   UNL     1      -9.381  13.082  64.045  1.00  0.00     1.574 C  
HETATM    9  C   UNL     1     -12.059  15.003  65.633  1.00  0.00     0.107 C  
HETATM   10  C   UNL     1     -10.785  17.123  67.311  1.00  0.00    -0.208 C  
HETATM   11  H   UNL     1     -10.721  11.289  66.232  1.00  0.00     0.000 HD 
HETATM   12  C   UNL     1      -9.232  14.060  65.471  1.00  0.00     0.544 C  
HETATM   13  C   UNL     1     -12.728  16.393  65.776  1.00  0.00     3.968 C  
HETATM   14  C   UNL     1     -10.375  15.171  65.951  1.00  0.00    -0.344 C  
HETATM   15  C   UNL     1     -10.251  15.704  67.401  1.00  0.00    -0.264 C  
HETATM   16  C   UNL     1      -8.872  15.610  68.060  1.00  0.00    -0.169 C  
HETATM   17  C   UNL     1      -7.896  16.741  67.785  1.00  0.00    -0.187 C  
HETATM   18  C   UNL     1      -8.521  18.091  67.551  1.00  0.00    -0.237 C  
HETATM   19  C   UNL     1      -9.989  18.205  67.366  1.00  0.00    -0.329 C  
HETATM   20  O   UNL     1      -7.835  19.111  67.477  1.00  0.00    -0.242 OA 
ENDROOT
BRANCH   4  21
HETATM   21  C   UNL     1     -12.768  12.120  65.217  1.00  0.00     0.539 C  
HETATM   22  C   UNL     1     -13.751  11.488  65.480  1.00  0.00     7.939 C  
ENDBRANCH   4  21
BRANCH   7  23
HETATM   23  C   UNL     1     -11.393  11.638  62.634  1.00  0.00     0.899 C  
HETATM   24  C   UNL     1     -10.087  10.876  62.411  1.00  0.00     0.288 C  
ENDBRANCH   7  23
TORSDOF 2
ENDMDL
MODEL      148
REMARK 921   NORMALIZED FREE ENERGY PREDICTED BY IDOCK:   21.28 KCAL/MOL
REMARK 922        TOTAL FREE ENERGY PREDICTED BY IDOCK:   23.60 KCAL/MOL
REMARK 923 INTER-LIGAND FREE ENERGY PREDICTED BY IDOCK:   23.36 KCAL/MOL
REMARK 924 INTRA-LIGAND FREE ENERGY PREDICTED BY IDOCK:    0.24 KCAL/MOL
REMARK 927      BINDING AFFINITY PREDICTED BY RF-SCORE:    0.00 PKD
ROOT
HETATM    1  C   UNL     1     -11.726   3.225  70.957  1.00  0.00     7.020 C  
HETATM    2  C   UNL     1     -11.482   1.913  70.477  1.00  0.00     5.549 C  
HETATM    3  C   UNL     1     -10.293   2.635  70.987  1.00  0.00     0.774 C  
HETATM    4  C   UNL     1     -10.696   4.390  71.970  1.00  0.00     0.104 C  
HETATM    5  C   UNL     1     -10.871   5.020  67.151  1.00  0.00     0.222 C  
HETATM    6  O   UNL     1      -9.854   5.253  72.733  1.00  0.00    -0.155 OA 
HETATM    7  C   UNL     1     -10.584   3.147  72.534  1.00  0.00    -0.056 C  
HETATM    8  C   UNL     1      -8.734   3.353  72.334  1.00  0.00    -0.101 C  
HETATM    9  C   UNL     1     -11.030   4.412  69.692  1.00  0.00     2.448 C  
HETATM   10  C   UNL     1      -9.386   5.266  67.345  1.00  0.00    -0.122 C  
HETATM   11  H   UNL     1     -10.040   6.065  73.189  1.00  0.00     0.000 HD 
HETATM   12  C   UNL     1      -8.347   4.390  70.997  1.00  0.00    -0.096 C  
HETATM   13  C   UNL     1     -11.533   4.151  68.249  1.00  0.00     7.024 C  
HETATM   14  C   UNL     1      -9.316   4.564  69.654  1.00  0.00    -0.221 C  
HETATM   15  C   UNL     1      -8.999   5.764  68.726  1.00  0.00    -0.116 C  
HETATM   16  C   UNL     1      -7.580   6.339  68.794  1.00  0.00    -0.092 C  
HETATM   17  C   UNL     1      -6.522   5.668  67.936  1.00  0.00    -0.044 C  
HETATM   18  C   UNL     1      -7.021   5.059  66.652  1.00  0.00    -0.067 C  
HETATM   19  C   UNL     1      -8.479   4.934  66.410  1.00  0.00    -0.111 C  
HETATM   20  O   UNL     1      -6.242   4.630  65.801  1.00  0.00    -0.029 OA 
ENDROOT
BRANCH   4  21
HETATM   21  C   UNL     1     -12.075   4.962  72.447  1.00  0.00     0.690 C  
HETATM   22  C   UNL     1     -13.090   5.437  72.871  1.00  0.00     1.210 C  
ENDBRANCH   4  21
BRANCH   7  23
HETATM   23  C   UNL     1     -11.011   2.584  73.864  1.00  0.00    -0.281 C  
HETATM   24  C   UNL     1     -12.222   1.671  73.684  1.00  0.00    -0.187 C  
ENDBRANCH   7  23
TORSDOF 2
ENDMDL
MODEL      149
REMARK 921   NORMALIZED FREE ENERGY PREDICTED BY IDOCK:   24.07 KCAL/MOL
REMARK 922        TOTAL FREE ENERGY PREDICTED BY IDOCK:   26.72 KCAL/MOL
REMARK 923 INTER-LIGAND FREE ENERGY PREDICTED BY IDOCK:   26.71 KCAL/MOL
REMARK 924 INTRA-LIGAND FREE ENERGY PREDICTED BY IDOCK:    0.01 KCAL/MOL
REMARK 927      BINDING AFFINITY PREDICTED BY RF-SCORE:    0.00 PKD
ROOT
HETATM    1  C   UNL     1      -8.944   5.910  64.778  1.00  0.00     0.263 C  
HETATM    2  C   UNL     1      -8.621   5.653  63.422  1.00  0.00     0.097 C  
HETATM    3  C   UNL     1      -7.595   6.395  64.191  1.00  0.00    -0.099 C  
HETATM    4  C   UNL     1      -7.918   6.481  66.216  1.00  0.00    -0.111 C  
HETATM    5  C   UNL     1     -10.673   9.736  63.877  1.00  0.00     3.198 C  
HETATM    6  O   UNL     1      -7.087   6.942  67.280  1.00  0.00    -0.078 OA 
HETATM    7  C   UNL     1      -7.194   5.532  65.546  1.00  0.00    -0.068 C  
HETATM    8  C   UNL     1      -5.842   6.822  65.420  1.00  0.00    -0.035 C  
HETATM    9  C   UNL     1      -9.349   7.730  64.913  1.00  0.00     1.117 C  
HETATM   10  C   UNL     1      -9.432  10.591  64.051  1.00  0.00    -0.337 C  
HETATM   11  H   UNL     1      -7.237   6.982  68.218  1.00  0.00     0.000 HD 
HETATM   12  C   UNL     1      -6.493   8.431  65.421  1.00  0.00    -0.055 C  
HETATM   13  C   UNL     1     -10.415   8.209  63.895  1.00  0.00     8.738 C  
HETATM   14  C   UNL     1      -8.011   8.812  64.853  1.00  0.00    -0.135 C  
HETATM   15  C   UNL     1      -8.558  10.212  65.233  1.00  0.00    -0.169 C  
HETATM   16  C   UNL     1      -7.527  11.284  65.601  1.00  0.00     0.361 C  
HETATM   17  C   UNL     1      -6.908  12.068  64.457  1.00  0.00     4.836 C  
HETATM   18  C   UNL     1      -7.794  12.265  63.255  1.00  0.00     4.030 C  
HETATM   19  C   UNL     1      -9.071  11.518  63.147  1.00  0.00    -0.110 C  
HETATM   20  O   UNL     1      -7.468  13.015  62.334  1.00  0.00     5.637 OA 
ENDROOT
BRANCH   4  21
HETATM   21  C   UNL     1      -8.963   5.699  67.084  1.00  0.00    -0.112 C  
HETATM   22  C   UNL     1      -9.702   5.052  67.770  1.00  0.00    -0.192 C  
ENDBRANCH   4  21
BRANCH   7  23
HETATM   23  C   UNL     1      -6.712   4.156  65.925  1.00  0.00    -0.049 C  
HETATM   24  C   UNL     1      -5.685   3.660  64.908  1.00  0.00    -0.017 C  
ENDBRANCH   7  23
TORSDOF 2
ENDMDL
MODEL      150
REMARK 921   NORMALIZED FREE ENERGY PREDICTED BY IDOCK:   38.22 KCAL/MOL
REMARK 922        TOTAL FREE ENERGY PREDICTED BY IDOCK:   42.53 KCAL/MOL
REMARK 923 INTER-LIGAND FREE ENERGY PREDICTED BY IDOCK:   42.17 KCAL/MOL
REMARK 924 INTRA-LIGAND FREE ENERGY PREDICTED BY IDOCK:    0.36 KCAL/MOL
REMARK 927      BINDING AFFINITY PREDICTED BY RF-SCORE:    0.00 PKD
ROOT
HETATM    1  C   UNL     1     -10.427   5.726  70.426  1.00  0.00    -0.342 C  
HETATM    2  C   UNL     1     -11.303   6.724  70.927  1.00  0.00    -0.363 C  
HETATM    3  C   UNL     1     -11.370   6.493  69.464  1.00  0.00    -0.419 C  
HETATM    4  C   UNL     1     -10.350   4.843  68.795  1.00  0.00     0.021 C  
HETATM    5  C   UNL     1      -7.314   8.560  69.582  1.00  0.00    -0.060 C  
HETATM    6  O   UNL     1     -10.325   4.210  67.517  1.00  0.00     0.026 OA 
HETATM    7  C   UNL     1     -11.665   4.890  69.174  1.00  0.00     5.386 C  
HETATM    8  C   UNL     1     -11.989   5.712  67.523  1.00  0.00     3.707 C  
HETATM    9  C   UNL     1      -9.054   6.606  69.513  1.00  0.00    -0.144 C  
HETATM   10  C   UNL     1      -7.692   8.892  68.150  1.00  0.00    -0.100 C  
HETATM   11  H   UNL     1      -9.853   3.447  67.207  1.00  0.00     0.000 HD 
HETATM   12  C   UNL     1     -10.599   6.586  66.961  1.00  0.00    -0.402 C  
HETATM   13  C   UNL     1      -8.359   7.712  70.348  1.00  0.00    -0.124 C  
HETATM   14  C   UNL     1      -9.461   7.258  67.973  1.00  0.00    -0.139 C  
HETATM   15  C   UNL     1      -8.129   7.701  67.315  1.00  0.00    -0.119 C  
HETATM   16  C   UNL     1      -8.160   7.988  65.810  1.00  0.00    -0.121 C  
HETATM   17  C   UNL     1      -8.591   9.379  65.380  1.00  0.00    -0.176 C  
HETATM   18  C   UNL     1      -8.255  10.486  66.345  1.00  0.00    -0.140 C  
HETATM   19  C   UNL     1      -7.765  10.158  67.706  1.00  0.00    -0.090 C  
HETATM   20  O   UNL     1      -8.408  11.670  66.041  1.00  0.00    -0.049 OA 
ENDROOT
BRANCH   4  21
HETATM   21  C   UNL     1      -9.700   3.681  69.621  1.00  0.00    -0.140 C  
HETATM   22  C   UNL     1      -9.178   2.760  70.183  1.00  0.00    -0.205 C  
ENDBRANCH   4  21
BRANCH   7  23
HETATM   23  C   UNL     1     -12.661   3.824  69.549  1.00  0.00    22.189 C  
HETATM   24  C   UNL     1     -12.676   3.630  71.065  1.00  0.00    13.974 C  
ENDBRANCH   7  23
TORSDOF 2
ENDMDL
MODEL      151
REMARK 921   NORMALIZED FREE ENERGY PREDICTED BY IDOCK:   39.27 KCAL/MOL
REMARK 922        TOTAL FREE ENERGY PREDICTED BY IDOCK:   43.70 KCAL/MOL
REMARK 923 INTER-LIGAND FREE ENERGY PREDICTED BY IDOCK:   43.83 KCAL/MOL
REMARK 924 INTRA-LIGAND FREE ENERGY PREDICTED BY IDOCK:   -0.13 KCAL/MOL
REMARK 927      BINDING AFFINITY PREDICTED BY RF-SCORE:    0.00 PKD
ROOT
HETATM    1  C   UNL     1     -11.701   9.051  68.615  1.00  0.00     1.306 C  
HETATM    2  C   UNL     1     -10.857   8.934  67.481  1.00  0.00    -0.108 C  
HETATM    3  C   UNL     1     -10.940   7.729  68.340  1.00  0.00     0.128 C  
HETATM    4  C   UNL     1     -12.398   7.788  69.783  1.00  0.00     1.398 C  
HETATM    5  C   UNL     1      -8.487  10.332  71.158  1.00  0.00     2.465 C  
HETATM    6  O   UNL     1     -12.888   6.777  70.663  1.00  0.00    -0.456 OA 
HETATM    7  C   UNL     1     -12.527   7.289  68.515  1.00  0.00     4.383 C  
HETATM    8  C   UNL     1     -11.577   5.798  69.132  1.00  0.00     0.897 C  
HETATM    9  C   UNL     1     -10.594   9.181  70.116  1.00  0.00    -0.258 C  
HETATM   10  C   UNL     1      -8.050   8.972  71.672  1.00  0.00     0.014 C  
HETATM   11  H   UNL     1     -13.563   6.804  71.331  1.00  0.00     0.000 HD 
HETATM   12  C   UNL     1     -10.509   6.215  70.435  1.00  0.00    -0.288 C  
HETATM   13  C   UNL     1      -9.514  10.287  70.000  1.00  0.00     0.039 C  
HETATM   14  C   UNL     1      -9.831   7.724  70.625  1.00  0.00    -0.182 C  
HETATM   15  C   UNL     1      -9.186   8.021  72.003  1.00  0.00    -0.229 C  
HETATM   16  C   UNL     1      -8.750   6.815  72.840  1.00  0.00    -0.131 C  
HETATM   17  C   UNL     1      -7.374   6.238  72.557  1.00  0.00    -0.085 C  
HETATM   18  C   UNL     1      -6.343   7.228  72.081  1.00  0.00    -0.043 C  
HETATM   19  C   UNL     1      -6.758   8.600  71.697  1.00  0.00    -0.084 C  
HETATM   20  O   UNL     1      -5.157   6.917  71.971  1.00  0.00    -0.027 OA 
ENDROOT
BRANCH   4  21
HETATM   21  C   UNL     1     -13.565   8.817  69.968  1.00  0.00     2.435 C  
HETATM   22  C   UNL     1     -14.409   9.647  70.155  1.00  0.00     1.910 C  
ENDBRANCH   4  21
BRANCH   7  23
HETATM   23  C   UNL     1     -13.723   6.960  67.662  1.00  0.00    18.715 C  
HETATM   24  C   UNL     1     -13.270   6.493  66.279  1.00  0.00    12.027 C  
ENDBRANCH   7  23
TORSDOF 2
ENDMDL
MODEL      152
REMARK 921   NORMALIZED FREE ENERGY PREDICTED BY IDOCK:   40.01 KCAL/MOL
REMARK 922        TOTAL FREE ENERGY PREDICTED BY IDOCK:   44.53 KCAL/MOL
REMARK 923 INTER-LIGAND FREE ENERGY PREDICTED BY IDOCK:   44.35 KCAL/MOL
REMARK 924 INTRA-LIGAND FREE ENERGY PREDICTED BY IDOCK:    0.18 KCAL/MOL
REMARK 927      BINDING AFFINITY PREDICTED BY RF-SCORE:    0.00 PKD
ROOT
HETATM    1  C   UNL     1      -7.369  14.556  67.669  1.00  0.00    -0.201 C  
HETATM    2  C   UNL     1      -6.772  15.793  68.024  1.00  0.00    -0.144 C  
HETATM    3  C   UNL     1      -8.177  15.615  68.461  1.00  0.00    -0.153 C  
HETATM    4  C   UNL     1      -8.926  13.719  68.234  1.00  0.00    -0.186 C  
HETATM    5  C   UNL     1      -8.969  16.121  64.005  1.00  0.00     9.806 C  
HETATM    6  O   UNL     1     -10.145  13.130  68.688  1.00  0.00    -0.328 OA 
HETATM    7  C   UNL     1      -8.305  14.222  69.345  1.00  0.00     0.329 C  
HETATM    8  C   UNL     1      -9.911  15.121  69.691  1.00  0.00    -0.162 C  
HETATM    9  C   UNL     1      -8.581  14.905  66.290  1.00  0.00     0.127 C  
HETATM   10  C   UNL     1     -10.319  16.579  64.526  1.00  0.00     1.270 C  
HETATM   11  H   UNL     1     -10.492  12.253  68.583  1.00  0.00     0.000 HD 
HETATM   12  C   UNL     1     -10.783  15.456  68.228  1.00  0.00    -0.260 C  
HETATM   13  C   UNL     1      -7.966  15.687  65.102  1.00  0.00     5.357 C  
HETATM   14  C   UNL     1     -10.052  15.674  66.748  1.00  0.00    -0.277 C  
HETATM   15  C   UNL     1     -10.980  15.627  65.507  1.00  0.00    -0.307 C  
HETATM   16  C   UNL     1     -12.465  15.921  65.739  1.00  0.00     1.906 C  
HETATM   17  C   UNL     1     -12.889  17.380  65.739  1.00  0.00     8.773 C  
HETATM   18  C   UNL     1     -12.078  18.288  64.853  1.00  0.00     6.118 C  
HETATM   19  C   UNL     1     -10.818  17.795  64.243  1.00  0.00     3.598 C  
HETATM   20  O   UNL     1     -12.420  19.453  64.644  1.00  0.00     6.431 OA 
ENDROOT
BRANCH   4  21
HETATM   21  C   UNL     1      -8.171  12.394  67.874  1.00  0.00    -0.163 C  
HETATM   22  C   UNL     1      -7.665  11.345  67.591  1.00  0.00    -0.121 C  
ENDBRANCH   4  21
BRANCH   7  23
HETATM   23  C   UNL     1      -7.681  13.571  70.551  1.00  0.00     2.993 C  
HETATM   24  C   UNL     1      -6.172  13.812  70.556  1.00  0.00    -0.058 C  
ENDBRANCH   7  23
TORSDOF 2
ENDMDL
MODEL      153
REMARK 921   NORMALIZED FREE ENERGY PREDICTED BY IDOCK:   61.42 KCAL/MOL
REMARK 922        TOTAL FREE ENERGY PREDICTED BY IDOCK:   68.45 KCAL/MOL
REMARK 923 INTER-LIGAND FREE ENERGY PREDICTED BY IDOCK:   66.41 KCAL/MOL
REMARK 924 INTRA-LIGAND FREE ENERGY PREDICTED BY IDOCK:    2.04 KCAL/MOL
REMARK 927      BINDING AFFINITY PREDICTED BY RF-SCORE:    0.00 PKD
ROOT
HETATM    1  C   UNL     1     -11.250  16.290  69.576  1.00  0.00    -0.308 C  
HETATM    2  C   UNL     1     -12.203  17.157  68.984  1.00  0.00     2.685 C  
HETATM    3  C   UNL     1     -12.004  15.862  68.292  1.00  0.00     0.096 C  
HETATM    4  C   UNL     1     -10.877  14.489  69.319  1.00  0.00    -0.252 C  
HETATM    5  C   UNL     1      -8.041  17.792  67.151  1.00  0.00    -0.229 C  
HETATM    6  O   UNL     1     -10.620  13.109  69.066  1.00  0.00    -0.392 OA 
HETATM    7  C   UNL     1     -12.239  14.624  69.365  1.00  0.00    -0.270 C  
HETATM    8  C   UNL     1     -12.261  13.779  67.694  1.00  0.00    -0.229 C  
HETATM    9  C   UNL     1      -9.735  16.305  68.481  1.00  0.00    -0.224 C  
HETATM   10  C   UNL     1      -8.154  16.815  65.995  1.00  0.00    -0.144 C  
HETATM   11  H   UNL     1     -10.098  12.473  69.542  1.00  0.00     0.000 HD 
HETATM   12  C   UNL     1     -10.794  14.068  66.813  1.00  0.00    -0.294 C  
HETATM   13  C   UNL     1      -9.205  17.728  68.170  1.00  0.00    -0.277 C  
HETATM   14  C   UNL     1      -9.858  15.433  67.001  1.00  0.00    -0.236 C  
HETATM   15  C   UNL     1      -8.431  15.378  66.401  1.00  0.00    -0.169 C  
HETATM   16  C   UNL     1      -8.189  14.368  65.275  1.00  0.00     4.976 C  
HETATM   17  C   UNL     1      -8.539  14.808  63.864  1.00  0.00    11.993 C  
HETATM   18  C   UNL     1      -8.385  16.282  63.590  1.00  0.00    17.461 C  
HETATM   19  C   UNL     1      -8.148  17.222  64.714  1.00  0.00     5.257 C  
HETATM   20  O   UNL     1      -8.482  16.736  62.450  1.00  0.00    22.354 OA 
ENDROOT
BRANCH   4  21
HETATM   21  C   UNL     1     -10.385  14.529  70.807  1.00  0.00     1.110 C  
HETATM   22  C   UNL     1      -9.989  14.637  71.932  1.00  0.00     3.784 C  
ENDBRANCH   4  21
BRANCH   7  23
HETATM   23  C   UNL     1     -13.284  14.130  70.330  1.00  0.00     0.104 C  
HETATM   24  C   UNL     1     -12.650  13.845  71.691  1.00  0.00    -0.387 C  
ENDBRANCH   7  23
TORSDOF 2
ENDMDL
MODEL      154
REMARK 921   NORMALIZED FREE ENERGY PREDICTED BY IDOCK:   67.45 KCAL/MOL
REMARK 922        TOTAL FREE ENERGY PREDICTED BY IDOCK:   75.18 KCAL/MOL
REMARK 923 INTER-LIGAND FREE ENERGY PREDICTED BY IDOCK:   75.28 KCAL/MOL
REMARK 924 INTRA-LIGAND FREE ENERGY PREDICTED BY IDOCK:   -0.11 KCAL/MOL
REMARK 927      BINDING AFFINITY PREDICTED BY RF-SCORE:    0.00 PKD
ROOT
HETATM    1  C   UNL     1     -11.363   7.656  66.913  1.00  0.00     1.066 C  
HETATM    2  C   UNL     1     -10.457   7.477  65.836  1.00  0.00     1.562 C  
HETATM    3  C   UNL     1     -10.704   6.275  66.666  1.00  0.00    -0.286 C  
HETATM    4  C   UNL     1     -12.246   6.447  68.009  1.00  0.00     3.826 C  
HETATM    5  C   UNL     1      -8.231   8.619  69.687  1.00  0.00    -0.114 C  
HETATM    6  O   UNL     1     -12.882   5.474  68.837  1.00  0.00     6.867 OA 
HETATM    7  C   UNL     1     -12.331   5.975  66.727  1.00  0.00     4.838 C  
HETATM    8  C   UNL     1     -11.560   4.399  67.381  1.00  0.00     6.059 C  
HETATM    9  C   UNL     1     -10.354   7.670  68.486  1.00  0.00    -0.225 C  
HETATM   10  C   UNL     1      -7.950   7.220  70.206  1.00  0.00    -0.115 C  
HETATM   11  H   UNL     1     -13.596   5.553  69.459  1.00  0.00     0.000 HD 
HETATM   12  C   UNL     1     -10.551   4.705  68.760  1.00  0.00     0.550 C  
HETATM   13  C   UNL     1      -9.176   8.677  68.462  1.00  0.00    -0.138 C  
HETATM   14  C   UNL     1      -9.758   6.146  69.021  1.00  0.00    -0.157 C  
HETATM   15  C   UNL     1      -9.186   6.370  70.443  1.00  0.00    -0.159 C  
HETATM   16  C   UNL     1      -8.915   5.120  71.288  1.00  0.00    -0.161 C  
HETATM   17  C   UNL     1      -7.579   4.427  71.088  1.00  0.00    -0.067 C  
HETATM   18  C   UNL     1      -6.436   5.328  70.699  1.00  0.00    -0.027 C  
HETATM   19  C   UNL     1      -6.701   6.735  70.311  1.00  0.00    -0.053 C  
HETATM   20  O   UNL     1      -5.277   4.913  70.664  1.00  0.00    -0.003 OA 
ENDROOT
BRANCH   4  21
HETATM   21  C   UNL     1     -13.329   7.573  68.133  1.00  0.00    14.134 C  
HETATM   22  C   UNL     1     -14.097   8.486  68.241  1.00  0.00    19.939 C  
ENDBRANCH   4  21
BRANCH   7  23
HETATM   23  C   UNL     1     -13.491   5.762  65.790  1.00  0.00    10.452 C  
HETATM   24  C   UNL     1     -12.986   5.281  64.430  1.00  0.00     7.497 C  
ENDBRANCH   7  23
TORSDOF 2
ENDMDL
MODEL      155
REMARK 921   NORMALIZED FREE ENERGY PREDICTED BY IDOCK:   74.20 KCAL/MOL
REMARK 922        TOTAL FREE ENERGY PREDICTED BY IDOCK:   82.72 KCAL/MOL
REMARK 923 INTER-LIGAND FREE ENERGY PREDICTED BY IDOCK:   81.52 KCAL/MOL
REMARK 924 INTRA-LIGAND FREE ENERGY PREDICTED BY IDOCK:    1.20 KCAL/MOL
REMARK 927      BINDING AFFINITY PREDICTED BY RF-SCORE:    0.00 PKD
ROOT
HETATM    1  C   UNL     1      -9.400  15.509  67.096  1.00  0.00    -0.227 C  
HETATM    2  C   UNL     1     -10.813  15.632  67.102  1.00  0.00    -0.297 C  
HETATM    3  C   UNL     1     -10.071  16.778  67.678  1.00  0.00    -0.275 C  
HETATM    4  C   UNL     1      -8.042  16.743  67.375  1.00  0.00    -0.170 C  
HETATM    5  C   UNL     1      -9.305  13.794  71.031  1.00  0.00     6.491 C  
HETATM    6  O   UNL     1      -7.039  17.728  67.618  1.00  0.00    -0.181 OA 
HETATM    7  C   UNL     1      -8.976  17.336  66.568  1.00  0.00    -0.294 C  
HETATM    8  C   UNL     1      -9.047  18.697  67.852  1.00  0.00    -0.314 C  
HETATM    9  C   UNL     1      -8.867  15.185  68.858  1.00  0.00    -0.205 C  
HETATM   10  C   UNL     1      -9.150  15.074  71.831  1.00  0.00     5.097 C  
HETATM   11  H   UNL     1      -6.100  17.712  67.478  1.00  0.00     0.000 HD 
HETATM   12  C   UNL     1      -8.648  18.105  69.434  1.00  0.00     0.457 C  
HETATM   13  C   UNL     1      -9.613  14.004  69.528  1.00  0.00     0.641 C  
HETATM   14  C   UNL     1      -8.911  16.535  69.925  1.00  0.00     0.990 C  
HETATM   15  C   UNL     1      -8.199  16.092  71.228  1.00  0.00     5.524 C  
HETATM   16  C   UNL     1      -7.785  17.198  72.204  1.00  0.00    12.104 C  
HETATM   17  C   UNL     1      -8.836  17.676  73.191  1.00  0.00    15.629 C  
HETATM   18  C   UNL     1      -9.840  16.639  73.620  1.00  0.00    11.649 C  
HETATM   19  C   UNL     1      -9.905  15.335  72.913  1.00  0.00     5.924 C  
HETATM   20  O   UNL     1     -10.639  16.857  74.530  1.00  0.00     4.617 OA 
ENDROOT
BRANCH   4  21
HETATM   21  C   UNL     1      -7.197  15.804  66.446  1.00  0.00     0.772 C  
HETATM   22  C   UNL     1      -6.511  15.152  65.711  1.00  0.00     7.030 C  
ENDBRANCH   4  21
BRANCH   7  23
HETATM   23  C   UNL     1      -8.937  17.821  65.143  1.00  0.00     2.535 C  
HETATM   24  C   UNL     1      -7.489  17.968  64.677  1.00  0.00     4.024 C  
ENDBRANCH   7  23
TORSDOF 2
ENDMDL
