MODEL        1
REMARK 921   NORMALIZED FREE ENERGY PREDICTED BY IDOCK:   -5.99 KCAL/MOL
REMARK 922        TOTAL FREE ENERGY PREDICTED BY IDOCK:   -6.90 KCAL/MOL
REMARK 923 INTER-LIGAND FREE ENERGY PREDICTED BY IDOCK:   -6.69 KCAL/MOL
REMARK 924 INTRA-LIGAND FREE ENERGY PREDICTED BY IDOCK:   -0.21 KCAL/MOL
REMARK 927      BINDING AFFINITY PREDICTED BY RF-SCORE:    0.00 PKD
ROOT
HETATM    1  C   UNL     1     -11.921  12.758  69.889  1.00  0.00    -0.368 C  
HETATM    2  C   UNL     1     -11.910  12.115  68.499  1.00  0.00    -0.310 C  
HETATM    3  N   UNL     1     -11.993  10.648  68.666  1.00  0.00    -0.772 NA 
HETATM    4  H1  UNL     1     -11.986  10.220  67.740  1.00  0.00     0.000 HD 
HETATM    5  H2  UNL     1     -12.796  10.362  69.225  1.00  0.00     0.000 HD 
ENDROOT
BRANCH   2   6
HETATM    6  C   UNL     1     -10.649  12.481  67.657  1.00  0.00    -0.217 C  
HETATM    7  H   UNL     1      -8.813  13.109  68.014  1.00  0.00     0.000 HD 
HETATM    8  O   UNL     1      -9.581  12.886  68.526  1.00  0.00    -0.198 OA 
BRANCH   6   9
HETATM    9  C   UNL     1     -10.912  13.554  66.617  1.00  0.00    -0.293 A  
HETATM   10  C   UNL     1     -11.607  13.269  65.427  1.00  0.00    -0.346 A  
HETATM   11  C   UNL     1     -11.791  14.268  64.476  1.00  0.00    -0.442 A  
HETATM   12  O   UNL     1     -12.446  14.031  63.299  1.00  0.00    -1.139 OA 
HETATM   13  C   UNL     1     -11.296  15.549  64.696  1.00  0.00    -0.357 A  
HETATM   14  H   UNL     1     -12.571  14.712  62.649  1.00  0.00     0.000 HD 
HETATM   15  C   UNL     1     -10.616  15.856  65.864  1.00  0.00    -0.348 A  
HETATM   16  O   UNL     1     -11.474  16.519  63.751  1.00  0.00    -1.615 OA 
HETATM   17  H   UNL     1     -11.136  17.394  63.901  1.00  0.00     0.000 HD 
HETATM   18  C   UNL     1     -10.421  14.858  66.822  1.00  0.00    -0.284 A  
ENDBRANCH   6   9
ENDBRANCH   2   6
TORSDOF 2
ENDMDL
MODEL        2
REMARK 921   NORMALIZED FREE ENERGY PREDICTED BY IDOCK:   -5.86 KCAL/MOL
REMARK 922        TOTAL FREE ENERGY PREDICTED BY IDOCK:   -6.76 KCAL/MOL
REMARK 923 INTER-LIGAND FREE ENERGY PREDICTED BY IDOCK:   -6.62 KCAL/MOL
REMARK 924 INTRA-LIGAND FREE ENERGY PREDICTED BY IDOCK:   -0.13 KCAL/MOL
REMARK 927      BINDING AFFINITY PREDICTED BY RF-SCORE:    0.00 PKD
ROOT
HETATM    1  C   UNL     1     -12.294  15.355  70.692  1.00  0.00    -0.451 C  
HETATM    2  C   UNL     1     -12.016  14.423  69.508  1.00  0.00    -0.330 C  
HETATM    3  N   UNL     1     -11.520  13.136  70.038  1.00  0.00    -0.519 NA 
HETATM    4  H1  UNL     1     -11.335  12.515  69.250  1.00  0.00     0.000 HD 
HETATM    5  H2  UNL     1     -12.153  12.723  70.723  1.00  0.00     0.000 HD 
ENDROOT
BRANCH   2   6
HETATM    6  C   UNL     1     -10.990  15.006  68.489  1.00  0.00    -0.256 C  
HETATM    7  H   UNL     1     -10.166  16.760  68.120  1.00  0.00     0.000 HD 
HETATM    8  O   UNL     1     -10.790  16.405  68.740  1.00  0.00    -0.297 OA 
BRANCH   6   9
HETATM    9  C   UNL     1     -11.391  14.788  67.041  1.00  0.00    -0.358 A  
HETATM   10  C   UNL     1     -11.150  15.765  66.057  1.00  0.00    -0.085 A  
HETATM   11  C   UNL     1     -11.572  15.550  64.749  1.00  0.00    -0.256 A  
HETATM   12  O   UNL     1     -11.373  16.478  63.765  1.00  0.00    -1.553 OA 
HETATM   13  C   UNL     1     -12.225  14.371  64.405  1.00  0.00    -0.458 A  
HETATM   14  H   UNL     1     -11.661  16.332  62.872  1.00  0.00     0.000 HD 
HETATM   15  C   UNL     1     -12.466  13.391  65.355  1.00  0.00    -0.543 A  
HETATM   16  O   UNL     1     -12.643  14.173  63.120  1.00  0.00    -1.058 OA 
HETATM   17  H   UNL     1     -13.089  13.368  62.885  1.00  0.00     0.000 HD 
HETATM   18  C   UNL     1     -12.052  13.601  66.673  1.00  0.00    -0.459 A  
ENDBRANCH   6   9
ENDBRANCH   2   6
TORSDOF 2
ENDMDL
MODEL        3
REMARK 921   NORMALIZED FREE ENERGY PREDICTED BY IDOCK:   -5.83 KCAL/MOL
REMARK 922        TOTAL FREE ENERGY PREDICTED BY IDOCK:   -6.72 KCAL/MOL
REMARK 923 INTER-LIGAND FREE ENERGY PREDICTED BY IDOCK:   -6.52 KCAL/MOL
REMARK 924 INTRA-LIGAND FREE ENERGY PREDICTED BY IDOCK:   -0.19 KCAL/MOL
REMARK 927      BINDING AFFINITY PREDICTED BY RF-SCORE:    0.00 PKD
ROOT
HETATM    1  C   UNL     1     -10.863  15.785  66.016  1.00  0.00    -0.256 C  
HETATM    2  C   UNL     1     -11.151  15.324  64.584  1.00  0.00    -0.332 C  
HETATM    3  N   UNL     1     -11.765  16.451  63.850  1.00  0.00    -1.527 NA 
HETATM    4  H1  UNL     1     -11.956  16.144  62.896  1.00  0.00     0.000 HD 
HETATM    5  H2  UNL     1     -11.197  17.298  63.884  1.00  0.00     0.000 HD 
ENDROOT
BRANCH   2   6
HETATM    6  C   UNL     1     -12.082  14.075  64.510  1.00  0.00    -0.459 C  
HETATM    7  H   UNL     1     -13.632  13.375  65.509  1.00  0.00     0.000 HD 
HETATM    8  O   UNL     1     -13.066  14.136  65.554  1.00  0.00    -0.691 OA 
BRANCH   6   9
HETATM    9  C   UNL     1     -11.328  12.760  64.579  1.00  0.00    -0.378 A  
HETATM   10  C   UNL     1     -10.876  12.111  63.415  1.00  0.00    -0.474 A  
HETATM   11  C   UNL     1     -10.228  10.884  63.512  1.00  0.00    -0.317 A  
HETATM   12  O   UNL     1      -9.787  10.211  62.406  1.00  0.00    -0.677 OA 
HETATM   13  C   UNL     1     -10.018  10.296  64.755  1.00  0.00    -0.321 A  
HETATM   14  H   UNL     1      -9.344   9.373  62.473  1.00  0.00     0.000 HD 
HETATM   15  C   UNL     1     -10.447  10.919  65.916  1.00  0.00    -0.285 A  
HETATM   16  O   UNL     1      -9.389   9.086  64.839  1.00  0.00    -0.446 OA 
HETATM   17  H   UNL     1      -9.246   8.685  65.688  1.00  0.00     0.000 HD 
HETATM   18  C   UNL     1     -11.104  12.150  65.827  1.00  0.00    -0.362 A  
ENDBRANCH   6   9
ENDBRANCH   2   6
TORSDOF 2
ENDMDL
MODEL        4
REMARK 921   NORMALIZED FREE ENERGY PREDICTED BY IDOCK:   -5.83 KCAL/MOL
REMARK 922        TOTAL FREE ENERGY PREDICTED BY IDOCK:   -6.72 KCAL/MOL
REMARK 923 INTER-LIGAND FREE ENERGY PREDICTED BY IDOCK:   -6.51 KCAL/MOL
REMARK 924 INTRA-LIGAND FREE ENERGY PREDICTED BY IDOCK:   -0.21 KCAL/MOL
REMARK 927      BINDING AFFINITY PREDICTED BY RF-SCORE:    0.00 PKD
ROOT
HETATM    1  C   UNL     1     -12.523  13.746  70.352  1.00  0.00    -0.384 C  
HETATM    2  C   UNL     1     -11.780  13.132  69.162  1.00  0.00    -0.325 C  
HETATM    3  N   UNL     1     -10.820  12.134  69.679  1.00  0.00    -0.436 NA 
HETATM    4  H1  UNL     1     -10.326  11.725  68.886  1.00  0.00     0.000 HD 
HETATM    5  H2  UNL     1     -11.265  11.431  70.269  1.00  0.00     0.000 HD 
ENDROOT
BRANCH   2   6
HETATM    6  C   UNL     1     -11.028  14.186  68.291  1.00  0.00    -0.251 C  
HETATM    7  H   UNL     1     -10.799  16.145  68.282  1.00  0.00     0.000 HD 
HETATM    8  O   UNL     1     -11.256  15.504  68.812  1.00  0.00    -0.275 OA 
BRANCH   6   9
HETATM    9  C   UNL     1     -11.408  14.132  66.822  1.00  0.00    -0.353 A  
HETATM   10  C   UNL     1     -11.265  15.254  65.986  1.00  0.00    -0.231 A  
HETATM   11  C   UNL     1     -11.664  15.182  64.655  1.00  0.00    -0.348 A  
HETATM   12  O   UNL     1     -11.559  16.253  63.811  1.00  0.00    -1.539 OA 
HETATM   13  C   UNL     1     -12.200  14.005  64.144  1.00  0.00    -0.396 A  
HETATM   14  H   UNL     1     -11.831  16.204  62.903  1.00  0.00     0.000 HD 
HETATM   15  C   UNL     1     -12.342  12.884  64.947  1.00  0.00    -0.532 A  
HETATM   16  O   UNL     1     -12.597  13.947  62.838  1.00  0.00    -0.966 OA 
HETATM   17  H   UNL     1     -12.963  13.143  62.490  1.00  0.00     0.000 HD 
HETATM   18  C   UNL     1     -11.949  12.949  66.286  1.00  0.00    -0.472 A  
ENDBRANCH   6   9
ENDBRANCH   2   6
TORSDOF 2
ENDMDL
MODEL        5
REMARK 921   NORMALIZED FREE ENERGY PREDICTED BY IDOCK:   -5.81 KCAL/MOL
REMARK 922        TOTAL FREE ENERGY PREDICTED BY IDOCK:   -6.69 KCAL/MOL
REMARK 923 INTER-LIGAND FREE ENERGY PREDICTED BY IDOCK:   -6.49 KCAL/MOL
REMARK 924 INTRA-LIGAND FREE ENERGY PREDICTED BY IDOCK:   -0.21 KCAL/MOL
REMARK 927      BINDING AFFINITY PREDICTED BY RF-SCORE:    0.00 PKD
ROOT
HETATM    1  C   UNL     1      -9.699  10.414  66.899  1.00  0.00    -0.223 C  
HETATM    2  C   UNL     1      -9.621  11.748  67.648  1.00  0.00    -0.183 C  
HETATM    3  N   UNL     1      -9.111  11.486  69.010  1.00  0.00    -0.393 NA 
HETATM    4  H1  UNL     1      -9.059  12.374  69.509  1.00  0.00     0.000 HD 
HETATM    5  H2  UNL     1      -8.223  10.985  69.007  1.00  0.00     0.000 HD 
ENDROOT
BRANCH   2   6
HETATM    6  C   UNL     1     -10.989  12.493  67.730  1.00  0.00    -0.234 C  
HETATM    7  H   UNL     1     -12.899  12.002  67.703  1.00  0.00     0.000 HD 
HETATM    8  O   UNL     1     -12.066  11.548  67.652  1.00  0.00    -0.623 OA 
BRANCH   6   9
HETATM    9  C   UNL     1     -11.155  13.563  66.666  1.00  0.00    -0.309 A  
HETATM   10  C   UNL     1     -11.858  13.310  65.474  1.00  0.00    -0.405 A  
HETATM   11  C   UNL     1     -11.952  14.300  64.501  1.00  0.00    -0.462 A  
HETATM   12  O   UNL     1     -12.612  14.092  63.321  1.00  0.00    -1.073 OA 
HETATM   13  C   UNL     1     -11.360  15.542  64.701  1.00  0.00    -0.357 A  
HETATM   14  H   UNL     1     -12.676  14.768  62.657  1.00  0.00     0.000 HD 
HETATM   15  C   UNL     1     -10.669  15.818  65.871  1.00  0.00    -0.320 A  
HETATM   16  O   UNL     1     -11.451  16.504  63.736  1.00  0.00    -1.615 OA 
HETATM   17  H   UNL     1     -11.046  17.352  63.874  1.00  0.00     0.000 HD 
HETATM   18  C   UNL     1     -10.564  14.827  66.851  1.00  0.00    -0.294 A  
ENDBRANCH   6   9
ENDBRANCH   2   6
TORSDOF 2
ENDMDL
MODEL        6
REMARK 921   NORMALIZED FREE ENERGY PREDICTED BY IDOCK:   -5.48 KCAL/MOL
REMARK 922        TOTAL FREE ENERGY PREDICTED BY IDOCK:   -6.34 KCAL/MOL
REMARK 923 INTER-LIGAND FREE ENERGY PREDICTED BY IDOCK:   -6.17 KCAL/MOL
REMARK 924 INTRA-LIGAND FREE ENERGY PREDICTED BY IDOCK:   -0.17 KCAL/MOL
REMARK 927      BINDING AFFINITY PREDICTED BY RF-SCORE:    0.00 PKD
ROOT
HETATM    1  C   UNL     1     -10.883  15.585  66.190  1.00  0.00    -0.295 C  
HETATM    2  C   UNL     1     -11.026  15.209  64.712  1.00  0.00    -0.377 C  
HETATM    3  N   UNL     1     -11.487  16.403  63.972  1.00  0.00    -1.573 NA 
HETATM    4  H1  UNL     1     -11.581  16.152  62.988  1.00  0.00     0.000 HD 
HETATM    5  H2  UNL     1     -10.881  17.211  64.115  1.00  0.00     0.000 HD 
ENDROOT
BRANCH   2   6
HETATM    6  C   UNL     1     -12.009  14.023  64.467  1.00  0.00    -0.448 C  
HETATM    7  H   UNL     1     -13.759  13.438  65.164  1.00  0.00     0.000 HD 
HETATM    8  O   UNL     1     -13.161  14.159  65.313  1.00  0.00    -0.763 OA 
BRANCH   6   9
HETATM    9  C   UNL     1     -11.370  12.662  64.669  1.00  0.00    -0.360 A  
HETATM   10  C   UNL     1     -11.385  12.022  65.923  1.00  0.00    -0.391 A  
HETATM   11  C   UNL     1     -10.751  10.795  66.083  1.00  0.00    -0.118 A  
HETATM   12  O   UNL     1     -10.727  10.147  67.287  1.00  0.00    -0.261 OA 
HETATM   13  C   UNL     1     -10.105  10.191  65.009  1.00  0.00    -0.235 A  
HETATM   14  H   UNL     1     -10.294   9.308  67.396  1.00  0.00     0.000 HD 
HETATM   15  C   UNL     1     -10.084  10.798  63.763  1.00  0.00    -0.391 A  
HETATM   16  O   UNL     1      -9.478   8.990  65.179  1.00  0.00    -0.451 OA 
HETATM   17  H   UNL     1      -9.037   8.578  64.445  1.00  0.00     0.000 HD 
HETATM   18  C   UNL     1     -10.714  12.034  63.594  1.00  0.00    -0.506 A  
ENDBRANCH   6   9
ENDBRANCH   2   6
TORSDOF 2
ENDMDL
MODEL        7
REMARK 921   NORMALIZED FREE ENERGY PREDICTED BY IDOCK:   -5.45 KCAL/MOL
REMARK 922        TOTAL FREE ENERGY PREDICTED BY IDOCK:   -6.29 KCAL/MOL
REMARK 923 INTER-LIGAND FREE ENERGY PREDICTED BY IDOCK:   -6.08 KCAL/MOL
REMARK 924 INTRA-LIGAND FREE ENERGY PREDICTED BY IDOCK:   -0.21 KCAL/MOL
REMARK 927      BINDING AFFINITY PREDICTED BY RF-SCORE:    0.00 PKD
ROOT
HETATM    1  C   UNL     1      -9.973   9.949  66.408  1.00  0.00    -0.309 C  
HETATM    2  C   UNL     1     -10.723  11.209  66.852  1.00  0.00    -0.274 C  
HETATM    3  N   UNL     1     -11.753  10.814  67.836  1.00  0.00    -0.716 NA 
HETATM    4  H1  UNL     1     -12.252  11.653  68.131  1.00  0.00     0.000 HD 
HETATM    5  H2  UNL     1     -11.365  10.290  68.621  1.00  0.00     0.000 HD 
ENDROOT
BRANCH   2   6
HETATM    6  C   UNL     1     -11.389  11.980  65.671  1.00  0.00    -0.329 C  
HETATM    7  H   UNL     1     -11.423  11.848  63.703  1.00  0.00     0.000 HD 
HETATM    8  O   UNL     1     -11.018  11.379  64.422  1.00  0.00    -0.341 OA 
BRANCH   6   9
HETATM    9  C   UNL     1     -11.055  13.461  65.657  1.00  0.00    -0.298 A  
HETATM   10  C   UNL     1     -11.595  14.326  64.687  1.00  0.00    -0.415 A  
HETATM   11  C   UNL     1     -11.231  15.669  64.677  1.00  0.00    -0.369 A  
HETATM   12  O   UNL     1     -11.719  16.541  63.744  1.00  0.00    -1.548 OA 
HETATM   13  C   UNL     1     -10.342  16.165  65.625  1.00  0.00    -0.382 A  
HETATM   14  H   UNL     1     -11.471  17.458  63.737  1.00  0.00     0.000 HD 
HETATM   15  C   UNL     1      -9.804  15.333  66.595  1.00  0.00    -0.263 A  
HETATM   16  O   UNL     1      -9.985  17.483  65.601  1.00  0.00    -0.561 OA 
HETATM   17  H   UNL     1      -9.378  17.821  66.248  1.00  0.00     0.000 HD 
HETATM   18  C   UNL     1     -10.158  13.982  66.609  1.00  0.00    -0.276 A  
ENDBRANCH   6   9
ENDBRANCH   2   6
TORSDOF 2
ENDMDL
MODEL        8
REMARK 921   NORMALIZED FREE ENERGY PREDICTED BY IDOCK:   -5.39 KCAL/MOL
REMARK 922        TOTAL FREE ENERGY PREDICTED BY IDOCK:   -6.23 KCAL/MOL
REMARK 923 INTER-LIGAND FREE ENERGY PREDICTED BY IDOCK:   -6.04 KCAL/MOL
REMARK 924 INTRA-LIGAND FREE ENERGY PREDICTED BY IDOCK:   -0.19 KCAL/MOL
REMARK 927      BINDING AFFINITY PREDICTED BY RF-SCORE:    0.00 PKD
ROOT
HETATM    1  C   UNL     1      -9.657  10.723  68.774  1.00  0.00    -0.194 C  
HETATM    2  C   UNL     1     -10.939  11.338  68.203  1.00  0.00    -0.231 C  
HETATM    3  N   UNL     1     -12.095  10.638  68.800  1.00  0.00    -0.790 NA 
HETATM    4  H1  UNL     1     -12.948  11.048  68.420  1.00  0.00     0.000 HD 
HETATM    5  H2  UNL     1     -12.076  10.647  69.820  1.00  0.00     0.000 HD 
ENDROOT
BRANCH   2   6
HETATM    6  C   UNL     1     -11.021  11.264  66.648  1.00  0.00    -0.268 C  
HETATM    7  H   UNL     1      -9.963  10.466  65.187  1.00  0.00     0.000 HD 
HETATM    8  O   UNL     1      -9.913  10.511  66.134  1.00  0.00    -0.210 OA 
BRANCH   6   9
HETATM    9  C   UNL     1     -11.078  12.628  65.984  1.00  0.00    -0.321 A  
HETATM   10  C   UNL     1     -11.941  12.882  64.902  1.00  0.00    -0.437 A  
HETATM   11  C   UNL     1     -11.935  14.131  64.288  1.00  0.00    -0.435 A  
HETATM   12  O   UNL     1     -12.745  14.416  63.224  1.00  0.00    -0.897 OA 
HETATM   13  C   UNL     1     -11.084  15.133  64.742  1.00  0.00    -0.382 A  
HETATM   14  H   UNL     1     -12.741  15.268  62.805  1.00  0.00     0.000 HD 
HETATM   15  C   UNL     1     -10.231  14.909  65.811  1.00  0.00    -0.358 A  
HETATM   16  O   UNL     1     -11.080  16.353  64.127  1.00  0.00    -1.226 OA 
HETATM   17  H   UNL     1     -10.499  17.037  64.437  1.00  0.00     0.000 HD 
HETATM   18  C   UNL     1     -10.226  13.656  66.430  1.00  0.00    -0.292 A  
ENDBRANCH   6   9
ENDBRANCH   2   6
TORSDOF 2
ENDMDL
MODEL        9
REMARK 921   NORMALIZED FREE ENERGY PREDICTED BY IDOCK:   -5.39 KCAL/MOL
REMARK 922        TOTAL FREE ENERGY PREDICTED BY IDOCK:   -6.23 KCAL/MOL
REMARK 923 INTER-LIGAND FREE ENERGY PREDICTED BY IDOCK:   -5.98 KCAL/MOL
REMARK 924 INTRA-LIGAND FREE ENERGY PREDICTED BY IDOCK:   -0.25 KCAL/MOL
REMARK 927      BINDING AFFINITY PREDICTED BY RF-SCORE:    0.00 PKD
ROOT
HETATM    1  C   UNL     1      -8.297  13.839  67.943  1.00  0.00    -0.172 C  
HETATM    2  C   UNL     1      -9.245  14.951  68.402  1.00  0.00    -0.189 C  
HETATM    3  N   UNL     1      -8.921  15.288  69.804  1.00  0.00    -0.425 NA 
HETATM    4  H1  UNL     1      -9.553  16.028  70.109  1.00  0.00     0.000 HD 
HETATM    5  H2  UNL     1      -7.939  15.531  69.933  1.00  0.00     0.000 HD 
ENDROOT
BRANCH   2   6
HETATM    6  C   UNL     1     -10.752  14.568  68.285  1.00  0.00    -0.240 C  
HETATM    7  H   UNL     1     -11.927  13.128  68.949  1.00  0.00     0.000 HD 
HETATM    8  O   UNL     1     -11.009  13.362  69.020  1.00  0.00    -0.258 OA 
BRANCH   6   9
HETATM    9  C   UNL     1     -11.223  14.415  66.850  1.00  0.00    -0.340 A  
HETATM   10  C   UNL     1     -11.240  15.507  65.962  1.00  0.00    -0.107 A  
HETATM   11  C   UNL     1     -11.721  15.340  64.667  1.00  0.00    -0.308 A  
HETATM   12  O   UNL     1     -11.770  16.377  63.777  1.00  0.00    -1.553 OA 
HETATM   13  C   UNL     1     -12.180  14.098  64.242  1.00  0.00    -0.420 A  
HETATM   14  H   UNL     1     -12.098  16.264  62.893  1.00  0.00     0.000 HD 
HETATM   15  C   UNL     1     -12.166  13.007  65.095  1.00  0.00    -0.507 A  
HETATM   16  O   UNL     1     -12.658  13.948  62.971  1.00  0.00    -1.030 OA 
HETATM   17  H   UNL     1     -12.972  13.100  62.681  1.00  0.00     0.000 HD 
HETATM   18  C   UNL     1     -11.691  13.166  66.400  1.00  0.00    -0.429 A  
ENDBRANCH   6   9
ENDBRANCH   2   6
TORSDOF 2
ENDMDL
MODEL       10
REMARK 921   NORMALIZED FREE ENERGY PREDICTED BY IDOCK:   -5.38 KCAL/MOL
REMARK 922        TOTAL FREE ENERGY PREDICTED BY IDOCK:   -6.22 KCAL/MOL
REMARK 923 INTER-LIGAND FREE ENERGY PREDICTED BY IDOCK:   -6.02 KCAL/MOL
REMARK 924 INTRA-LIGAND FREE ENERGY PREDICTED BY IDOCK:   -0.20 KCAL/MOL
REMARK 927      BINDING AFFINITY PREDICTED BY RF-SCORE:    0.00 PKD
ROOT
HETATM    1  C   UNL     1     -10.412  19.664  66.649  1.00  0.00    -0.610 C  
HETATM    2  C   UNL     1     -10.619  18.349  67.408  1.00  0.00    -0.413 C  
HETATM    3  N   UNL     1     -10.321  18.585  68.836  1.00  0.00    -0.456 NA 
HETATM    4  H1  UNL     1     -10.460  17.709  69.340  1.00  0.00     0.000 HD 
HETATM    5  H2  UNL     1     -10.864  19.355  69.228  1.00  0.00     0.000 HD 
ENDROOT
BRANCH   2   6
HETATM    6  C   UNL     1      -9.739  17.179  66.870  1.00  0.00    -0.268 C  
HETATM    7  H   UNL     1      -8.395  16.925  65.449  1.00  0.00     0.000 HD 
HETATM    8  O   UNL     1      -8.931  17.637  65.776  1.00  0.00    -0.509 OA 
BRANCH   6   9
HETATM    9  C   UNL     1     -10.546  15.964  66.450  1.00  0.00    -0.298 A  
HETATM   10  C   UNL     1     -10.949  15.775  65.115  1.00  0.00    -0.394 A  
HETATM   11  C   UNL     1     -11.726  14.673  64.774  1.00  0.00    -0.428 A  
HETATM   12  O   UNL     1     -12.153  14.460  63.492  1.00  0.00    -0.897 OA 
HETATM   13  C   UNL     1     -12.104  13.751  65.745  1.00  0.00    -0.429 A  
HETATM   14  H   UNL     1     -12.683  13.707  63.260  1.00  0.00     0.000 HD 
HETATM   15  C   UNL     1     -11.713  13.911  67.065  1.00  0.00    -0.426 A  
HETATM   16  O   UNL     1     -12.874  12.677  65.401  1.00  0.00    -0.582 OA 
HETATM   17  H   UNL     1     -13.132  12.048  66.064  1.00  0.00     0.000 HD 
HETATM   18  C   UNL     1     -10.937  15.019  67.418  1.00  0.00    -0.315 A  
ENDBRANCH   6   9
ENDBRANCH   2   6
TORSDOF 2
ENDMDL
MODEL       11
REMARK 921   NORMALIZED FREE ENERGY PREDICTED BY IDOCK:   -5.37 KCAL/MOL
REMARK 922        TOTAL FREE ENERGY PREDICTED BY IDOCK:   -6.21 KCAL/MOL
REMARK 923 INTER-LIGAND FREE ENERGY PREDICTED BY IDOCK:   -6.01 KCAL/MOL
REMARK 924 INTRA-LIGAND FREE ENERGY PREDICTED BY IDOCK:   -0.20 KCAL/MOL
REMARK 927      BINDING AFFINITY PREDICTED BY RF-SCORE:    0.00 PKD
ROOT
HETATM    1  C   UNL     1     -10.512  13.408  68.526  1.00  0.00    -0.260 C  
HETATM    2  C   UNL     1     -11.200  12.050  68.691  1.00  0.00    -0.258 C  
HETATM    3  N   UNL     1     -11.901  11.728  67.430  1.00  0.00    -0.624 NA 
HETATM    4  H1  UNL     1     -12.359  10.823  67.541  1.00  0.00     0.000 HD 
HETATM    5  H2  UNL     1     -11.283  11.759  66.619  1.00  0.00     0.000 HD 
ENDROOT
BRANCH   2   6
HETATM    6  C   UNL     1     -12.207  12.007  69.881  1.00  0.00    -0.179 C  
HETATM    7  H   UNL     1     -12.650  13.142  71.433  1.00  0.00     0.000 HD 
HETATM    8  O   UNL     1     -12.037  13.168  70.709  1.00  0.00    -0.339 OA 
BRANCH   6   9
HETATM    9  C   UNL     1     -12.093  10.747  70.720  1.00  0.00    -0.473 A  
HETATM   10  C   UNL     1     -13.094  10.383  71.639  1.00  0.00    -0.553 A  
HETATM   11  C   UNL     1     -12.935   9.245  72.424  1.00  0.00    -0.377 A  
HETATM   12  O   UNL     1     -13.875   8.864  73.341  1.00  0.00    -1.192 OA 
HETATM   13  C   UNL     1     -11.794   8.460  72.301  1.00  0.00    -0.389 A  
HETATM   14  H   UNL     1     -13.767   8.087  73.876  1.00  0.00     0.000 HD 
HETATM   15  C   UNL     1     -10.798   8.793  71.396  1.00  0.00    -0.359 A  
HETATM   16  O   UNL     1     -11.644   7.350  73.082  1.00  0.00    -0.598 OA 
HETATM   17  H   UNL     1     -10.864   6.813  72.998  1.00  0.00     0.000 HD 
HETATM   18  C   UNL     1     -10.946   9.938  70.609  1.00  0.00    -0.405 A  
ENDBRANCH   6   9
ENDBRANCH   2   6
TORSDOF 2
ENDMDL
MODEL       12
REMARK 921   NORMALIZED FREE ENERGY PREDICTED BY IDOCK:   -5.30 KCAL/MOL
REMARK 922        TOTAL FREE ENERGY PREDICTED BY IDOCK:   -6.13 KCAL/MOL
REMARK 923 INTER-LIGAND FREE ENERGY PREDICTED BY IDOCK:   -5.95 KCAL/MOL
REMARK 924 INTRA-LIGAND FREE ENERGY PREDICTED BY IDOCK:   -0.18 KCAL/MOL
REMARK 927      BINDING AFFINITY PREDICTED BY RF-SCORE:    0.00 PKD
ROOT
HETATM    1  C   UNL     1     -10.640  18.888  66.111  1.00  0.00    -0.476 C  
HETATM    2  C   UNL     1      -9.998  17.507  66.277  1.00  0.00    -0.308 C  
HETATM    3  N   UNL     1      -8.531  17.679  66.320  1.00  0.00    -0.436 NA 
HETATM    4  H1  UNL     1      -8.104  16.759  66.431  1.00  0.00     0.000 HD 
HETATM    5  H2  UNL     1      -8.234  18.339  67.039  1.00  0.00     0.000 HD 
ENDROOT
BRANCH   2   6
HETATM    6  C   UNL     1     -10.381  16.507  65.144  1.00  0.00    -0.020 C  
HETATM    7  H   UNL     1     -11.631  16.469  63.619  1.00  0.00     0.000 HD 
HETATM    8  O   UNL     1     -11.399  17.078  64.309  1.00  0.00    -1.191 OA 
BRANCH   6   9
HETATM    9  C   UNL     1     -10.830  15.153  65.663  1.00  0.00    -0.367 A  
HETATM   10  C   UNL     1     -11.744  14.358  64.947  1.00  0.00    -0.408 A  
HETATM   11  C   UNL     1     -12.168  13.143  65.475  1.00  0.00    -0.461 A  
HETATM   12  O   UNL     1     -13.067  12.347  64.821  1.00  0.00    -0.806 OA 
HETATM   13  C   UNL     1     -11.689  12.704  66.705  1.00  0.00    -0.398 A  
HETATM   14  H   UNL     1     -13.356  11.517  65.181  1.00  0.00     0.000 HD 
HETATM   15  C   UNL     1     -10.782  13.466  67.425  1.00  0.00    -0.269 A  
HETATM   16  O   UNL     1     -12.118  11.514  67.218  1.00  0.00    -0.548 OA 
HETATM   17  H   UNL     1     -11.791  11.215  68.058  1.00  0.00     0.000 HD 
HETATM   18  C   UNL     1     -10.355  14.691  66.905  1.00  0.00    -0.264 A  
ENDBRANCH   6   9
ENDBRANCH   2   6
TORSDOF 2
ENDMDL
MODEL       13
REMARK 921   NORMALIZED FREE ENERGY PREDICTED BY IDOCK:   -5.26 KCAL/MOL
REMARK 922        TOTAL FREE ENERGY PREDICTED BY IDOCK:   -6.09 KCAL/MOL
REMARK 923 INTER-LIGAND FREE ENERGY PREDICTED BY IDOCK:   -6.03 KCAL/MOL
REMARK 924 INTRA-LIGAND FREE ENERGY PREDICTED BY IDOCK:   -0.06 KCAL/MOL
REMARK 927      BINDING AFFINITY PREDICTED BY RF-SCORE:    0.00 PKD
ROOT
HETATM    1  C   UNL     1     -10.724  12.573  63.709  1.00  0.00    -0.483 C  
HETATM    2  C   UNL     1     -11.975  13.275  64.247  1.00  0.00    -0.421 C  
HETATM    3  N   UNL     1     -12.640  13.964  63.121  1.00  0.00    -0.976 NA 
HETATM    4  H1  UNL     1     -13.473  14.431  63.479  1.00  0.00     0.000 HD 
HETATM    5  H2  UNL     1     -12.845  13.336  62.343  1.00  0.00     0.000 HD 
ENDROOT
BRANCH   2   6
HETATM    6  C   UNL     1     -11.671  14.296  65.386  1.00  0.00    -0.354 C  
HETATM    7  H   UNL     1     -10.221  15.554  65.842  1.00  0.00     0.000 HD 
HETATM    8  O   UNL     1     -10.406  14.932  65.148  1.00  0.00    -0.382 OA 
BRANCH   6   9
HETATM    9  C   UNL     1     -11.692  13.675  66.770  1.00  0.00    -0.426 A  
HETATM   10  C   UNL     1     -11.764  12.281  66.949  1.00  0.00    -0.404 A  
HETATM   11  C   UNL     1     -11.827  11.750  68.234  1.00  0.00    -0.271 A  
HETATM   12  O   UNL     1     -11.914  10.403  68.453  1.00  0.00    -0.759 OA 
HETATM   13  C   UNL     1     -11.813  12.588  69.344  1.00  0.00    -0.308 A  
HETATM   14  H   UNL     1     -11.957  10.039  69.330  1.00  0.00     0.000 HD 
HETATM   15  C   UNL     1     -11.734  13.963  69.192  1.00  0.00    -0.382 A  
HETATM   16  O   UNL     1     -11.883  12.056  70.599  1.00  0.00    -0.487 OA 
HETATM   17  H   UNL     1     -11.874  12.628  71.357  1.00  0.00     0.000 HD 
HETATM   18  C   UNL     1     -11.677  14.507  67.906  1.00  0.00    -0.381 A  
ENDBRANCH   6   9
ENDBRANCH   2   6
TORSDOF 2
ENDMDL
MODEL       14
REMARK 921   NORMALIZED FREE ENERGY PREDICTED BY IDOCK:   -5.26 KCAL/MOL
REMARK 922        TOTAL FREE ENERGY PREDICTED BY IDOCK:   -6.08 KCAL/MOL
REMARK 923 INTER-LIGAND FREE ENERGY PREDICTED BY IDOCK:   -5.87 KCAL/MOL
REMARK 924 INTRA-LIGAND FREE ENERGY PREDICTED BY IDOCK:   -0.21 KCAL/MOL
REMARK 927      BINDING AFFINITY PREDICTED BY RF-SCORE:    0.00 PKD
ROOT
HETATM    1  C   UNL     1      -9.958  11.621  63.291  1.00  0.00    -0.442 C  
HETATM    2  C   UNL     1     -11.292  11.737  64.035  1.00  0.00    -0.381 C  
HETATM    3  N   UNL     1     -12.386  11.608  63.050  1.00  0.00    -0.956 NA 
HETATM    4  H1  UNL     1     -13.274  11.685  63.546  1.00  0.00     0.000 HD 
HETATM    5  H2  UNL     1     -12.317  10.754  62.496  1.00  0.00     0.000 HD 
ENDROOT
BRANCH   2   6
HETATM    6  C   UNL     1     -11.446  13.072  64.825  1.00  0.00    -0.327 C  
HETATM    7  H   UNL     1     -10.443  14.761  65.007  1.00  0.00     0.000 HD 
HETATM    8  O   UNL     1     -10.349  13.948  64.526  1.00  0.00    -0.436 OA 
BRANCH   6   9
HETATM    9  C   UNL     1     -11.561  12.873  66.326  1.00  0.00    -0.424 A  
HETATM   10  C   UNL     1     -11.952  13.923  67.178  1.00  0.00    -0.455 A  
HETATM   11  C   UNL     1     -12.003  13.716  68.553  1.00  0.00    -0.361 A  
HETATM   12  O   UNL     1     -12.361  14.712  69.419  1.00  0.00    -0.510 OA 
HETATM   13  C   UNL     1     -11.676  12.476  69.091  1.00  0.00    -0.321 A  
HETATM   14  H   UNL     1     -12.397  14.572  70.358  1.00  0.00     0.000 HD 
HETATM   15  C   UNL     1     -11.297  11.425  68.271  1.00  0.00    -0.354 A  
HETATM   16  O   UNL     1     -11.722  12.287  70.443  1.00  0.00    -0.526 OA 
HETATM   17  H   UNL     1     -11.498  11.440  70.810  1.00  0.00     0.000 HD 
HETATM   18  C   UNL     1     -11.237  11.625  66.889  1.00  0.00    -0.376 A  
ENDBRANCH   6   9
ENDBRANCH   2   6
TORSDOF 2
ENDMDL
MODEL       15
REMARK 921   NORMALIZED FREE ENERGY PREDICTED BY IDOCK:   -5.26 KCAL/MOL
REMARK 922        TOTAL FREE ENERGY PREDICTED BY IDOCK:   -6.08 KCAL/MOL
REMARK 923 INTER-LIGAND FREE ENERGY PREDICTED BY IDOCK:   -5.89 KCAL/MOL
REMARK 924 INTRA-LIGAND FREE ENERGY PREDICTED BY IDOCK:   -0.19 KCAL/MOL
REMARK 927      BINDING AFFINITY PREDICTED BY RF-SCORE:    0.00 PKD
ROOT
HETATM    1  C   UNL     1     -12.360  16.261  73.182  1.00  0.00    -0.598 C  
HETATM    2  C   UNL     1     -11.994  15.410  71.962  1.00  0.00    -0.420 C  
HETATM    3  N   UNL     1     -11.419  16.300  70.931  1.00  0.00    -0.537 NA 
HETATM    4  H1  UNL     1     -11.175  15.733  70.119  1.00  0.00     0.000 HD 
HETATM    5  H2  UNL     1     -10.631  16.847  71.280  1.00  0.00     0.000 HD 
ENDROOT
BRANCH   2   6
HETATM    6  C   UNL     1     -13.205  14.627  71.368  1.00  0.00    -0.357 C  
HETATM    7  H   UNL     1     -15.080  14.277  71.872  1.00  0.00     0.000 HD 
HETATM    8  O   UNL     1     -14.343  14.754  72.234  1.00  0.00    -0.474 OA 
BRANCH   6   9
HETATM    9  C   UNL     1     -12.905  13.161  71.111  1.00  0.00    -0.349 A  
HETATM   10  C   UNL     1     -13.385  12.153  71.967  1.00  0.00    -0.470 A  
HETATM   11  C   UNL     1     -13.052  10.823  71.726  1.00  0.00    -0.468 A  
HETATM   12  O   UNL     1     -13.483   9.813  72.541  1.00  0.00    -0.627 OA 
HETATM   13  C   UNL     1     -12.252  10.483  70.640  1.00  0.00    -0.352 A  
HETATM   14  H   UNL     1     -13.256   8.905  72.377  1.00  0.00     0.000 HD 
HETATM   15  C   UNL     1     -11.775  11.459  69.779  1.00  0.00    -0.418 A  
HETATM   16  O   UNL     1     -11.925   9.176  70.418  1.00  0.00    -0.465 OA 
HETATM   17  H   UNL     1     -11.378   8.944  69.677  1.00  0.00     0.000 HD 
HETATM   18  C   UNL     1     -12.098  12.797  70.016  1.00  0.00    -0.355 A  
ENDBRANCH   6   9
ENDBRANCH   2   6
TORSDOF 2
ENDMDL
MODEL       16
REMARK 921   NORMALIZED FREE ENERGY PREDICTED BY IDOCK:   -5.26 KCAL/MOL
REMARK 922        TOTAL FREE ENERGY PREDICTED BY IDOCK:   -6.08 KCAL/MOL
REMARK 923 INTER-LIGAND FREE ENERGY PREDICTED BY IDOCK:   -5.91 KCAL/MOL
REMARK 924 INTRA-LIGAND FREE ENERGY PREDICTED BY IDOCK:   -0.17 KCAL/MOL
REMARK 927      BINDING AFFINITY PREDICTED BY RF-SCORE:    0.00 PKD
ROOT
HETATM    1  C   UNL     1     -12.594  12.074  63.336  1.00  0.00    -0.592 C  
HETATM    2  C   UNL     1     -11.150  12.178  63.838  1.00  0.00    -0.404 C  
HETATM    3  N   UNL     1     -10.488  10.875  63.617  1.00  0.00    -0.529 NA 
HETATM    4  H1  UNL     1      -9.527  10.944  63.951  1.00  0.00     0.000 HD 
HETATM    5  H2  UNL     1     -10.546  10.565  62.647  1.00  0.00     0.000 HD 
ENDROOT
BRANCH   2   6
HETATM    6  C   UNL     1     -11.045  12.576  65.342  1.00  0.00    -0.302 C  
HETATM    7  H   UNL     1     -12.249  12.630  66.905  1.00  0.00     0.000 HD 
HETATM    8  O   UNL     1     -12.313  12.387  65.989  1.00  0.00    -0.627 OA 
BRANCH   6   9
HETATM    9  C   UNL     1     -10.557  13.997  65.555  1.00  0.00    -0.327 A  
HETATM   10  C   UNL     1     -11.186  15.091  64.931  1.00  0.00    -0.423 A  
HETATM   11  C   UNL     1     -10.683  16.376  65.112  1.00  0.00    -0.291 A  
HETATM   12  O   UNL     1     -11.253  17.464  64.512  1.00  0.00    -1.018 OA 
HETATM   13  C   UNL     1      -9.566  16.587  65.913  1.00  0.00    -0.248 A  
HETATM   14  H   UNL     1     -10.910  18.341  64.636  1.00  0.00     0.000 HD 
HETATM   15  C   UNL     1      -8.935  15.527  66.544  1.00  0.00    -0.348 A  
HETATM   16  O   UNL     1      -9.076  17.852  66.077  1.00  0.00    -0.504 OA 
HETATM   17  H   UNL     1      -8.312  17.996  66.624  1.00  0.00     0.000 HD 
HETATM   18  C   UNL     1      -9.429  14.232  66.363  1.00  0.00    -0.297 A  
ENDBRANCH   6   9
ENDBRANCH   2   6
TORSDOF 2
ENDMDL
MODEL       17
REMARK 921   NORMALIZED FREE ENERGY PREDICTED BY IDOCK:   -5.25 KCAL/MOL
REMARK 922        TOTAL FREE ENERGY PREDICTED BY IDOCK:   -6.07 KCAL/MOL
REMARK 923 INTER-LIGAND FREE ENERGY PREDICTED BY IDOCK:   -5.88 KCAL/MOL
REMARK 924 INTRA-LIGAND FREE ENERGY PREDICTED BY IDOCK:   -0.19 KCAL/MOL
REMARK 927      BINDING AFFINITY PREDICTED BY RF-SCORE:    0.00 PKD
ROOT
HETATM    1  C   UNL     1     -12.130  13.902  63.773  1.00  0.00    -0.330 C  
HETATM    2  C   UNL     1     -11.865  15.102  64.688  1.00  0.00    -0.332 C  
HETATM    3  N   UNL     1     -11.621  16.287  63.840  1.00  0.00    -1.573 NA 
HETATM    4  H1  UNL     1     -11.445  17.086  64.449  1.00  0.00     0.000 HD 
HETATM    5  H2  UNL     1     -12.377  16.458  63.177  1.00  0.00     0.000 HD 
ENDROOT
BRANCH   2   6
HETATM    6  C   UNL     1     -10.661  14.888  65.657  1.00  0.00    -0.342 C  
HETATM    7  H   UNL     1      -9.550  13.373  66.259  1.00  0.00     0.000 HD 
HETATM    8  O   UNL     1     -10.283  13.503  65.669  1.00  0.00    -0.287 OA 
BRANCH   6   9
HETATM    9  C   UNL     1     -10.935  15.367  67.071  1.00  0.00    -0.306 A  
HETATM   10  C   UNL     1     -10.544  16.649  67.500  1.00  0.00    -0.311 A  
HETATM   11  C   UNL     1     -10.771  17.038  68.816  1.00  0.00    -0.313 A  
HETATM   12  O   UNL     1     -10.393  18.268  69.280  1.00  0.00    -0.452 OA 
HETATM   13  C   UNL     1     -11.389  16.170  69.710  1.00  0.00    -0.323 A  
HETATM   14  H   UNL     1     -10.548  18.534  70.179  1.00  0.00     0.000 HD 
HETATM   15  C   UNL     1     -11.790  14.906  69.308  1.00  0.00    -0.350 A  
HETATM   16  O   UNL     1     -11.599  16.559  71.003  1.00  0.00    -0.598 OA 
HETATM   17  H   UNL     1     -12.020  15.966  71.613  1.00  0.00     0.000 HD 
HETATM   18  C   UNL     1     -11.561  14.504  67.990  1.00  0.00    -0.364 A  
ENDBRANCH   6   9
ENDBRANCH   2   6
TORSDOF 2
ENDMDL
MODEL       18
REMARK 921   NORMALIZED FREE ENERGY PREDICTED BY IDOCK:   -5.24 KCAL/MOL
REMARK 922        TOTAL FREE ENERGY PREDICTED BY IDOCK:   -6.06 KCAL/MOL
REMARK 923 INTER-LIGAND FREE ENERGY PREDICTED BY IDOCK:   -5.81 KCAL/MOL
REMARK 924 INTRA-LIGAND FREE ENERGY PREDICTED BY IDOCK:   -0.25 KCAL/MOL
REMARK 927      BINDING AFFINITY PREDICTED BY RF-SCORE:    0.00 PKD
ROOT
HETATM    1  C   UNL     1     -10.289  12.367  64.034  1.00  0.00    -0.435 C  
HETATM    2  C   UNL     1     -11.734  12.010  64.399  1.00  0.00    -0.320 C  
HETATM    3  N   UNL     1     -12.441  11.616  63.162  1.00  0.00    -0.949 NA 
HETATM    4  H1  UNL     1     -13.402  11.379  63.405  1.00  0.00     0.000 HD 
HETATM    5  H2  UNL     1     -11.965  10.866  62.660  1.00  0.00     0.000 HD 
ENDROOT
BRANCH   2   6
HETATM    6  C   UNL     1     -12.501  13.173  65.099  1.00  0.00    -0.483 C  
HETATM    7  H   UNL     1     -13.094  14.994  64.628  1.00  0.00     0.000 HD 
HETATM    8  O   UNL     1     -12.627  14.286  64.202  1.00  0.00    -0.689 OA 
BRANCH   6   9
HETATM    9  C   UNL     1     -11.857  13.621  66.399  1.00  0.00    -0.433 A  
HETATM   10  C   UNL     1     -11.769  12.760  67.509  1.00  0.00    -0.422 A  
HETATM   11  C   UNL     1     -11.213  13.219  68.699  1.00  0.00    -0.274 A  
HETATM   12  O   UNL     1     -11.123  12.423  69.807  1.00  0.00    -0.470 OA 
HETATM   13  C   UNL     1     -10.737  14.522  68.797  1.00  0.00    -0.253 A  
HETATM   14  H   UNL     1     -10.743  12.736  70.620  1.00  0.00     0.000 HD 
HETATM   15  C   UNL     1     -10.806  15.385  67.715  1.00  0.00    -0.302 A  
HETATM   16  O   UNL     1     -10.201  14.965  69.973  1.00  0.00    -0.459 OA 
HETATM   17  H   UNL     1      -9.877  15.855  70.039  1.00  0.00     0.000 HD 
HETATM   18  C   UNL     1     -11.368  14.935  66.517  1.00  0.00    -0.319 A  
ENDBRANCH   6   9
ENDBRANCH   2   6
TORSDOF 2
ENDMDL
MODEL       19
REMARK 921   NORMALIZED FREE ENERGY PREDICTED BY IDOCK:   -5.23 KCAL/MOL
REMARK 922        TOTAL FREE ENERGY PREDICTED BY IDOCK:   -6.05 KCAL/MOL
REMARK 923 INTER-LIGAND FREE ENERGY PREDICTED BY IDOCK:   -6.08 KCAL/MOL
REMARK 924 INTRA-LIGAND FREE ENERGY PREDICTED BY IDOCK:    0.03 KCAL/MOL
REMARK 927      BINDING AFFINITY PREDICTED BY RF-SCORE:    0.00 PKD
ROOT
HETATM    1  C   UNL     1     -12.079  12.447  70.512  1.00  0.00    -0.363 C  
HETATM    2  C   UNL     1     -11.778  13.426  69.372  1.00  0.00    -0.325 C  
HETATM    3  N   UNL     1     -12.765  14.524  69.431  1.00  0.00    -0.507 NA 
HETATM    4  H1  UNL     1     -12.564  15.176  68.673  1.00  0.00     0.000 HD 
HETATM    5  H2  UNL     1     -12.791  14.980  70.344  1.00  0.00     0.000 HD 
ENDROOT
BRANCH   2   6
HETATM    6  C   UNL     1     -11.810  12.762  67.962  1.00  0.00    -0.336 C  
HETATM    7  H   UNL     1     -10.801  11.361  67.007  1.00  0.00     0.000 HD 
HETATM    8  O   UNL     1     -10.781  11.765  67.866  1.00  0.00    -0.191 OA 
BRANCH   6   9
HETATM    9  C   UNL     1     -11.678  13.759  66.825  1.00  0.00    -0.420 A  
HETATM   10  C   UNL     1     -10.818  14.869  66.918  1.00  0.00    -0.319 A  
HETATM   11  C   UNL     1     -10.756  15.788  65.875  1.00  0.00    -0.313 A  
HETATM   12  O   UNL     1      -9.947  16.889  65.931  1.00  0.00    -0.451 OA 
HETATM   13  C   UNL     1     -11.535  15.612  64.736  1.00  0.00    -0.283 A  
HETATM   14  H   UNL     1      -9.904  17.516  65.218  1.00  0.00     0.000 HD 
HETATM   15  C   UNL     1     -12.383  14.522  64.618  1.00  0.00    -0.419 A  
HETATM   16  O   UNL     1     -11.473  16.524  63.721  1.00  0.00    -1.615 OA 
HETATM   17  H   UNL     1     -12.005  16.405  62.944  1.00  0.00     0.000 HD 
HETATM   18  C   UNL     1     -12.456  13.598  65.664  1.00  0.00    -0.540 A  
ENDBRANCH   6   9
ENDBRANCH   2   6
TORSDOF 2
ENDMDL
MODEL       20
REMARK 921   NORMALIZED FREE ENERGY PREDICTED BY IDOCK:   -5.21 KCAL/MOL
REMARK 922        TOTAL FREE ENERGY PREDICTED BY IDOCK:   -6.03 KCAL/MOL
REMARK 923 INTER-LIGAND FREE ENERGY PREDICTED BY IDOCK:   -6.03 KCAL/MOL
REMARK 924 INTRA-LIGAND FREE ENERGY PREDICTED BY IDOCK:    0.01 KCAL/MOL
REMARK 927      BINDING AFFINITY PREDICTED BY RF-SCORE:    0.00 PKD
ROOT
HETATM    1  C   UNL     1     -12.032  15.565  69.139  1.00  0.00    -0.331 C  
HETATM    2  C   UNL     1     -10.510  15.733  69.097  1.00  0.00    -0.240 C  
HETATM    3  N   UNL     1     -10.207  17.137  68.751  1.00  0.00    -0.314 NA 
HETATM    4  H1  UNL     1      -9.194  17.249  68.723  1.00  0.00     0.000 HD 
HETATM    5  H2  UNL     1     -10.659  17.803  69.379  1.00  0.00     0.000 HD 
ENDROOT
BRANCH   2   6
HETATM    6  C   UNL     1      -9.810  14.776  68.084  1.00  0.00    -0.221 C  
HETATM    7  H   UNL     1      -8.044  14.643  67.214  1.00  0.00     0.000 HD 
HETATM    8  O   UNL     1      -8.471  15.226  67.831  1.00  0.00    -0.144 OA 
BRANCH   6   9
HETATM    9  C   UNL     1     -10.567  14.627  66.776  1.00  0.00    -0.288 A  
HETATM   10  C   UNL     1     -10.619  15.672  65.835  1.00  0.00    -0.354 A  
HETATM   11  C   UNL     1     -11.359  15.517  64.667  1.00  0.00    -0.357 A  
HETATM   12  O   UNL     1     -11.450  16.512  63.734  1.00  0.00    -1.615 OA 
HETATM   13  C   UNL     1     -12.044  14.332  64.421  1.00  0.00    -0.468 A  
HETATM   14  H   UNL     1     -11.956  16.406  62.936  1.00  0.00     0.000 HD 
HETATM   15  C   UNL     1     -12.001  13.286  65.329  1.00  0.00    -0.422 A  
HETATM   16  O   UNL     1     -12.775  14.193  63.276  1.00  0.00    -0.952 OA 
HETATM   17  H   UNL     1     -13.243  13.384  63.108  1.00  0.00     0.000 HD 
HETATM   18  C   UNL     1     -11.265  13.435  66.508  1.00  0.00    -0.327 A  
ENDBRANCH   6   9
ENDBRANCH   2   6
TORSDOF 2
ENDMDL
MODEL       21
REMARK 921   NORMALIZED FREE ENERGY PREDICTED BY IDOCK:   -5.20 KCAL/MOL
REMARK 922        TOTAL FREE ENERGY PREDICTED BY IDOCK:   -6.02 KCAL/MOL
REMARK 923 INTER-LIGAND FREE ENERGY PREDICTED BY IDOCK:   -5.85 KCAL/MOL
REMARK 924 INTRA-LIGAND FREE ENERGY PREDICTED BY IDOCK:   -0.18 KCAL/MOL
REMARK 927      BINDING AFFINITY PREDICTED BY RF-SCORE:    0.00 PKD
ROOT
HETATM    1  C   UNL     1     -10.173  10.109  66.795  1.00  0.00    -0.289 C  
HETATM    2  C   UNL     1     -11.226  10.476  67.846  1.00  0.00    -0.289 C  
HETATM    3  N   UNL     1     -11.940  11.685  67.385  1.00  0.00    -0.612 NA 
HETATM    4  H1  UNL     1     -12.640  11.929  68.085  1.00  0.00     0.000 HD 
HETATM    5  H2  UNL     1     -12.337  11.575  66.452  1.00  0.00     0.000 HD 
ENDROOT
BRANCH   2   6
HETATM    6  C   UNL     1     -10.625  10.724  69.263  1.00  0.00    -0.229 C  
HETATM    7  H   UNL     1      -8.960  10.272  70.220  1.00  0.00     0.000 HD 
HETATM    8  O   UNL     1      -9.326  10.121  69.357  1.00  0.00    -0.201 OA 
BRANCH   6   9
HETATM    9  C   UNL     1     -11.514  10.228  70.389  1.00  0.00    -0.415 A  
HETATM   10  C   UNL     1     -11.383   8.927  70.909  1.00  0.00    -0.336 A  
HETATM   11  C   UNL     1     -12.245   8.490  71.909  1.00  0.00    -0.352 A  
HETATM   12  O   UNL     1     -12.163   7.229  72.432  1.00  0.00    -0.477 OA 
HETATM   13  C   UNL     1     -13.233   9.334  72.404  1.00  0.00    -0.426 A  
HETATM   14  H   UNL     1     -12.752   6.930  73.115  1.00  0.00     0.000 HD 
HETATM   15  C   UNL     1     -13.376  10.622  71.914  1.00  0.00    -0.454 A  
HETATM   16  O   UNL     1     -14.080   8.892  73.381  1.00  0.00    -1.256 OA 
HETATM   17  H   UNL     1     -14.755   9.468  73.719  1.00  0.00     0.000 HD 
HETATM   18  C   UNL     1     -12.519  11.068  70.904  1.00  0.00    -0.509 A  
ENDBRANCH   6   9
ENDBRANCH   2   6
TORSDOF 2
ENDMDL
MODEL       22
REMARK 921   NORMALIZED FREE ENERGY PREDICTED BY IDOCK:   -5.19 KCAL/MOL
REMARK 922        TOTAL FREE ENERGY PREDICTED BY IDOCK:   -6.01 KCAL/MOL
REMARK 923 INTER-LIGAND FREE ENERGY PREDICTED BY IDOCK:   -5.96 KCAL/MOL
REMARK 924 INTRA-LIGAND FREE ENERGY PREDICTED BY IDOCK:   -0.05 KCAL/MOL
REMARK 927      BINDING AFFINITY PREDICTED BY RF-SCORE:    0.00 PKD
ROOT
HETATM    1  C   UNL     1      -9.987  17.696  67.276  1.00  0.00    -0.322 C  
HETATM    2  C   UNL     1     -10.082  16.508  66.313  1.00  0.00    -0.333 C  
HETATM    3  N   UNL     1     -10.690  16.981  65.052  1.00  0.00    -0.693 NA 
HETATM    4  H1  UNL     1     -10.753  16.190  64.411  1.00  0.00     0.000 HD 
HETATM    5  H2  UNL     1     -10.191  17.775  64.649  1.00  0.00     0.000 HD 
ENDROOT
BRANCH   2   6
HETATM    6  C   UNL     1     -10.908  15.315  66.883  1.00  0.00    -0.317 C  
HETATM    7  H   UNL     1     -10.721  14.003  68.345  1.00  0.00     0.000 HD 
HETATM    8  O   UNL     1     -10.218  14.730  67.998  1.00  0.00    -0.223 OA 
BRANCH   6   9
HETATM    9  C   UNL     1     -11.221  14.251  65.847  1.00  0.00    -0.319 A  
HETATM   10  C   UNL     1     -10.218  13.718  65.016  1.00  0.00    -0.370 A  
HETATM   11  C   UNL     1     -10.549  12.777  64.046  1.00  0.00    -0.416 A  
HETATM   12  O   UNL     1      -9.609  12.246  63.206  1.00  0.00    -0.650 OA 
HETATM   13  C   UNL     1     -11.865  12.355  63.896  1.00  0.00    -0.466 A  
HETATM   14  H   UNL     1      -9.835  11.603  62.544  1.00  0.00     0.000 HD 
HETATM   15  C   UNL     1     -12.869  12.859  64.708  1.00  0.00    -0.359 A  
HETATM   16  O   UNL     1     -12.181  11.437  62.935  1.00  0.00    -0.940 OA 
HETATM   17  H   UNL     1     -13.080  11.148  62.832  1.00  0.00     0.000 HD 
HETATM   18  C   UNL     1     -12.547  13.809  65.681  1.00  0.00    -0.551 A  
ENDBRANCH   6   9
ENDBRANCH   2   6
TORSDOF 2
ENDMDL
MODEL       23
REMARK 921   NORMALIZED FREE ENERGY PREDICTED BY IDOCK:   -5.18 KCAL/MOL
REMARK 922        TOTAL FREE ENERGY PREDICTED BY IDOCK:   -5.99 KCAL/MOL
REMARK 923 INTER-LIGAND FREE ENERGY PREDICTED BY IDOCK:   -5.74 KCAL/MOL
REMARK 924 INTRA-LIGAND FREE ENERGY PREDICTED BY IDOCK:   -0.25 KCAL/MOL
REMARK 927      BINDING AFFINITY PREDICTED BY RF-SCORE:    0.00 PKD
ROOT
HETATM    1  C   UNL     1     -10.329  12.318  63.748  1.00  0.00    -0.464 C  
HETATM    2  C   UNL     1     -11.752  11.977  64.202  1.00  0.00    -0.372 C  
HETATM    3  N   UNL     1     -12.503  11.474  63.033  1.00  0.00    -0.914 NA 
HETATM    4  H1  UNL     1     -13.451  11.247  63.335  1.00  0.00     0.000 HD 
HETATM    5  H2  UNL     1     -12.038  10.690  62.575  1.00  0.00     0.000 HD 
ENDROOT
BRANCH   2   6
HETATM    6  C   UNL     1     -12.506  13.186  64.835  1.00  0.00    -0.433 C  
HETATM    7  H   UNL     1     -12.942  15.040  64.320  1.00  0.00     0.000 HD 
HETATM    8  O   UNL     1     -12.483  14.304  63.935  1.00  0.00    -0.773 OA 
BRANCH   6   9
HETATM    9  C   UNL     1     -11.956  13.595  66.189  1.00  0.00    -0.453 A  
HETATM   10  C   UNL     1     -11.619  14.932  66.472  1.00  0.00    -0.254 A  
HETATM   11  C   UNL     1     -11.075  15.263  67.709  1.00  0.00    -0.318 A  
HETATM   12  O   UNL     1     -10.718  16.546  68.020  1.00  0.00    -0.321 OA 
HETATM   13  C   UNL     1     -10.867  14.281  68.672  1.00  0.00    -0.253 A  
HETATM   14  H   UNL     1     -10.347  16.772  68.864  1.00  0.00     0.000 HD 
HETATM   15  C   UNL     1     -11.199  12.959  68.419  1.00  0.00    -0.305 A  
HETATM   16  O   UNL     1     -10.325  14.616  69.880  1.00  0.00    -0.442 OA 
HETATM   17  H   UNL     1     -10.183  13.945  70.537  1.00  0.00     0.000 HD 
HETATM   18  C   UNL     1     -11.740  12.616  67.177  1.00  0.00    -0.438 A  
ENDBRANCH   6   9
ENDBRANCH   2   6
TORSDOF 2
ENDMDL
MODEL       24
REMARK 921   NORMALIZED FREE ENERGY PREDICTED BY IDOCK:   -5.17 KCAL/MOL
REMARK 922        TOTAL FREE ENERGY PREDICTED BY IDOCK:   -5.98 KCAL/MOL
REMARK 923 INTER-LIGAND FREE ENERGY PREDICTED BY IDOCK:   -5.83 KCAL/MOL
REMARK 924 INTRA-LIGAND FREE ENERGY PREDICTED BY IDOCK:   -0.16 KCAL/MOL
REMARK 927      BINDING AFFINITY PREDICTED BY RF-SCORE:    0.00 PKD
ROOT
HETATM    1  C   UNL     1     -11.457  15.131  70.758  1.00  0.00    -0.350 C  
HETATM    2  C   UNL     1     -11.669  14.175  69.579  1.00  0.00    -0.312 C  
HETATM    3  N   UNL     1     -11.717  12.795  70.105  1.00  0.00    -0.535 NA 
HETATM    4  H1  UNL     1     -11.859  12.159  69.321  1.00  0.00     0.000 HD 
HETATM    5  H2  UNL     1     -12.418  12.678  70.837  1.00  0.00     0.000 HD 
ENDROOT
BRANCH   2   6
HETATM    6  C   UNL     1     -10.563  14.286  68.485  1.00  0.00    -0.257 C  
HETATM    7  H   UNL     1      -9.112  15.542  68.028  1.00  0.00     0.000 HD 
HETATM    8  O   UNL     1      -9.785  15.474  68.694  1.00  0.00    -0.196 OA 
BRANCH   6   9
HETATM    9  C   UNL     1     -11.113  14.264  67.071  1.00  0.00    -0.317 A  
HETATM   10  C   UNL     1     -11.925  13.209  66.615  1.00  0.00    -0.451 A  
HETATM   11  C   UNL     1     -12.374  13.199  65.298  1.00  0.00    -0.481 A  
HETATM   12  O   UNL     1     -13.150  12.185  64.809  1.00  0.00    -0.602 OA 
HETATM   13  C   UNL     1     -12.031  14.230  64.430  1.00  0.00    -0.456 A  
HETATM   14  H   UNL     1     -13.458  12.178  63.910  1.00  0.00     0.000 HD 
HETATM   15  C   UNL     1     -11.241  15.284  64.859  1.00  0.00    -0.422 A  
HETATM   16  O   UNL     1     -12.471  14.206  63.137  1.00  0.00    -1.126 OA 
HETATM   17  H   UNL     1     -12.237  14.910  62.544  1.00  0.00     0.000 HD 
HETATM   18  C   UNL     1     -10.779  15.300  66.178  1.00  0.00    -0.322 A  
ENDBRANCH   6   9
ENDBRANCH   2   6
TORSDOF 2
ENDMDL
MODEL       25
REMARK 921   NORMALIZED FREE ENERGY PREDICTED BY IDOCK:   -5.16 KCAL/MOL
REMARK 922        TOTAL FREE ENERGY PREDICTED BY IDOCK:   -5.97 KCAL/MOL
REMARK 923 INTER-LIGAND FREE ENERGY PREDICTED BY IDOCK:   -5.74 KCAL/MOL
REMARK 924 INTRA-LIGAND FREE ENERGY PREDICTED BY IDOCK:   -0.22 KCAL/MOL
REMARK 927      BINDING AFFINITY PREDICTED BY RF-SCORE:    0.00 PKD
ROOT
HETATM    1  C   UNL     1     -11.416  11.948  67.265  1.00  0.00    -0.385 C  
HETATM    2  C   UNL     1     -10.813  11.949  68.674  1.00  0.00    -0.235 C  
HETATM    3  N   UNL     1      -9.568  12.745  68.645  1.00  0.00    -0.412 NA 
HETATM    4  H1  UNL     1      -9.167  12.746  69.583  1.00  0.00     0.000 HD 
HETATM    5  H2  UNL     1      -9.712  13.686  68.278  1.00  0.00     0.000 HD 
ENDROOT
BRANCH   2   6
HETATM    6  C   UNL     1     -10.515  10.520  69.221  1.00  0.00    -0.235 C  
HETATM    7  H   UNL     1     -10.375   8.696  68.483  1.00  0.00     0.000 HD 
HETATM    8  O   UNL     1     -10.557   9.566  68.149  1.00  0.00    -0.213 OA 
BRANCH   6   9
HETATM    9  C   UNL     1     -11.455  10.095  70.335  1.00  0.00    -0.400 A  
HETATM   10  C   UNL     1     -11.449   8.781  70.839  1.00  0.00    -0.330 A  
HETATM   11  C   UNL     1     -12.355   8.415  71.829  1.00  0.00    -0.331 A  
HETATM   12  O   UNL     1     -12.395   7.145  72.336  1.00  0.00    -0.494 OA 
HETATM   13  C   UNL     1     -13.264   9.341  72.330  1.00  0.00    -0.460 A  
HETATM   14  H   UNL     1     -13.014   6.895  73.012  1.00  0.00     0.000 HD 
HETATM   15  C   UNL     1     -13.282  10.643  71.855  1.00  0.00    -0.528 A  
HETATM   16  O   UNL     1     -14.154   8.969  73.296  1.00  0.00    -1.218 OA 
HETATM   17  H   UNL     1     -14.775   9.602  73.637  1.00  0.00     0.000 HD 
HETATM   18  C   UNL     1     -12.380  11.019  70.856  1.00  0.00    -0.503 A  
ENDBRANCH   6   9
ENDBRANCH   2   6
TORSDOF 2
ENDMDL
MODEL       26
REMARK 921   NORMALIZED FREE ENERGY PREDICTED BY IDOCK:   -5.14 KCAL/MOL
REMARK 922        TOTAL FREE ENERGY PREDICTED BY IDOCK:   -5.96 KCAL/MOL
REMARK 923 INTER-LIGAND FREE ENERGY PREDICTED BY IDOCK:   -5.76 KCAL/MOL
REMARK 924 INTRA-LIGAND FREE ENERGY PREDICTED BY IDOCK:   -0.20 KCAL/MOL
REMARK 927      BINDING AFFINITY PREDICTED BY RF-SCORE:    0.00 PKD
ROOT
HETATM    1  C   UNL     1     -12.074  12.180  63.617  1.00  0.00    -0.648 C  
HETATM    2  C   UNL     1     -12.036  13.477  64.431  1.00  0.00    -0.420 C  
HETATM    3  N   UNL     1     -12.528  14.577  63.575  1.00  0.00    -1.063 NA 
HETATM    4  H1  UNL     1     -12.503  15.440  64.117  1.00  0.00     0.000 HD 
HETATM    5  H2  UNL     1     -13.450  14.386  63.182  1.00  0.00     0.000 HD 
ENDROOT
BRANCH   2   6
HETATM    6  C   UNL     1     -10.617  13.825  64.975  1.00  0.00    -0.389 C  
HETATM    7  H   UNL     1      -9.059  12.834  65.669  1.00  0.00     0.000 HD 
HETATM    8  O   UNL     1      -9.923  12.622  65.338  1.00  0.00    -0.270 OA 
BRANCH   6   9
HETATM    9  C   UNL     1     -10.642  14.788  66.148  1.00  0.00    -0.314 A  
HETATM   10  C   UNL     1     -11.534  14.613  67.222  1.00  0.00    -0.386 A  
HETATM   11  C   UNL     1     -11.561  15.541  68.259  1.00  0.00    -0.334 A  
HETATM   12  O   UNL     1     -12.423  15.419  69.313  1.00  0.00    -0.592 OA 
HETATM   13  C   UNL     1     -10.706  16.638  68.244  1.00  0.00    -0.351 A  
HETATM   14  H   UNL     1     -12.441  16.052  70.021  1.00  0.00     0.000 HD 
HETATM   15  C   UNL     1      -9.812  16.826  67.201  1.00  0.00    -0.259 A  
HETATM   16  O   UNL     1     -10.746  17.547  69.262  1.00  0.00    -0.379 OA 
HETATM   17  H   UNL     1     -10.162  18.296  69.252  1.00  0.00     0.000 HD 
HETATM   18  C   UNL     1      -9.783  15.903  66.152  1.00  0.00    -0.351 A  
ENDBRANCH   6   9
ENDBRANCH   2   6
TORSDOF 2
ENDMDL
MODEL       27
REMARK 921   NORMALIZED FREE ENERGY PREDICTED BY IDOCK:   -5.13 KCAL/MOL
REMARK 922        TOTAL FREE ENERGY PREDICTED BY IDOCK:   -5.94 KCAL/MOL
REMARK 923 INTER-LIGAND FREE ENERGY PREDICTED BY IDOCK:   -5.75 KCAL/MOL
REMARK 924 INTRA-LIGAND FREE ENERGY PREDICTED BY IDOCK:   -0.19 KCAL/MOL
REMARK 927      BINDING AFFINITY PREDICTED BY RF-SCORE:    0.00 PKD
ROOT
HETATM    1  C   UNL     1     -11.095  16.446  68.622  1.00  0.00    -0.352 C  
HETATM    2  C   UNL     1     -11.632  15.093  68.145  1.00  0.00    -0.341 C  
HETATM    3  N   UNL     1     -12.347  14.454  69.270  1.00  0.00    -0.543 NA 
HETATM    4  H1  UNL     1     -12.704  13.553  68.951  1.00  0.00     0.000 HD 
HETATM    5  H2  UNL     1     -13.077  15.051  69.661  1.00  0.00     0.000 HD 
ENDROOT
BRANCH   2   6
HETATM    6  C   UNL     1     -10.519  14.138  67.615  1.00  0.00    -0.245 C  
HETATM    7  H   UNL     1      -8.617  14.283  67.112  1.00  0.00     0.000 HD 
HETATM    8  O   UNL     1      -9.295  14.865  67.435  1.00  0.00    -0.193 OA 
BRANCH   6   9
HETATM    9  C   UNL     1     -10.899  13.428  66.328  1.00  0.00    -0.294 A  
HETATM   10  C   UNL     1     -11.531  14.111  65.272  1.00  0.00    -0.330 A  
HETATM   11  C   UNL     1     -11.905  13.419  64.124  1.00  0.00    -0.442 A  
HETATM   12  O   UNL     1     -12.535  14.039  63.081  1.00  0.00    -1.137 OA 
HETATM   13  C   UNL     1     -11.654  12.055  64.012  1.00  0.00    -0.411 A  
HETATM   14  H   UNL     1     -12.791  13.566  62.298  1.00  0.00     0.000 HD 
HETATM   15  C   UNL     1     -11.026  11.363  65.036  1.00  0.00    -0.271 A  
HETATM   16  O   UNL     1     -12.034  11.383  62.885  1.00  0.00    -0.898 OA 
HETATM   17  H   UNL     1     -11.862  10.452  62.808  1.00  0.00     0.000 HD 
HETATM   18  C   UNL     1     -10.652  12.049  66.194  1.00  0.00    -0.298 A  
ENDBRANCH   6   9
ENDBRANCH   2   6
TORSDOF 2
ENDMDL
MODEL       28
REMARK 921   NORMALIZED FREE ENERGY PREDICTED BY IDOCK:   -5.13 KCAL/MOL
REMARK 922        TOTAL FREE ENERGY PREDICTED BY IDOCK:   -5.94 KCAL/MOL
REMARK 923 INTER-LIGAND FREE ENERGY PREDICTED BY IDOCK:   -5.72 KCAL/MOL
REMARK 924 INTRA-LIGAND FREE ENERGY PREDICTED BY IDOCK:   -0.22 KCAL/MOL
REMARK 927      BINDING AFFINITY PREDICTED BY RF-SCORE:    0.00 PKD
ROOT
HETATM    1  C   UNL     1     -10.782  16.926  68.515  1.00  0.00    -0.359 C  
HETATM    2  C   UNL     1      -9.554  16.069  68.190  1.00  0.00    -0.209 C  
HETATM    3  N   UNL     1      -8.358  16.753  68.724  1.00  0.00    -0.248 NA 
HETATM    4  H1  UNL     1      -7.540  16.182  68.508  1.00  0.00     0.000 HD 
HETATM    5  H2  UNL     1      -8.438  16.963  69.719  1.00  0.00     0.000 HD 
ENDROOT
BRANCH   2   6
HETATM    6  C   UNL     1      -9.373  15.802  66.664  1.00  0.00    -0.258 C  
HETATM    7  H   UNL     1      -9.310  16.877  65.012  1.00  0.00     0.000 HD 
HETATM    8  O   UNL     1      -9.421  17.040  65.940  1.00  0.00    -0.492 OA 
BRANCH   6   9
HETATM    9  C   UNL     1     -10.391  14.827  66.100  1.00  0.00    -0.314 A  
HETATM   10  C   UNL     1     -10.966  15.019  64.830  1.00  0.00    -0.389 A  
HETATM   11  C   UNL     1     -11.929  14.130  64.363  1.00  0.00    -0.457 A  
HETATM   12  O   UNL     1     -12.525  14.288  63.143  1.00  0.00    -1.102 OA 
HETATM   13  C   UNL     1     -12.323  13.047  65.143  1.00  0.00    -0.484 A  
HETATM   14  H   UNL     1     -13.183  13.681  62.824  1.00  0.00     0.000 HD 
HETATM   15  C   UNL     1     -11.765  12.833  66.393  1.00  0.00    -0.464 A  
HETATM   16  O   UNL     1     -13.276  12.185  64.679  1.00  0.00    -0.659 OA 
HETATM   17  H   UNL     1     -13.545  11.446  65.211  1.00  0.00     0.000 HD 
HETATM   18  C   UNL     1     -10.801  13.724  66.873  1.00  0.00    -0.286 A  
ENDBRANCH   6   9
ENDBRANCH   2   6
TORSDOF 2
ENDMDL
MODEL       29
REMARK 921   NORMALIZED FREE ENERGY PREDICTED BY IDOCK:   -5.04 KCAL/MOL
REMARK 922        TOTAL FREE ENERGY PREDICTED BY IDOCK:   -5.84 KCAL/MOL
REMARK 923 INTER-LIGAND FREE ENERGY PREDICTED BY IDOCK:   -5.64 KCAL/MOL
REMARK 924 INTRA-LIGAND FREE ENERGY PREDICTED BY IDOCK:   -0.20 KCAL/MOL
REMARK 927      BINDING AFFINITY PREDICTED BY RF-SCORE:    0.00 PKD
ROOT
HETATM    1  C   UNL     1     -10.775  18.854  65.788  1.00  0.00    -0.310 C  
HETATM    2  C   UNL     1     -10.079  17.521  66.080  1.00  0.00    -0.310 C  
HETATM    3  N   UNL     1      -8.618  17.743  66.043  1.00  0.00    -0.520 NA 
HETATM    4  H1  UNL     1      -8.155  16.855  66.238  1.00  0.00     0.000 HD 
HETATM    5  H2  UNL     1      -8.318  18.489  66.671  1.00  0.00     0.000 HD 
ENDROOT
BRANCH   2   6
HETATM    6  C   UNL     1     -10.467  16.388  65.082  1.00  0.00    -0.192 C  
HETATM    7  H   UNL     1     -11.720  16.165  63.574  1.00  0.00     0.000 HD 
HETATM    8  O   UNL     1     -11.483  16.855  64.182  1.00  0.00    -1.174 OA 
BRANCH   6   9
HETATM    9  C   UNL     1     -10.923  15.113  65.768  1.00  0.00    -0.350 A  
HETATM   10  C   UNL     1     -10.352  14.688  66.982  1.00  0.00    -0.263 A  
HETATM   11  C   UNL     1     -10.763  13.491  67.560  1.00  0.00    -0.259 A  
HETATM   12  O   UNL     1     -10.223  13.032  68.730  1.00  0.00    -0.373 OA 
HETATM   13  C   UNL     1     -11.739  12.713  66.948  1.00  0.00    -0.383 A  
HETATM   14  H   UNL     1     -10.504  12.215  69.125  1.00  0.00     0.000 HD 
HETATM   15  C   UNL     1     -12.322  13.115  65.756  1.00  0.00    -0.496 A  
HETATM   16  O   UNL     1     -12.129  11.535  67.519  1.00  0.00    -0.614 OA 
HETATM   17  H   UNL     1     -12.796  11.004  67.100  1.00  0.00     0.000 HD 
HETATM   18  C   UNL     1     -11.911  14.313  65.165  1.00  0.00    -0.395 A  
ENDBRANCH   6   9
ENDBRANCH   2   6
TORSDOF 2
ENDMDL
MODEL       30
REMARK 921   NORMALIZED FREE ENERGY PREDICTED BY IDOCK:   -5.04 KCAL/MOL
REMARK 922        TOTAL FREE ENERGY PREDICTED BY IDOCK:   -5.83 KCAL/MOL
REMARK 923 INTER-LIGAND FREE ENERGY PREDICTED BY IDOCK:   -5.74 KCAL/MOL
REMARK 924 INTRA-LIGAND FREE ENERGY PREDICTED BY IDOCK:   -0.09 KCAL/MOL
REMARK 927      BINDING AFFINITY PREDICTED BY RF-SCORE:    0.00 PKD
ROOT
HETATM    1  C   UNL     1     -11.886   7.784  72.659  1.00  0.00    -0.317 C  
HETATM    2  C   UNL     1     -12.729   9.053  72.492  1.00  0.00    -0.303 C  
HETATM    3  N   UNL     1     -14.136   8.719  72.796  1.00  0.00    -0.979 NA 
HETATM    4  H1  UNL     1     -14.696   9.564  72.684  1.00  0.00     0.000 HD 
HETATM    5  H2  UNL     1     -14.249   8.291  73.715  1.00  0.00     0.000 HD 
ENDROOT
BRANCH   2   6
HETATM    6  C   UNL     1     -12.629   9.679  71.068  1.00  0.00    -0.283 C  
HETATM    7  H   UNL     1     -11.392   9.577  69.534  1.00  0.00     0.000 HD 
HETATM    8  O   UNL     1     -11.453   9.196  70.402  1.00  0.00    -0.259 OA 
BRANCH   6   9
HETATM    9  C   UNL     1     -12.638  11.197  71.076  1.00  0.00    -0.503 A  
HETATM   10  C   UNL     1     -13.333  11.922  72.062  1.00  0.00    -0.425 A  
HETATM   11  C   UNL     1     -13.357  13.312  72.013  1.00  0.00    -0.489 A  
HETATM   12  O   UNL     1     -14.032  14.055  72.941  1.00  0.00    -0.617 OA 
HETATM   13  C   UNL     1     -12.692  13.992  70.998  1.00  0.00    -0.361 A  
HETATM   14  H   UNL     1     -14.049  15.004  72.908  1.00  0.00     0.000 HD 
HETATM   15  C   UNL     1     -11.994  13.300  70.020  1.00  0.00    -0.399 A  
HETATM   16  O   UNL     1     -12.729  15.356  70.954  1.00  0.00    -0.397 OA 
HETATM   17  H   UNL     1     -12.276  15.820  70.260  1.00  0.00     0.000 HD 
HETATM   18  C   UNL     1     -11.970  11.903  70.058  1.00  0.00    -0.409 A  
ENDBRANCH   6   9
ENDBRANCH   2   6
TORSDOF 2
ENDMDL
MODEL       31
REMARK 921   NORMALIZED FREE ENERGY PREDICTED BY IDOCK:   -4.98 KCAL/MOL
REMARK 922        TOTAL FREE ENERGY PREDICTED BY IDOCK:   -5.77 KCAL/MOL
REMARK 923 INTER-LIGAND FREE ENERGY PREDICTED BY IDOCK:   -5.57 KCAL/MOL
REMARK 924 INTRA-LIGAND FREE ENERGY PREDICTED BY IDOCK:   -0.21 KCAL/MOL
REMARK 927      BINDING AFFINITY PREDICTED BY RF-SCORE:    0.00 PKD
ROOT
HETATM    1  C   UNL     1     -12.168  15.344  73.429  1.00  0.00    -0.621 C  
HETATM    2  C   UNL     1     -12.123  14.898  71.964  1.00  0.00    -0.359 C  
HETATM    3  N   UNL     1     -12.185  16.103  71.110  1.00  0.00    -0.567 NA 
HETATM    4  H1  UNL     1     -12.154  15.805  70.135  1.00  0.00     0.000 HD 
HETATM    5  H2  UNL     1     -11.459  16.782  71.336  1.00  0.00     0.000 HD 
ENDROOT
BRANCH   2   6
HETATM    6  C   UNL     1     -13.273  13.917  71.580  1.00  0.00    -0.352 C  
HETATM    7  H   UNL     1     -14.900  13.201  72.435  1.00  0.00     0.000 HD 
HETATM    8  O   UNL     1     -14.199  13.798  72.669  1.00  0.00    -0.710 OA 
BRANCH   6   9
HETATM    9  C   UNL     1     -12.778  12.545  71.163  1.00  0.00    -0.340 A  
HETATM   10  C   UNL     1     -12.019  12.362  69.992  1.00  0.00    -0.372 A  
HETATM   11  C   UNL     1     -11.620  11.083  69.616  1.00  0.00    -0.318 A  
HETATM   12  O   UNL     1     -10.896  10.858  68.478  1.00  0.00    -0.189 OA 
HETATM   13  C   UNL     1     -11.961   9.982  70.395  1.00  0.00    -0.236 A  
HETATM   14  H   UNL     1     -10.623   9.985  68.222  1.00  0.00     0.000 HD 
HETATM   15  C   UNL     1     -12.701  10.138  71.557  1.00  0.00    -0.541 A  
HETATM   16  O   UNL     1     -11.572   8.730  70.013  1.00  0.00    -0.456 OA 
HETATM   17  H   UNL     1     -11.805   7.979  70.545  1.00  0.00     0.000 HD 
HETATM   18  C   UNL     1     -13.111  11.419  71.939  1.00  0.00    -0.505 A  
ENDBRANCH   6   9
ENDBRANCH   2   6
TORSDOF 2
ENDMDL
MODEL       32
REMARK 921   NORMALIZED FREE ENERGY PREDICTED BY IDOCK:   -4.97 KCAL/MOL
REMARK 922        TOTAL FREE ENERGY PREDICTED BY IDOCK:   -5.76 KCAL/MOL
REMARK 923 INTER-LIGAND FREE ENERGY PREDICTED BY IDOCK:   -5.56 KCAL/MOL
REMARK 924 INTRA-LIGAND FREE ENERGY PREDICTED BY IDOCK:   -0.21 KCAL/MOL
REMARK 927      BINDING AFFINITY PREDICTED BY RF-SCORE:    0.00 PKD
ROOT
HETATM    1  C   UNL     1     -12.397  12.387  63.548  1.00  0.00    -0.648 C  
HETATM    2  C   UNL     1     -11.165  13.081  64.138  1.00  0.00    -0.399 C  
HETATM    3  N   UNL     1      -9.958  12.458  63.556  1.00  0.00    -0.613 NA 
HETATM    4  H1  UNL     1      -9.138  12.920  63.949  1.00  0.00     0.000 HD 
HETATM    5  H2  UNL     1      -9.964  12.469  62.536  1.00  0.00     0.000 HD 
ENDROOT
BRANCH   2   6
HETATM    6  C   UNL     1     -11.100  13.007  65.695  1.00  0.00    -0.276 C  
HETATM    7  H   UNL     1     -12.196  12.243  67.146  1.00  0.00     0.000 HD 
HETATM    8  O   UNL     1     -12.236  12.288  66.199  1.00  0.00    -0.647 OA 
BRANCH   6   9
HETATM    9  C   UNL     1     -11.007  14.369  66.358  1.00  0.00    -0.319 A  
HETATM   10  C   UNL     1     -10.482  15.483  65.676  1.00  0.00    -0.393 A  
HETATM   11  C   UNL     1     -10.371  16.706  66.331  1.00  0.00    -0.306 A  
HETATM   12  O   UNL     1      -9.852  17.810  65.712  1.00  0.00    -0.541 OA 
HETATM   13  C   UNL     1     -10.780  16.836  67.654  1.00  0.00    -0.305 A  
HETATM   14  H   UNL     1      -9.776  18.645  66.158  1.00  0.00     0.000 HD 
HETATM   15  C   UNL     1     -11.307  15.755  68.342  1.00  0.00    -0.372 A  
HETATM   16  O   UNL     1     -10.658  18.039  68.289  1.00  0.00    -0.363 OA 
HETATM   17  H   UNL     1     -10.937  18.128  69.192  1.00  0.00     0.000 HD 
HETATM   18  C   UNL     1     -11.417  14.521  67.696  1.00  0.00    -0.374 A  
ENDBRANCH   6   9
ENDBRANCH   2   6
TORSDOF 2
ENDMDL
MODEL       33
REMARK 921   NORMALIZED FREE ENERGY PREDICTED BY IDOCK:   -4.97 KCAL/MOL
REMARK 922        TOTAL FREE ENERGY PREDICTED BY IDOCK:   -5.76 KCAL/MOL
REMARK 923 INTER-LIGAND FREE ENERGY PREDICTED BY IDOCK:   -5.58 KCAL/MOL
REMARK 924 INTRA-LIGAND FREE ENERGY PREDICTED BY IDOCK:   -0.19 KCAL/MOL
REMARK 927      BINDING AFFINITY PREDICTED BY RF-SCORE:    0.00 PKD
ROOT
HETATM    1  C   UNL     1     -10.446   5.350  69.957  1.00  0.00    -0.373 C  
HETATM    2  C   UNL     1     -11.235   6.574  69.481  1.00  0.00    -0.372 C  
HETATM    3  N   UNL     1     -11.512   6.415  68.038  1.00  0.00    -0.583 NA 
HETATM    4  H1  UNL     1     -12.038   7.230  67.722  1.00  0.00     0.000 HD 
HETATM    5  H2  UNL     1     -11.983   5.536  67.823  1.00  0.00     0.000 HD 
ENDROOT
BRANCH   2   6
HETATM    6  C   UNL     1     -10.495   7.924  69.733  1.00  0.00    -0.233 C  
HETATM    7  H   UNL     1      -8.823   8.508  70.601  1.00  0.00     0.000 HD 
HETATM    8  O   UNL     1      -9.274   7.687  70.448  1.00  0.00    -0.156 OA 
BRANCH   6   9
HETATM    9  C   UNL     1     -11.342   8.945  70.469  1.00  0.00    -0.268 A  
HETATM   10  C   UNL     1     -12.203   8.567  71.517  1.00  0.00    -0.355 A  
HETATM   11  C   UNL     1     -12.998   9.524  72.140  1.00  0.00    -0.412 A  
HETATM   12  O   UNL     1     -13.860   9.198  73.151  1.00  0.00    -1.065 OA 
HETATM   13  C   UNL     1     -12.944  10.854  71.738  1.00  0.00    -0.451 A  
HETATM   14  H   UNL     1     -14.403   9.851  73.576  1.00  0.00     0.000 HD 
HETATM   15  C   UNL     1     -12.099  11.251  70.714  1.00  0.00    -0.450 A  
HETATM   16  O   UNL     1     -13.736  11.783  72.350  1.00  0.00    -0.487 OA 
HETATM   17  H   UNL     1     -13.699  12.692  72.075  1.00  0.00     0.000 HD 
HETATM   18  C   UNL     1     -11.301  10.296  70.078  1.00  0.00    -0.370 A  
ENDBRANCH   6   9
ENDBRANCH   2   6
TORSDOF 2
ENDMDL
MODEL       34
REMARK 921   NORMALIZED FREE ENERGY PREDICTED BY IDOCK:   -4.95 KCAL/MOL
REMARK 922        TOTAL FREE ENERGY PREDICTED BY IDOCK:   -5.74 KCAL/MOL
REMARK 923 INTER-LIGAND FREE ENERGY PREDICTED BY IDOCK:   -5.54 KCAL/MOL
REMARK 924 INTRA-LIGAND FREE ENERGY PREDICTED BY IDOCK:   -0.20 KCAL/MOL
REMARK 927      BINDING AFFINITY PREDICTED BY RF-SCORE:    0.00 PKD
ROOT
HETATM    1  C   UNL     1     -12.567  11.967  63.612  1.00  0.00    -0.605 C  
HETATM    2  C   UNL     1     -12.532  13.255  64.440  1.00  0.00    -0.290 C  
HETATM    3  N   UNL     1     -12.593  14.405  63.513  1.00  0.00    -1.000 NA 
HETATM    4  H1  UNL     1     -12.570  15.262  64.064  1.00  0.00     0.000 HD 
HETATM    5  H2  UNL     1     -13.398  14.362  62.887  1.00  0.00     0.000 HD 
ENDROOT
BRANCH   2   6
HETATM    6  C   UNL     1     -11.268  13.374  65.347  1.00  0.00    -0.288 C  
HETATM    7  H   UNL     1      -9.509  12.492  65.487  1.00  0.00     0.000 HD 
HETATM    8  O   UNL     1     -10.279  12.420  64.935  1.00  0.00    -0.281 OA 
BRANCH   6   9
HETATM    9  C   UNL     1     -11.571  13.209  66.825  1.00  0.00    -0.414 A  
HETATM   10  C   UNL     1     -11.990  14.295  67.615  1.00  0.00    -0.400 A  
HETATM   11  C   UNL     1     -12.215  14.116  68.976  1.00  0.00    -0.239 A  
HETATM   12  O   UNL     1     -12.607  15.148  69.784  1.00  0.00    -0.567 OA 
HETATM   13  C   UNL     1     -12.036  12.867  69.561  1.00  0.00    -0.285 A  
HETATM   14  H   UNL     1     -12.761  15.026  70.713  1.00  0.00     0.000 HD 
HETATM   15  C   UNL     1     -11.632  11.780  68.801  1.00  0.00    -0.367 A  
HETATM   16  O   UNL     1     -12.251  12.704  70.900  1.00  0.00    -0.416 OA 
HETATM   17  H   UNL     1     -12.128  11.851  71.299  1.00  0.00     0.000 HD 
HETATM   18  C   UNL     1     -11.397  11.952  67.434  1.00  0.00    -0.389 A  
ENDBRANCH   6   9
ENDBRANCH   2   6
TORSDOF 2
ENDMDL
MODEL       35
REMARK 921   NORMALIZED FREE ENERGY PREDICTED BY IDOCK:   -4.94 KCAL/MOL
REMARK 922        TOTAL FREE ENERGY PREDICTED BY IDOCK:   -5.73 KCAL/MOL
REMARK 923 INTER-LIGAND FREE ENERGY PREDICTED BY IDOCK:   -5.53 KCAL/MOL
REMARK 924 INTRA-LIGAND FREE ENERGY PREDICTED BY IDOCK:   -0.20 KCAL/MOL
REMARK 927      BINDING AFFINITY PREDICTED BY RF-SCORE:    0.00 PKD
ROOT
HETATM    1  C   UNL     1     -10.931   8.512  71.980  1.00  0.00    -0.410 C  
HETATM    2  C   UNL     1     -12.147   9.372  71.619  1.00  0.00    -0.388 C  
HETATM    3  N   UNL     1     -13.253   8.473  71.230  1.00  0.00    -0.513 NA 
HETATM    4  H1  UNL     1     -14.062   9.045  70.991  1.00  0.00     0.000 HD 
HETATM    5  H2  UNL     1     -13.463   7.776  71.946  1.00  0.00     0.000 HD 
ENDROOT
BRANCH   2   6
HETATM    6  C   UNL     1     -11.866  10.391  70.473  1.00  0.00    -0.337 C  
HETATM    7  H   UNL     1     -10.286  11.068  69.503  1.00  0.00     0.000 HD 
HETATM    8  O   UNL     1     -10.457  10.447  70.202  1.00  0.00    -0.252 OA 
BRANCH   6   9
HETATM    9  C   UNL     1     -12.398  11.783  70.762  1.00  0.00    -0.433 A  
HETATM   10  C   UNL     1     -12.108  12.870  69.917  1.00  0.00    -0.335 A  
HETATM   11  C   UNL     1     -12.575  14.141  70.237  1.00  0.00    -0.306 A  
HETATM   12  O   UNL     1     -12.304  15.228  69.453  1.00  0.00    -0.548 OA 
HETATM   13  C   UNL     1     -13.333  14.343  71.386  1.00  0.00    -0.349 A  
HETATM   14  H   UNL     1     -12.623  16.096  69.671  1.00  0.00     0.000 HD 
HETATM   15  C   UNL     1     -13.637  13.287  72.230  1.00  0.00    -0.703 A  
HETATM   16  O   UNL     1     -13.779  15.597  71.696  1.00  0.00    -0.485 OA 
HETATM   17  H   UNL     1     -14.296  15.735  72.481  1.00  0.00     0.000 HD 
HETATM   18  C   UNL     1     -13.167  12.008  71.919  1.00  0.00    -0.469 A  
ENDBRANCH   6   9
ENDBRANCH   2   6
TORSDOF 2
ENDMDL
MODEL       36
REMARK 921   NORMALIZED FREE ENERGY PREDICTED BY IDOCK:   -4.93 KCAL/MOL
REMARK 922        TOTAL FREE ENERGY PREDICTED BY IDOCK:   -5.72 KCAL/MOL
REMARK 923 INTER-LIGAND FREE ENERGY PREDICTED BY IDOCK:   -5.53 KCAL/MOL
REMARK 924 INTRA-LIGAND FREE ENERGY PREDICTED BY IDOCK:   -0.19 KCAL/MOL
REMARK 927      BINDING AFFINITY PREDICTED BY RF-SCORE:    0.00 PKD
ROOT
HETATM    1  C   UNL     1      -8.360  10.956  68.800  1.00  0.00    -0.151 C  
HETATM    2  C   UNL     1      -9.778  11.399  68.426  1.00  0.00    -0.203 C  
HETATM    3  N   UNL     1     -10.654  11.187  69.598  1.00  0.00    -0.454 NA 
HETATM    4  H1  UNL     1     -11.598  11.483  69.349  1.00  0.00     0.000 HD 
HETATM    5  H2  UNL     1     -10.306  11.651  70.437  1.00  0.00     0.000 HD 
ENDROOT
BRANCH   2   6
HETATM    6  C   UNL     1     -10.356  10.644  67.190  1.00  0.00    -0.228 C  
HETATM    7  H   UNL     1      -9.700   9.341  65.863  1.00  0.00     0.000 HD 
HETATM    8  O   UNL     1      -9.348   9.800  66.615  1.00  0.00    -0.149 OA 
BRANCH   6   9
HETATM    9  C   UNL     1     -10.926  11.572  66.132  1.00  0.00    -0.320 A  
HETATM   10  C   UNL     1     -11.959  12.480  66.432  1.00  0.00    -0.386 A  
HETATM   11  C   UNL     1     -12.488  13.284  65.426  1.00  0.00    -0.489 A  
HETATM   12  O   UNL     1     -13.503  14.167  65.669  1.00  0.00    -0.725 OA 
HETATM   13  C   UNL     1     -11.998  13.200  64.127  1.00  0.00    -0.436 A  
HETATM   14  H   UNL     1     -13.864  14.716  64.983  1.00  0.00     0.000 HD 
HETATM   15  C   UNL     1     -10.976  12.319  63.811  1.00  0.00    -0.495 A  
HETATM   16  O   UNL     1     -12.530  13.987  63.147  1.00  0.00    -1.137 OA 
HETATM   17  H   UNL     1     -12.196  13.929  62.260  1.00  0.00     0.000 HD 
HETATM   18  C   UNL     1     -10.442  11.503  64.812  1.00  0.00    -0.354 A  
ENDBRANCH   6   9
ENDBRANCH   2   6
TORSDOF 2
ENDMDL
MODEL       37
REMARK 921   NORMALIZED FREE ENERGY PREDICTED BY IDOCK:   -4.92 KCAL/MOL
REMARK 922        TOTAL FREE ENERGY PREDICTED BY IDOCK:   -5.70 KCAL/MOL
REMARK 923 INTER-LIGAND FREE ENERGY PREDICTED BY IDOCK:   -5.54 KCAL/MOL
REMARK 924 INTRA-LIGAND FREE ENERGY PREDICTED BY IDOCK:   -0.16 KCAL/MOL
REMARK 927      BINDING AFFINITY PREDICTED BY RF-SCORE:    0.00 PKD
ROOT
HETATM    1  C   UNL     1     -10.022  10.551  69.479  1.00  0.00    -0.187 C  
HETATM    2  C   UNL     1     -11.148  11.202  68.671  1.00  0.00    -0.239 C  
HETATM    3  N   UNL     1     -12.441  10.761  69.236  1.00  0.00    -0.684 NA 
HETATM    4  H1  UNL     1     -13.190  11.195  68.698  1.00  0.00     0.000 HD 
HETATM    5  H2  UNL     1     -12.516  10.948  70.236  1.00  0.00     0.000 HD 
ENDROOT
BRANCH   2   6
HETATM    6  C   UNL     1     -11.094  10.863  67.149  1.00  0.00    -0.240 C  
HETATM    7  H   UNL     1      -9.739  10.227  65.864  1.00  0.00     0.000 HD 
HETATM    8  O   UNL     1      -9.772  10.433  66.790  1.00  0.00    -0.170 OA 
BRANCH   6   9
HETATM    9  C   UNL     1     -11.528  12.016  66.261  1.00  0.00    -0.408 A  
HETATM   10  C   UNL     1     -11.552  11.893  64.860  1.00  0.00    -0.290 A  
HETATM   11  C   UNL     1     -11.912  12.984  64.075  1.00  0.00    -0.456 A  
HETATM   12  O   UNL     1     -11.934  12.914  62.709  1.00  0.00    -0.631 OA 
HETATM   13  C   UNL     1     -12.254  14.195  64.668  1.00  0.00    -0.445 A  
HETATM   14  H   UNL     1     -12.180  13.659  62.173  1.00  0.00     0.000 HD 
HETATM   15  C   UNL     1     -12.245  14.337  66.046  1.00  0.00    -0.422 A  
HETATM   16  O   UNL     1     -12.597  15.262  63.888  1.00  0.00    -0.922 OA 
HETATM   17  H   UNL     1     -12.831  16.089  64.293  1.00  0.00     0.000 HD 
HETATM   18  C   UNL     1     -11.879  13.248  66.843  1.00  0.00    -0.446 A  
ENDBRANCH   6   9
ENDBRANCH   2   6
TORSDOF 2
ENDMDL
MODEL       38
REMARK 921   NORMALIZED FREE ENERGY PREDICTED BY IDOCK:   -4.91 KCAL/MOL
REMARK 922        TOTAL FREE ENERGY PREDICTED BY IDOCK:   -5.69 KCAL/MOL
REMARK 923 INTER-LIGAND FREE ENERGY PREDICTED BY IDOCK:   -5.52 KCAL/MOL
REMARK 924 INTRA-LIGAND FREE ENERGY PREDICTED BY IDOCK:   -0.17 KCAL/MOL
REMARK 927      BINDING AFFINITY PREDICTED BY RF-SCORE:    0.00 PKD
ROOT
HETATM    1  C   UNL     1     -10.729  16.221  66.165  1.00  0.00    -0.198 C  
HETATM    2  C   UNL     1     -10.807  15.465  64.835  1.00  0.00    -0.425 C  
HETATM    3  N   UNL     1     -11.540  16.307  63.865  1.00  0.00    -1.573 NA 
HETATM    4  H1  UNL     1     -11.591  15.804  62.980  1.00  0.00     0.000 HD 
HETATM    5  H2  UNL     1     -11.132  17.237  63.766  1.00  0.00     0.000 HD 
ENDROOT
BRANCH   2   6
HETATM    6  C   UNL     1     -11.499  14.073  64.954  1.00  0.00    -0.358 C  
HETATM    7  H   UNL     1     -13.346  13.386  65.043  1.00  0.00     0.000 HD 
HETATM    8  O   UNL     1     -12.925  14.234  64.971  1.00  0.00    -0.693 OA 
BRANCH   6   9
HETATM    9  C   UNL     1     -11.048  13.280  66.168  1.00  0.00    -0.300 A  
HETATM   10  C   UNL     1      -9.718  12.843  66.307  1.00  0.00    -0.268 A  
HETATM   11  C   UNL     1      -9.351  12.080  67.411  1.00  0.00    -0.178 A  
HETATM   12  O   UNL     1      -8.074  11.620  67.577  1.00  0.00    -0.131 OA 
HETATM   13  C   UNL     1     -10.290  11.751  68.383  1.00  0.00    -0.214 A  
HETATM   14  H   UNL     1      -7.823  11.099  68.331  1.00  0.00     0.000 HD 
HETATM   15  C   UNL     1     -11.604  12.178  68.272  1.00  0.00    -0.382 A  
HETATM   16  O   UNL     1      -9.921  10.995  69.458  1.00  0.00    -0.430 OA 
HETATM   17  H   UNL     1     -10.563  10.770  70.122  1.00  0.00     0.000 HD 
HETATM   18  C   UNL     1     -11.983  12.939  67.163  1.00  0.00    -0.374 A  
ENDBRANCH   6   9
ENDBRANCH   2   6
TORSDOF 2
ENDMDL
MODEL       39
REMARK 921   NORMALIZED FREE ENERGY PREDICTED BY IDOCK:   -4.90 KCAL/MOL
REMARK 922        TOTAL FREE ENERGY PREDICTED BY IDOCK:   -5.69 KCAL/MOL
REMARK 923 INTER-LIGAND FREE ENERGY PREDICTED BY IDOCK:   -5.51 KCAL/MOL
REMARK 924 INTRA-LIGAND FREE ENERGY PREDICTED BY IDOCK:   -0.18 KCAL/MOL
REMARK 927      BINDING AFFINITY PREDICTED BY RF-SCORE:    0.00 PKD
ROOT
HETATM    1  C   UNL     1      -8.723  10.528  69.136  1.00  0.00    -0.155 C  
HETATM    2  C   UNL     1      -9.293  11.521  68.118  1.00  0.00    -0.185 C  
HETATM    3  N   UNL     1      -9.079  12.889  68.634  1.00  0.00    -0.396 NA 
HETATM    4  H1  UNL     1      -9.459  13.550  67.956  1.00  0.00     0.000 HD 
HETATM    5  H2  UNL     1      -8.102  13.075  68.859  1.00  0.00     0.000 HD 
ENDROOT
BRANCH   2   6
HETATM    6  C   UNL     1     -10.808  11.299  67.819  1.00  0.00    -0.235 C  
HETATM    7  H   UNL     1     -12.009   9.759  67.541  1.00  0.00     0.000 HD 
HETATM    8  O   UNL     1     -11.087   9.894  67.723  1.00  0.00    -0.269 OA 
BRANCH   6   9
HETATM    9  C   UNL     1     -11.284  12.013  66.567  1.00  0.00    -0.387 A  
HETATM   10  C   UNL     1     -10.884  11.594  65.285  1.00  0.00    -0.340 A  
HETATM   11  C   UNL     1     -11.304  12.300  64.162  1.00  0.00    -0.376 A  
HETATM   12  O   UNL     1     -10.925  11.937  62.899  1.00  0.00    -0.642 OA 
HETATM   13  C   UNL     1     -12.123  13.416  64.298  1.00  0.00    -0.424 A  
HETATM   14  H   UNL     1     -11.212  12.419  62.132  1.00  0.00     0.000 HD 
HETATM   15  C   UNL     1     -12.537  13.843  65.550  1.00  0.00    -0.560 A  
HETATM   16  O   UNL     1     -12.522  14.107  63.190  1.00  0.00    -1.126 OA 
HETATM   17  H   UNL     1     -13.081  14.869  63.283  1.00  0.00     0.000 HD 
HETATM   18  C   UNL     1     -12.115  13.143  66.684  1.00  0.00    -0.409 A  
ENDBRANCH   6   9
ENDBRANCH   2   6
TORSDOF 2
ENDMDL
MODEL       40
REMARK 921   NORMALIZED FREE ENERGY PREDICTED BY IDOCK:   -4.87 KCAL/MOL
REMARK 922        TOTAL FREE ENERGY PREDICTED BY IDOCK:   -5.64 KCAL/MOL
REMARK 923 INTER-LIGAND FREE ENERGY PREDICTED BY IDOCK:   -5.46 KCAL/MOL
REMARK 924 INTRA-LIGAND FREE ENERGY PREDICTED BY IDOCK:   -0.19 KCAL/MOL
REMARK 927      BINDING AFFINITY PREDICTED BY RF-SCORE:    0.00 PKD
ROOT
HETATM    1  C   UNL     1     -11.642  14.327  66.670  1.00  0.00    -0.397 C  
HETATM    2  C   UNL     1     -11.577  15.250  67.892  1.00  0.00    -0.289 C  
HETATM    3  N   UNL     1     -10.900  16.501  67.491  1.00  0.00    -0.284 NA 
HETATM    4  H1  UNL     1     -10.857  17.116  68.305  1.00  0.00     0.000 HD 
HETATM    5  H2  UNL     1     -11.341  16.946  66.686  1.00  0.00     0.000 HD 
ENDROOT
BRANCH   2   6
HETATM    6  C   UNL     1     -10.837  14.614  69.109  1.00  0.00    -0.259 C  
HETATM    7  H   UNL     1     -10.206  12.820  69.633  1.00  0.00     0.000 HD 
HETATM    8  O   UNL     1     -10.656  13.207  68.892  1.00  0.00    -0.216 OA 
BRANCH   6   9
HETATM    9  C   UNL     1     -11.543  14.853  70.431  1.00  0.00    -0.330 A  
HETATM   10  C   UNL     1     -12.480  13.934  70.939  1.00  0.00    -0.447 A  
HETATM   11  C   UNL     1     -13.141  14.207  72.133  1.00  0.00    -0.401 A  
HETATM   12  O   UNL     1     -14.071  13.351  72.655  1.00  0.00    -0.767 OA 
HETATM   13  C   UNL     1     -12.876  15.380  72.832  1.00  0.00    -0.445 A  
HETATM   14  H   UNL     1     -14.522  13.537  73.470  1.00  0.00     0.000 HD 
HETATM   15  C   UNL     1     -11.951  16.296  72.356  1.00  0.00    -0.630 A  
HETATM   16  O   UNL     1     -13.537  15.642  73.998  1.00  0.00    -0.579 OA 
HETATM   17  H   UNL     1     -13.356  16.443  74.475  1.00  0.00     0.000 HD 
HETATM   18  C   UNL     1     -11.287  16.033  71.154  1.00  0.00    -0.413 A  
ENDBRANCH   6   9
ENDBRANCH   2   6
TORSDOF 2
ENDMDL
MODEL       41
REMARK 921   NORMALIZED FREE ENERGY PREDICTED BY IDOCK:   -4.84 KCAL/MOL
REMARK 922        TOTAL FREE ENERGY PREDICTED BY IDOCK:   -5.62 KCAL/MOL
REMARK 923 INTER-LIGAND FREE ENERGY PREDICTED BY IDOCK:   -5.68 KCAL/MOL
REMARK 924 INTRA-LIGAND FREE ENERGY PREDICTED BY IDOCK:    0.05 KCAL/MOL
REMARK 927      BINDING AFFINITY PREDICTED BY RF-SCORE:    0.00 PKD
ROOT
HETATM    1  C   UNL     1     -10.935  11.938  63.612  1.00  0.00    -0.511 C  
HETATM    2  C   UNL     1     -12.247  12.663  63.930  1.00  0.00    -0.481 C  
HETATM    3  N   UNL     1     -12.389  13.797  62.992  1.00  0.00    -1.030 NA 
HETATM    4  H1  UNL     1     -13.262  14.279  63.203  1.00  0.00     0.000 HD 
HETATM    5  H2  UNL     1     -12.326  13.508  62.015  1.00  0.00     0.000 HD 
ENDROOT
BRANCH   2   6
HETATM    6  C   UNL     1     -12.328  13.180  65.399  1.00  0.00    -0.481 C  
HETATM    7  H   UNL     1     -13.543  14.316  66.460  1.00  0.00     0.000 HD 
HETATM    8  O   UNL     1     -13.493  14.002  65.565  1.00  0.00    -0.677 OA 
BRANCH   6   9
HETATM    9  C   UNL     1     -11.088  13.935  65.840  1.00  0.00    -0.291 A  
HETATM   10  C   UNL     1     -10.914  15.300  65.541  1.00  0.00    -0.365 A  
HETATM   11  C   UNL     1      -9.744  15.949  65.922  1.00  0.00    -0.351 A  
HETATM   12  O   UNL     1      -9.527  17.269  65.637  1.00  0.00    -0.515 OA 
HETATM   13  C   UNL     1      -8.747  15.260  66.603  1.00  0.00    -0.291 A  
HETATM   14  H   UNL     1      -8.728  17.713  65.897  1.00  0.00     0.000 HD 
HETATM   15  C   UNL     1      -8.899  13.918  66.916  1.00  0.00    -0.210 A  
HETATM   16  O   UNL     1      -7.599  15.905  66.965  1.00  0.00    -0.197 OA 
HETATM   17  H   UNL     1      -6.917  15.434  67.430  1.00  0.00     0.000 HD 
HETATM   18  C   UNL     1     -10.068  13.256  66.532  1.00  0.00    -0.275 A  
ENDBRANCH   6   9
ENDBRANCH   2   6
TORSDOF 2
ENDMDL
MODEL       42
REMARK 921   NORMALIZED FREE ENERGY PREDICTED BY IDOCK:   -4.80 KCAL/MOL
REMARK 922        TOTAL FREE ENERGY PREDICTED BY IDOCK:   -5.58 KCAL/MOL
REMARK 923 INTER-LIGAND FREE ENERGY PREDICTED BY IDOCK:   -5.39 KCAL/MOL
REMARK 924 INTRA-LIGAND FREE ENERGY PREDICTED BY IDOCK:   -0.18 KCAL/MOL
REMARK 927      BINDING AFFINITY PREDICTED BY RF-SCORE:    0.00 PKD
ROOT
HETATM    1  C   UNL     1      -7.098   9.647  64.510  1.00  0.00    -0.121 C  
HETATM    2  C   UNL     1      -8.590   9.660  64.859  1.00  0.00    -0.170 C  
HETATM    3  N   UNL     1      -8.991   8.287  65.234  1.00  0.00    -0.398 NA 
HETATM    4  H1  UNL     1      -9.984   8.296  65.466  1.00  0.00     0.000 HD 
HETATM    5  H2  UNL     1      -8.415   7.901  65.982  1.00  0.00     0.000 HD 
ENDROOT
BRANCH   2   6
HETATM    6  C   UNL     1      -9.493  10.177  63.698  1.00  0.00    -0.267 C  
HETATM    7  H   UNL     1      -9.229  11.033  61.941  1.00  0.00     0.000 HD 
HETATM    8  O   UNL     1      -8.679  10.719  62.648  1.00  0.00    -0.217 OA 
BRANCH   6   9
HETATM    9  C   UNL     1     -10.519  11.202  64.145  1.00  0.00    -0.442 A  
HETATM   10  C   UNL     1     -11.108  12.098  63.233  1.00  0.00    -0.408 A  
HETATM   11  C   UNL     1     -12.011  13.054  63.686  1.00  0.00    -0.539 A  
HETATM   12  O   UNL     1     -12.595  13.954  62.838  1.00  0.00    -0.966 OA 
HETATM   13  C   UNL     1     -12.341  13.127  65.035  1.00  0.00    -0.459 A  
HETATM   14  H   UNL     1     -13.211  14.607  63.147  1.00  0.00     0.000 HD 
HETATM   15  C   UNL     1     -11.781  12.250  65.951  1.00  0.00    -0.451 A  
HETATM   16  O   UNL     1     -13.223  14.075  65.471  1.00  0.00    -0.710 OA 
HETATM   17  H   UNL     1     -13.448  14.125  66.392  1.00  0.00     0.000 HD 
HETATM   18  C   UNL     1     -10.867  11.290  65.506  1.00  0.00    -0.244 A  
ENDBRANCH   6   9
ENDBRANCH   2   6
TORSDOF 2
ENDMDL
MODEL       43
REMARK 921   NORMALIZED FREE ENERGY PREDICTED BY IDOCK:   -4.76 KCAL/MOL
REMARK 922        TOTAL FREE ENERGY PREDICTED BY IDOCK:   -5.53 KCAL/MOL
REMARK 923 INTER-LIGAND FREE ENERGY PREDICTED BY IDOCK:   -5.61 KCAL/MOL
REMARK 924 INTRA-LIGAND FREE ENERGY PREDICTED BY IDOCK:    0.08 KCAL/MOL
REMARK 927      BINDING AFFINITY PREDICTED BY RF-SCORE:    0.00 PKD
ROOT
HETATM    1  C   UNL     1     -13.001  14.922  72.773  1.00  0.00    -0.542 C  
HETATM    2  C   UNL     1     -12.742  15.613  71.431  1.00  0.00    -0.471 C  
HETATM    3  N   UNL     1     -13.893  15.347  70.543  1.00  0.00    -0.707 NA 
HETATM    4  H1  UNL     1     -13.721  15.807  69.649  1.00  0.00     0.000 HD 
HETATM    5  H2  UNL     1     -14.783  15.621  70.961  1.00  0.00     0.000 HD 
ENDROOT
BRANCH   2   6
HETATM    6  C   UNL     1     -11.423  15.148  70.740  1.00  0.00    -0.309 C  
HETATM    7  H   UNL     1      -9.782  15.999  70.050  1.00  0.00     0.000 HD 
HETATM    8  O   UNL     1     -10.585  16.282  70.471  1.00  0.00    -0.111 OA 
BRANCH   6   9
HETATM    9  C   UNL     1     -11.659  14.359  69.465  1.00  0.00    -0.352 A  
HETATM   10  C   UNL     1     -11.810  12.960  69.485  1.00  0.00    -0.383 A  
HETATM   11  C   UNL     1     -11.980  12.263  68.293  1.00  0.00    -0.200 A  
HETATM   12  O   UNL     1     -12.114  10.903  68.265  1.00  0.00    -0.783 OA 
HETATM   13  C   UNL     1     -12.006  12.943  67.079  1.00  0.00    -0.325 A  
HETATM   14  H   UNL     1     -12.230  10.427  67.451  1.00  0.00     0.000 HD 
HETATM   15  C   UNL     1     -11.867  14.321  67.035  1.00  0.00    -0.455 A  
HETATM   16  O   UNL     1     -12.164  12.248  65.914  1.00  0.00    -0.634 OA 
HETATM   17  H   UNL     1     -12.182  12.712  65.085  1.00  0.00     0.000 HD 
HETATM   18  C   UNL     1     -11.690  15.028  68.227  1.00  0.00    -0.338 A  
ENDBRANCH   6   9
ENDBRANCH   2   6
TORSDOF 2
ENDMDL
MODEL       44
REMARK 921   NORMALIZED FREE ENERGY PREDICTED BY IDOCK:   -4.75 KCAL/MOL
REMARK 922        TOTAL FREE ENERGY PREDICTED BY IDOCK:   -5.52 KCAL/MOL
REMARK 923 INTER-LIGAND FREE ENERGY PREDICTED BY IDOCK:   -5.32 KCAL/MOL
REMARK 924 INTRA-LIGAND FREE ENERGY PREDICTED BY IDOCK:   -0.20 KCAL/MOL
REMARK 927      BINDING AFFINITY PREDICTED BY RF-SCORE:    0.00 PKD
ROOT
HETATM    1  C   UNL     1      -9.831  13.440  66.302  1.00  0.00    -0.295 C  
HETATM    2  C   UNL     1     -10.052  13.387  67.817  1.00  0.00    -0.232 C  
HETATM    3  N   UNL     1      -8.732  13.281  68.474  1.00  0.00    -0.335 NA 
HETATM    4  H1  UNL     1      -8.879  13.246  69.483  1.00  0.00     0.000 HD 
HETATM    5  H2  UNL     1      -8.094  14.027  68.196  1.00  0.00     0.000 HD 
ENDROOT
BRANCH   2   6
HETATM    6  C   UNL     1     -10.963  12.205  68.269  1.00  0.00    -0.234 C  
HETATM    7  H   UNL     1     -12.381  11.093  67.466  1.00  0.00     0.000 HD 
HETATM    8  O   UNL     1     -11.826  11.813  67.191  1.00  0.00    -0.599 OA 
BRANCH   6   9
HETATM    9  C   UNL     1     -11.783  12.518  69.507  1.00  0.00    -0.375 A  
HETATM   10  C   UNL     1     -12.184  11.505  70.398  1.00  0.00    -0.442 A  
HETATM   11  C   UNL     1     -12.973  11.822  71.499  1.00  0.00    -0.341 A  
HETATM   12  O   UNL     1     -13.398  10.868  72.381  1.00  0.00    -0.600 OA 
HETATM   13  C   UNL     1     -13.365  13.137  71.729  1.00  0.00    -0.389 A  
HETATM   14  H   UNL     1     -13.937  11.084  73.133  1.00  0.00     0.000 HD 
HETATM   15  C   UNL     1     -12.975  14.153  70.870  1.00  0.00    -0.374 A  
HETATM   16  O   UNL     1     -14.147  13.437  72.808  1.00  0.00    -0.715 OA 
HETATM   17  H   UNL     1     -14.414  14.335  72.964  1.00  0.00     0.000 HD 
HETATM   18  C   UNL     1     -12.188  13.843  69.758  1.00  0.00    -0.388 A  
ENDBRANCH   6   9
ENDBRANCH   2   6
TORSDOF 2
ENDMDL
MODEL       45
REMARK 921   NORMALIZED FREE ENERGY PREDICTED BY IDOCK:   -4.75 KCAL/MOL
REMARK 922        TOTAL FREE ENERGY PREDICTED BY IDOCK:   -5.51 KCAL/MOL
REMARK 923 INTER-LIGAND FREE ENERGY PREDICTED BY IDOCK:   -5.32 KCAL/MOL
REMARK 924 INTRA-LIGAND FREE ENERGY PREDICTED BY IDOCK:   -0.19 KCAL/MOL
REMARK 927      BINDING AFFINITY PREDICTED BY RF-SCORE:    0.00 PKD
ROOT
HETATM    1  C   UNL     1      -8.524   8.063  67.883  1.00  0.00    -0.125 C  
HETATM    2  C   UNL     1      -9.937   8.216  68.455  1.00  0.00    -0.190 C  
HETATM    3  N   UNL     1     -10.897   8.204  67.330  1.00  0.00    -0.509 NA 
HETATM    4  H1  UNL     1     -11.837   8.306  67.711  1.00  0.00     0.000 HD 
HETATM    5  H2  UNL     1     -10.799   7.378  66.739  1.00  0.00     0.000 HD 
ENDROOT
BRANCH   2   6
HETATM    6  C   UNL     1     -10.127   9.514  69.298  1.00  0.00    -0.198 C  
HETATM    7  H   UNL     1      -9.005  10.661  70.445  1.00  0.00     0.000 HD 
HETATM    8  O   UNL     1      -8.889   9.871  69.931  1.00  0.00    -0.203 OA 
BRANCH   6   9
HETATM    9  C   UNL     1     -11.230   9.401  70.334  1.00  0.00    -0.309 A  
HETATM   10  C   UNL     1     -11.931  10.535  70.786  1.00  0.00    -0.472 A  
HETATM   11  C   UNL     1     -12.906  10.401  71.770  1.00  0.00    -0.456 A  
HETATM   12  O   UNL     1     -13.599  11.477  72.250  1.00  0.00    -0.535 OA 
HETATM   13  C   UNL     1     -13.197   9.151  72.305  1.00  0.00    -0.461 A  
HETATM   14  H   UNL     1     -14.265  11.386  72.921  1.00  0.00     0.000 HD 
HETATM   15  C   UNL     1     -12.527   8.019  71.870  1.00  0.00    -0.364 A  
HETATM   16  O   UNL     1     -14.150   9.031  73.276  1.00  0.00    -1.218 OA 
HETATM   17  H   UNL     1     -14.349   8.177  73.642  1.00  0.00     0.000 HD 
HETATM   18  C   UNL     1     -11.541   8.145  70.886  1.00  0.00    -0.283 A  
ENDBRANCH   6   9
ENDBRANCH   2   6
TORSDOF 2
ENDMDL
MODEL       46
REMARK 921   NORMALIZED FREE ENERGY PREDICTED BY IDOCK:   -4.74 KCAL/MOL
REMARK 922        TOTAL FREE ENERGY PREDICTED BY IDOCK:   -5.50 KCAL/MOL
REMARK 923 INTER-LIGAND FREE ENERGY PREDICTED BY IDOCK:   -5.27 KCAL/MOL
REMARK 924 INTRA-LIGAND FREE ENERGY PREDICTED BY IDOCK:   -0.23 KCAL/MOL
REMARK 927      BINDING AFFINITY PREDICTED BY RF-SCORE:    0.00 PKD
ROOT
HETATM    1  C   UNL     1     -12.472  14.206  64.823  1.00  0.00    -0.395 C  
HETATM    2  C   UNL     1     -11.106  14.096  65.508  1.00  0.00    -0.310 C  
HETATM    3  N   UNL     1     -10.147  13.520  64.542  1.00  0.00    -0.629 NA 
HETATM    4  H1  UNL     1      -9.238  13.448  64.999  1.00  0.00     0.000 HD 
HETATM    5  H2  UNL     1     -10.107  14.044  63.668  1.00  0.00     0.000 HD 
ENDROOT
BRANCH   2   6
HETATM    6  C   UNL     1     -11.132  13.233  66.807  1.00  0.00    -0.292 C  
HETATM    7  H   UNL     1     -12.154  11.689  67.488  1.00  0.00     0.000 HD 
HETATM    8  O   UNL     1     -12.138  12.215  66.698  1.00  0.00    -0.622 OA 
BRANCH   6   9
HETATM    9  C   UNL     1     -11.350  14.050  68.067  1.00  0.00    -0.320 A  
HETATM   10  C   UNL     1     -11.902  13.476  69.228  1.00  0.00    -0.392 A  
HETATM   11  C   UNL     1     -12.129  14.266  70.351  1.00  0.00    -0.339 A  
HETATM   12  O   UNL     1     -12.679  13.754  71.493  1.00  0.00    -0.343 OA 
HETATM   13  C   UNL     1     -11.808  15.619  70.336  1.00  0.00    -0.370 A  
HETATM   14  H   UNL     1     -12.834  14.292  72.260  1.00  0.00     0.000 HD 
HETATM   15  C   UNL     1     -11.256  16.204  69.207  1.00  0.00    -0.337 A  
HETATM   16  O   UNL     1     -12.043  16.387  71.441  1.00  0.00    -0.615 OA 
HETATM   17  H   UNL     1     -11.824  17.311  71.430  1.00  0.00     0.000 HD 
HETATM   18  C   UNL     1     -11.030  15.420  68.073  1.00  0.00    -0.307 A  
ENDBRANCH   6   9
ENDBRANCH   2   6
TORSDOF 2
ENDMDL
MODEL       47
REMARK 921   NORMALIZED FREE ENERGY PREDICTED BY IDOCK:   -4.74 KCAL/MOL
REMARK 922        TOTAL FREE ENERGY PREDICTED BY IDOCK:   -5.50 KCAL/MOL
REMARK 923 INTER-LIGAND FREE ENERGY PREDICTED BY IDOCK:   -5.32 KCAL/MOL
REMARK 924 INTRA-LIGAND FREE ENERGY PREDICTED BY IDOCK:   -0.18 KCAL/MOL
REMARK 927      BINDING AFFINITY PREDICTED BY RF-SCORE:    0.00 PKD
ROOT
HETATM    1  C   UNL     1     -10.443  16.508  68.344  1.00  0.00    -0.307 C  
HETATM    2  C   UNL     1     -10.626  15.346  69.325  1.00  0.00    -0.252 C  
HETATM    3  N   UNL     1      -9.316  15.048  69.941  1.00  0.00    -0.452 NA 
HETATM    4  H1  UNL     1      -9.438  14.274  70.595  1.00  0.00     0.000 HD 
HETATM    5  H2  UNL     1      -8.892  15.867  70.377  1.00  0.00     0.000 HD 
ENDROOT
BRANCH   2   6
HETATM    6  C   UNL     1     -11.202  14.059  68.659  1.00  0.00    -0.268 C  
HETATM    7  H   UNL     1     -12.477  13.633  67.215  1.00  0.00     0.000 HD 
HETATM    8  O   UNL     1     -12.126  14.416  67.621  1.00  0.00    -0.363 OA 
BRANCH   6   9
HETATM    9  C   UNL     1     -11.866  13.117  69.647  1.00  0.00    -0.390 A  
HETATM   10  C   UNL     1     -12.509  13.599  70.803  1.00  0.00    -0.432 A  
HETATM   11  C   UNL     1     -13.068  12.703  71.709  1.00  0.00    -0.360 A  
HETATM   12  O   UNL     1     -13.687  13.127  72.853  1.00  0.00    -0.648 OA 
HETATM   13  C   UNL     1     -13.000  11.334  71.478  1.00  0.00    -0.415 A  
HETATM   14  H   UNL     1     -14.069  12.516  73.472  1.00  0.00     0.000 HD 
HETATM   15  C   UNL     1     -12.380  10.836  70.343  1.00  0.00    -0.438 A  
HETATM   16  O   UNL     1     -13.545  10.463  72.379  1.00  0.00    -0.593 OA 
HETATM   17  H   UNL     1     -13.498   9.528  72.221  1.00  0.00     0.000 HD 
HETATM   18  C   UNL     1     -11.810  11.728  69.430  1.00  0.00    -0.398 A  
ENDBRANCH   6   9
ENDBRANCH   2   6
TORSDOF 2
ENDMDL
MODEL       48
REMARK 921   NORMALIZED FREE ENERGY PREDICTED BY IDOCK:   -4.73 KCAL/MOL
REMARK 922        TOTAL FREE ENERGY PREDICTED BY IDOCK:   -5.49 KCAL/MOL
REMARK 923 INTER-LIGAND FREE ENERGY PREDICTED BY IDOCK:   -5.46 KCAL/MOL
REMARK 924 INTRA-LIGAND FREE ENERGY PREDICTED BY IDOCK:   -0.03 KCAL/MOL
REMARK 927      BINDING AFFINITY PREDICTED BY RF-SCORE:    0.00 PKD
ROOT
HETATM    1  C   UNL     1     -11.022  12.612  68.767  1.00  0.00    -0.289 C  
HETATM    2  C   UNL     1     -10.259  13.934  68.633  1.00  0.00    -0.218 C  
HETATM    3  N   UNL     1     -10.481  14.725  69.862  1.00  0.00    -0.458 NA 
HETATM    4  H1  UNL     1      -9.973  15.605  69.772  1.00  0.00     0.000 HD 
HETATM    5  H2  UNL     1     -10.234  14.212  70.708  1.00  0.00     0.000 HD 
ENDROOT
BRANCH   2   6
HETATM    6  C   UNL     1     -10.680  14.768  67.384  1.00  0.00    -0.281 C  
HETATM    7  H   UNL     1     -12.023  16.150  66.962  1.00  0.00     0.000 HD 
HETATM    8  O   UNL     1     -11.767  15.642  67.722  1.00  0.00    -0.221 OA 
BRANCH   6   9
HETATM    9  C   UNL     1     -11.051  13.912  66.187  1.00  0.00    -0.299 A  
HETATM   10  C   UNL     1     -10.076  13.453  65.281  1.00  0.00    -0.266 A  
HETATM   11  C   UNL     1     -10.459  12.708  64.170  1.00  0.00    -0.413 A  
HETATM   12  O   UNL     1      -9.547  12.256  63.257  1.00  0.00    -0.650 OA 
HETATM   13  C   UNL     1     -11.799  12.408  63.952  1.00  0.00    -0.466 A  
HETATM   14  H   UNL     1      -9.808  11.748  62.498  1.00  0.00     0.000 HD 
HETATM   15  C   UNL     1     -12.776  12.841  64.834  1.00  0.00    -0.479 A  
HETATM   16  O   UNL     1     -12.164  11.683  62.853  1.00  0.00    -0.908 OA 
HETATM   17  H   UNL     1     -13.080  11.478  62.704  1.00  0.00     0.000 HD 
HETATM   18  C   UNL     1     -12.402  13.596  65.950  1.00  0.00    -0.516 A  
ENDBRANCH   6   9
ENDBRANCH   2   6
TORSDOF 2
ENDMDL
MODEL       49
REMARK 921   NORMALIZED FREE ENERGY PREDICTED BY IDOCK:   -4.73 KCAL/MOL
REMARK 922        TOTAL FREE ENERGY PREDICTED BY IDOCK:   -5.49 KCAL/MOL
REMARK 923 INTER-LIGAND FREE ENERGY PREDICTED BY IDOCK:   -5.29 KCAL/MOL
REMARK 924 INTRA-LIGAND FREE ENERGY PREDICTED BY IDOCK:   -0.20 KCAL/MOL
REMARK 927      BINDING AFFINITY PREDICTED BY RF-SCORE:    0.00 PKD
ROOT
HETATM    1  C   UNL     1     -11.424  15.853  64.482  1.00  0.00    -0.287 C  
HETATM    2  C   UNL     1     -11.038  14.938  65.648  1.00  0.00    -0.348 C  
HETATM    3  N   UNL     1      -9.588  14.664  65.563  1.00  0.00    -0.520 NA 
HETATM    4  H1  UNL     1      -9.332  14.054  66.339  1.00  0.00     0.000 HD 
HETATM    5  H2  UNL     1      -9.029  15.516  65.530  1.00  0.00     0.000 HD 
ENDROOT
BRANCH   2   6
HETATM    6  C   UNL     1     -11.830  13.595  65.669  1.00  0.00    -0.364 C  
HETATM    7  H   UNL     1     -13.700  13.023  65.411  1.00  0.00     0.000 HD 
HETATM    8  O   UNL     1     -13.218  13.841  65.399  1.00  0.00    -0.722 OA 
BRANCH   6   9
HETATM    9  C   UNL     1     -11.679  12.829  66.971  1.00  0.00    -0.440 A  
HETATM   10  C   UNL     1     -11.874  13.452  68.217  1.00  0.00    -0.393 A  
HETATM   11  C   UNL     1     -11.683  12.730  69.391  1.00  0.00    -0.319 A  
HETATM   12  O   UNL     1     -11.846  13.301  70.623  1.00  0.00    -0.518 OA 
HETATM   13  C   UNL     1     -11.307  11.392  69.341  1.00  0.00    -0.297 A  
HETATM   14  H   UNL     1     -11.716  12.808  71.425  1.00  0.00     0.000 HD 
HETATM   15  C   UNL     1     -11.117  10.754  68.125  1.00  0.00    -0.337 A  
HETATM   16  O   UNL     1     -11.114  10.695  70.499  1.00  0.00    -0.422 OA 
HETATM   17  H   UNL     1     -10.856   9.782  70.465  1.00  0.00     0.000 HD 
HETATM   18  C   UNL     1     -11.300  11.473  66.941  1.00  0.00    -0.324 A  
ENDBRANCH   6   9
ENDBRANCH   2   6
TORSDOF 2
ENDMDL
MODEL       50
REMARK 921   NORMALIZED FREE ENERGY PREDICTED BY IDOCK:   -4.72 KCAL/MOL
REMARK 922        TOTAL FREE ENERGY PREDICTED BY IDOCK:   -5.49 KCAL/MOL
REMARK 923 INTER-LIGAND FREE ENERGY PREDICTED BY IDOCK:   -5.35 KCAL/MOL
REMARK 924 INTRA-LIGAND FREE ENERGY PREDICTED BY IDOCK:   -0.14 KCAL/MOL
REMARK 927      BINDING AFFINITY PREDICTED BY RF-SCORE:    0.00 PKD
ROOT
HETATM    1  C   UNL     1     -10.373   7.866  67.423  1.00  0.00    -0.349 C  
HETATM    2  C   UNL     1     -10.159   8.785  66.216  1.00  0.00    -0.184 C  
HETATM    3  N   UNL     1      -9.087   8.207  65.378  1.00  0.00    -0.400 NA 
HETATM    4  H1  UNL     1      -8.945   8.819  64.574  1.00  0.00     0.000 HD 
HETATM    5  H2  UNL     1      -9.277   7.242  65.108  1.00  0.00     0.000 HD 
ENDROOT
BRANCH   2   6
HETATM    6  C   UNL     1      -9.792  10.248  66.609  1.00  0.00    -0.204 C  
HETATM    7  H   UNL     1      -9.844  11.356  68.241  1.00  0.00     0.000 HD 
HETATM    8  O   UNL     1     -10.067  10.465  68.001  1.00  0.00    -0.155 OA 
BRANCH   6   9
HETATM    9  C   UNL     1     -10.503  11.293  65.768  1.00  0.00    -0.310 A  
HETATM   10  C   UNL     1     -11.338  12.263  66.353  1.00  0.00    -0.405 A  
HETATM   11  C   UNL     1     -12.009  13.177  65.547  1.00  0.00    -0.412 A  
HETATM   12  O   UNL     1     -12.842  14.126  66.071  1.00  0.00    -0.485 OA 
HETATM   13  C   UNL     1     -11.855  13.142  64.165  1.00  0.00    -0.429 A  
HETATM   14  H   UNL     1     -13.300  14.750  65.521  1.00  0.00     0.000 HD 
HETATM   15  C   UNL     1     -11.032  12.201  63.567  1.00  0.00    -0.521 A  
HETATM   16  O   UNL     1     -12.526  14.038  63.382  1.00  0.00    -1.108 OA 
HETATM   17  H   UNL     1     -12.421  14.014  62.438  1.00  0.00     0.000 HD 
HETATM   18  C   UNL     1     -10.359  11.275  64.368  1.00  0.00    -0.388 A  
ENDBRANCH   6   9
ENDBRANCH   2   6
TORSDOF 2
ENDMDL
MODEL       51
REMARK 921   NORMALIZED FREE ENERGY PREDICTED BY IDOCK:   -4.72 KCAL/MOL
REMARK 922        TOTAL FREE ENERGY PREDICTED BY IDOCK:   -5.48 KCAL/MOL
REMARK 923 INTER-LIGAND FREE ENERGY PREDICTED BY IDOCK:   -5.28 KCAL/MOL
REMARK 924 INTRA-LIGAND FREE ENERGY PREDICTED BY IDOCK:   -0.20 KCAL/MOL
REMARK 927      BINDING AFFINITY PREDICTED BY RF-SCORE:    0.00 PKD
ROOT
HETATM    1  C   UNL     1     -10.033  14.427  67.002  1.00  0.00    -0.257 C  
HETATM    2  C   UNL     1     -11.352  13.893  67.571  1.00  0.00    -0.318 C  
HETATM    3  N   UNL     1     -12.445  14.292  66.660  1.00  0.00    -0.543 NA 
HETATM    4  H1  UNL     1     -13.323  13.937  67.038  1.00  0.00     0.000 HD 
HETATM    5  H2  UNL     1     -12.282  13.994  65.698  1.00  0.00     0.000 HD 
ENDROOT
BRANCH   2   6
HETATM    6  C   UNL     1     -11.654  14.402  69.014  1.00  0.00    -0.296 C  
HETATM    7  H   UNL     1     -10.690  15.388  70.424  1.00  0.00     0.000 HD 
HETATM    8  O   UNL     1     -10.506  15.079  69.546  1.00  0.00    -0.241 OA 
BRANCH   6   9
HETATM    9  C   UNL     1     -12.095  13.299  69.959  1.00  0.00    -0.385 A  
HETATM   10  C   UNL     1     -11.907  11.941  69.642  1.00  0.00    -0.406 A  
HETATM   11  C   UNL     1     -12.364  10.956  70.512  1.00  0.00    -0.374 A  
HETATM   12  O   UNL     1     -12.217   9.625  70.235  1.00  0.00    -0.469 OA 
HETATM   13  C   UNL     1     -13.000  11.305  71.698  1.00  0.00    -0.432 A  
HETATM   14  H   UNL     1     -12.529   8.952  70.829  1.00  0.00     0.000 HD 
HETATM   15  C   UNL     1     -13.189  12.636  72.036  1.00  0.00    -0.531 A  
HETATM   16  O   UNL     1     -13.452  10.330  72.541  1.00  0.00    -0.600 OA 
HETATM   17  H   UNL     1     -13.887  10.569  73.351  1.00  0.00     0.000 HD 
HETATM   18  C   UNL     1     -12.739  13.632  71.166  1.00  0.00    -0.432 A  
ENDBRANCH   6   9
ENDBRANCH   2   6
TORSDOF 2
ENDMDL
MODEL       52
REMARK 921   NORMALIZED FREE ENERGY PREDICTED BY IDOCK:   -4.71 KCAL/MOL
REMARK 922        TOTAL FREE ENERGY PREDICTED BY IDOCK:   -5.47 KCAL/MOL
REMARK 923 INTER-LIGAND FREE ENERGY PREDICTED BY IDOCK:   -5.44 KCAL/MOL
REMARK 924 INTRA-LIGAND FREE ENERGY PREDICTED BY IDOCK:   -0.03 KCAL/MOL
REMARK 927      BINDING AFFINITY PREDICTED BY RF-SCORE:    0.00 PKD
ROOT
HETATM    1  C   UNL     1      -7.188  12.988  68.954  1.00  0.00    -0.047 C  
HETATM    2  C   UNL     1      -7.935  12.972  67.617  1.00  0.00    -0.169 C  
HETATM    3  N   UNL     1      -7.032  12.416  66.587  1.00  0.00    -0.345 NA 
HETATM    4  H1  UNL     1      -7.530  12.406  65.697  1.00  0.00     0.000 HD 
HETATM    5  H2  UNL     1      -6.663  11.500  66.842  1.00  0.00     0.000 HD 
ENDROOT
BRANCH   2   6
HETATM    6  C   UNL     1      -8.441  14.379  67.173  1.00  0.00    -0.208 C  
HETATM    7  H   UNL     1      -9.177  15.986  68.049  1.00  0.00     0.000 HD 
HETATM    8  O   UNL     1      -8.870  15.129  68.319  1.00  0.00    -0.165 OA 
BRANCH   6   9
HETATM    9  C   UNL     1      -9.552  14.320  66.141  1.00  0.00    -0.300 A  
HETATM   10  C   UNL     1     -10.015  15.481  65.494  1.00  0.00    -0.377 A  
HETATM   11  C   UNL     1     -11.067  15.396  64.586  1.00  0.00    -0.347 A  
HETATM   12  O   UNL     1     -11.559  16.500  63.948  1.00  0.00    -1.598 OA 
HETATM   13  C   UNL     1     -11.660  14.169  64.309  1.00  0.00    -0.309 A  
HETATM   14  H   UNL     1     -12.276  16.443  63.328  1.00  0.00     0.000 HD 
HETATM   15  C   UNL     1     -11.215  13.011  64.928  1.00  0.00    -0.329 A  
HETATM   16  O   UNL     1     -12.696  14.098  63.423  1.00  0.00    -0.945 OA 
HETATM   17  H   UNL     1     -13.101  13.260  63.235  1.00  0.00     0.000 HD 
HETATM   18  C   UNL     1     -10.164  13.087  65.846  1.00  0.00    -0.298 A  
ENDBRANCH   6   9
ENDBRANCH   2   6
TORSDOF 2
ENDMDL
MODEL       53
REMARK 921   NORMALIZED FREE ENERGY PREDICTED BY IDOCK:   -4.68 KCAL/MOL
REMARK 922        TOTAL FREE ENERGY PREDICTED BY IDOCK:   -5.44 KCAL/MOL
REMARK 923 INTER-LIGAND FREE ENERGY PREDICTED BY IDOCK:   -5.49 KCAL/MOL
REMARK 924 INTRA-LIGAND FREE ENERGY PREDICTED BY IDOCK:    0.05 KCAL/MOL
REMARK 927      BINDING AFFINITY PREDICTED BY RF-SCORE:    0.00 PKD
ROOT
HETATM    1  C   UNL     1     -10.153  12.037  65.034  1.00  0.00    -0.293 C  
HETATM    2  C   UNL     1     -11.567  11.883  64.464  1.00  0.00    -0.271 C  
HETATM    3  N   UNL     1     -11.454  11.518  63.036  1.00  0.00    -0.844 NA 
HETATM    4  H1  UNL     1     -12.396  11.415  62.657  1.00  0.00     0.000 HD 
HETATM    5  H2  UNL     1     -10.878  10.689  62.887  1.00  0.00     0.000 HD 
ENDROOT
BRANCH   2   6
HETATM    6  C   UNL     1     -12.439  13.167  64.614  1.00  0.00    -0.373 C  
HETATM    7  H   UNL     1     -13.138  14.579  63.426  1.00  0.00     0.000 HD 
HETATM    8  O   UNL     1     -12.607  13.797  63.335  1.00  0.00    -0.842 OA 
BRANCH   6   9
HETATM    9  C   UNL     1     -11.877  14.161  65.615  1.00  0.00    -0.377 A  
HETATM   10  C   UNL     1     -12.239  14.117  66.975  1.00  0.00    -0.374 A  
HETATM   11  C   UNL     1     -11.740  15.071  67.856  1.00  0.00    -0.289 A  
HETATM   12  O   UNL     1     -12.077  15.075  69.181  1.00  0.00    -0.466 OA 
HETATM   13  C   UNL     1     -10.880  16.066  67.402  1.00  0.00    -0.277 A  
HETATM   14  H   UNL     1     -11.736  15.727  69.782  1.00  0.00     0.000 HD 
HETATM   15  C   UNL     1     -10.504  16.125  66.069  1.00  0.00    -0.349 A  
HETATM   16  O   UNL     1     -10.403  17.003  68.274  1.00  0.00    -0.307 OA 
HETATM   17  H   UNL     1      -9.817  17.683  67.964  1.00  0.00     0.000 HD 
HETATM   18  C   UNL     1     -11.005  15.174  65.176  1.00  0.00    -0.428 A  
ENDBRANCH   6   9
ENDBRANCH   2   6
TORSDOF 2
ENDMDL
MODEL       54
REMARK 921   NORMALIZED FREE ENERGY PREDICTED BY IDOCK:   -4.68 KCAL/MOL
REMARK 922        TOTAL FREE ENERGY PREDICTED BY IDOCK:   -5.44 KCAL/MOL
REMARK 923 INTER-LIGAND FREE ENERGY PREDICTED BY IDOCK:   -5.24 KCAL/MOL
REMARK 924 INTRA-LIGAND FREE ENERGY PREDICTED BY IDOCK:   -0.20 KCAL/MOL
REMARK 927      BINDING AFFINITY PREDICTED BY RF-SCORE:    0.00 PKD
ROOT
HETATM    1  C   UNL     1      -7.195  12.449  68.548  1.00  0.00    -0.103 C  
HETATM    2  C   UNL     1      -7.897  13.805  68.421  1.00  0.00    -0.143 C  
HETATM    3  N   UNL     1      -7.538  14.624  69.599  1.00  0.00    -0.380 NA 
HETATM    4  H1  UNL     1      -8.005  15.527  69.514  1.00  0.00     0.000 HD 
HETATM    5  H2  UNL     1      -6.529  14.713  69.722  1.00  0.00     0.000 HD 
ENDROOT
BRANCH   2   6
HETATM    6  C   UNL     1      -9.448  13.692  68.309  1.00  0.00    -0.213 C  
HETATM    7  H   UNL     1     -10.782  12.242  68.212  1.00  0.00     0.000 HD 
HETATM    8  O   UNL     1      -9.837  12.311  68.280  1.00  0.00    -0.210 OA 
BRANCH   6   9
HETATM    9  C   UNL     1     -10.018  14.421  67.106  1.00  0.00    -0.253 A  
HETATM   10  C   UNL     1     -10.566  13.720  66.015  1.00  0.00    -0.290 A  
HETATM   11  C   UNL     1     -11.038  14.419  64.909  1.00  0.00    -0.398 A  
HETATM   12  O   UNL     1     -11.563  13.778  63.821  1.00  0.00    -0.632 OA 
HETATM   13  C   UNL     1     -10.978  15.809  64.876  1.00  0.00    -0.427 A  
HETATM   14  H   UNL     1     -11.886  14.256  63.066  1.00  0.00     0.000 HD 
HETATM   15  C   UNL     1     -10.450  16.520  65.942  1.00  0.00    -0.335 A  
HETATM   16  O   UNL     1     -11.437  16.485  63.782  1.00  0.00    -1.615 OA 
HETATM   17  H   UNL     1     -11.395  17.433  63.760  1.00  0.00     0.000 HD 
HETATM   18  C   UNL     1      -9.968  15.826  67.055  1.00  0.00    -0.240 A  
ENDBRANCH   6   9
ENDBRANCH   2   6
TORSDOF 2
ENDMDL
MODEL       55
REMARK 921   NORMALIZED FREE ENERGY PREDICTED BY IDOCK:   -4.67 KCAL/MOL
REMARK 922        TOTAL FREE ENERGY PREDICTED BY IDOCK:   -5.42 KCAL/MOL
REMARK 923 INTER-LIGAND FREE ENERGY PREDICTED BY IDOCK:   -5.21 KCAL/MOL
REMARK 924 INTRA-LIGAND FREE ENERGY PREDICTED BY IDOCK:   -0.21 KCAL/MOL
REMARK 927      BINDING AFFINITY PREDICTED BY RF-SCORE:    0.00 PKD
ROOT
HETATM    1  C   UNL     1     -12.908  13.804  65.612  1.00  0.00    -0.456 C  
HETATM    2  C   UNL     1     -12.068  14.494  64.533  1.00  0.00    -0.484 C  
HETATM    3  N   UNL     1     -12.391  13.877  63.229  1.00  0.00    -1.148 NA 
HETATM    4  H1  UNL     1     -11.831  14.337  62.510  1.00  0.00     0.000 HD 
HETATM    5  H2  UNL     1     -13.389  13.897  63.022  1.00  0.00     0.000 HD 
ENDROOT
BRANCH   2   6
HETATM    6  C   UNL     1     -10.533  14.406  64.793  1.00  0.00    -0.367 C  
HETATM    7  H   UNL     1      -9.266  13.063  65.489  1.00  0.00     0.000 HD 
HETATM    8  O   UNL     1     -10.200  13.117  65.330  1.00  0.00    -0.295 OA 
BRANCH   6   9
HETATM    9  C   UNL     1     -10.015  15.502  65.707  1.00  0.00    -0.391 A  
HETATM   10  C   UNL     1     -10.657  16.751  65.792  1.00  0.00    -0.259 A  
HETATM   11  C   UNL     1     -10.128  17.748  66.606  1.00  0.00    -0.350 A  
HETATM   12  O   UNL     1     -10.710  18.981  66.707  1.00  0.00    -0.413 OA 
HETATM   13  C   UNL     1      -8.971  17.516  67.342  1.00  0.00    -0.230 A  
HETATM   14  H   UNL     1     -10.350  19.662  67.263  1.00  0.00     0.000 HD 
HETATM   15  C   UNL     1      -8.326  16.290  67.281  1.00  0.00    -0.203 A  
HETATM   16  O   UNL     1      -8.456  18.504  68.132  1.00  0.00    -0.280 OA 
HETATM   17  H   UNL     1      -7.665  18.345  68.634  1.00  0.00     0.000 HD 
HETATM   18  C   UNL     1      -8.846  15.285  66.461  1.00  0.00    -0.335 A  
ENDBRANCH   6   9
ENDBRANCH   2   6
TORSDOF 2
ENDMDL
MODEL       56
REMARK 921   NORMALIZED FREE ENERGY PREDICTED BY IDOCK:   -4.67 KCAL/MOL
REMARK 922        TOTAL FREE ENERGY PREDICTED BY IDOCK:   -5.42 KCAL/MOL
REMARK 923 INTER-LIGAND FREE ENERGY PREDICTED BY IDOCK:   -5.21 KCAL/MOL
REMARK 924 INTRA-LIGAND FREE ENERGY PREDICTED BY IDOCK:   -0.21 KCAL/MOL
REMARK 927      BINDING AFFINITY PREDICTED BY RF-SCORE:    0.00 PKD
ROOT
HETATM    1  C   UNL     1     -10.491  18.093  67.586  1.00  0.00    -0.432 C  
HETATM    2  C   UNL     1     -10.014  16.680  67.937  1.00  0.00    -0.254 C  
HETATM    3  N   UNL     1      -8.933  16.790  68.939  1.00  0.00    -0.250 NA 
HETATM    4  H1  UNL     1      -8.615  15.849  69.172  1.00  0.00     0.000 HD 
HETATM    5  H2  UNL     1      -9.213  17.326  69.761  1.00  0.00     0.000 HD 
ENDROOT
BRANCH   2   6
HETATM    6  C   UNL     1      -9.509  15.873  66.701  1.00  0.00    -0.241 C  
HETATM    7  H   UNL     1      -8.756  16.283  64.925  1.00  0.00     0.000 HD 
HETATM    8  O   UNL     1      -9.063  16.774  65.677  1.00  0.00    -0.489 OA 
BRANCH   6   9
HETATM    9  C   UNL     1     -10.548  14.918  66.142  1.00  0.00    -0.322 A  
HETATM   10  C   UNL     1     -10.733  13.634  66.686  1.00  0.00    -0.280 A  
HETATM   11  C   UNL     1     -11.664  12.768  66.119  1.00  0.00    -0.403 A  
HETATM   12  O   UNL     1     -11.865  11.506  66.606  1.00  0.00    -0.470 OA 
HETATM   13  C   UNL     1     -12.417  13.167  65.020  1.00  0.00    -0.460 A  
HETATM   14  H   UNL     1     -12.500  10.915  66.219  1.00  0.00     0.000 HD 
HETATM   15  C   UNL     1     -12.257  14.430  64.472  1.00  0.00    -0.483 A  
HETATM   16  O   UNL     1     -13.321  12.307  64.466  1.00  0.00    -0.769 OA 
HETATM   17  H   UNL     1     -13.835  12.579  63.715  1.00  0.00     0.000 HD 
HETATM   18  C   UNL     1     -11.321  15.304  65.031  1.00  0.00    -0.359 A  
ENDBRANCH   6   9
ENDBRANCH   2   6
TORSDOF 2
ENDMDL
MODEL       57
REMARK 921   NORMALIZED FREE ENERGY PREDICTED BY IDOCK:   -4.66 KCAL/MOL
REMARK 922        TOTAL FREE ENERGY PREDICTED BY IDOCK:   -5.41 KCAL/MOL
REMARK 923 INTER-LIGAND FREE ENERGY PREDICTED BY IDOCK:   -5.22 KCAL/MOL
REMARK 924 INTRA-LIGAND FREE ENERGY PREDICTED BY IDOCK:   -0.19 KCAL/MOL
REMARK 927      BINDING AFFINITY PREDICTED BY RF-SCORE:    0.00 PKD
ROOT
HETATM    1  C   UNL     1     -10.090  10.575  66.397  1.00  0.00    -0.285 C  
HETATM    2  C   UNL     1     -11.153  10.936  67.439  1.00  0.00    -0.307 C  
HETATM    3  N   UNL     1     -11.919  12.097  66.938  1.00  0.00    -0.609 NA 
HETATM    4  H1  UNL     1     -12.626  12.337  67.632  1.00  0.00     0.000 HD 
HETATM    5  H2  UNL     1     -12.316  11.935  66.012  1.00  0.00     0.000 HD 
ENDROOT
BRANCH   2   6
HETATM    6  C   UNL     1     -10.557  11.262  68.843  1.00  0.00    -0.207 C  
HETATM    7  H   UNL     1      -8.834  11.008  69.769  1.00  0.00     0.000 HD 
HETATM    8  O   UNL     1      -9.197  10.810  68.915  1.00  0.00    -0.175 OA 
BRANCH   6   9
HETATM    9  C   UNL     1     -11.363  10.677  69.988  1.00  0.00    -0.400 A  
HETATM   10  C   UNL     1     -12.293  11.454  70.704  1.00  0.00    -0.466 A  
HETATM   11  C   UNL     1     -12.981  10.897  71.778  1.00  0.00    -0.451 A  
HETATM   12  O   UNL     1     -13.881  11.620  72.511  1.00  0.00    -0.343 OA 
HETATM   13  C   UNL     1     -12.760   9.573  72.144  1.00  0.00    -0.362 A  
HETATM   14  H   UNL     1     -14.351  11.240  73.243  1.00  0.00     0.000 HD 
HETATM   15  C   UNL     1     -11.856   8.786  71.449  1.00  0.00    -0.369 A  
HETATM   16  O   UNL     1     -13.435   9.039  73.205  1.00  0.00    -0.948 OA 
HETATM   17  H   UNL     1     -13.284   8.135  73.455  1.00  0.00     0.000 HD 
HETATM   18  C   UNL     1     -11.155   9.339  70.374  1.00  0.00    -0.300 A  
ENDBRANCH   6   9
ENDBRANCH   2   6
TORSDOF 2
ENDMDL
MODEL       58
REMARK 921   NORMALIZED FREE ENERGY PREDICTED BY IDOCK:   -4.63 KCAL/MOL
REMARK 922        TOTAL FREE ENERGY PREDICTED BY IDOCK:   -5.39 KCAL/MOL
REMARK 923 INTER-LIGAND FREE ENERGY PREDICTED BY IDOCK:   -5.19 KCAL/MOL
REMARK 924 INTRA-LIGAND FREE ENERGY PREDICTED BY IDOCK:   -0.20 KCAL/MOL
REMARK 927      BINDING AFFINITY PREDICTED BY RF-SCORE:    0.00 PKD
ROOT
HETATM    1  C   UNL     1      -9.568   8.862  65.940  1.00  0.00    -0.293 C  
HETATM    2  C   UNL     1      -9.670  10.223  65.244  1.00  0.00    -0.291 C  
HETATM    3  N   UNL     1      -8.383  10.496  64.569  1.00  0.00    -0.286 NA 
HETATM    4  H1  UNL     1      -8.452  11.402  64.105  1.00  0.00     0.000 HD 
HETATM    5  H2  UNL     1      -8.108   9.748  63.932  1.00  0.00     0.000 HD 
ENDROOT
BRANCH   2   6
HETATM    6  C   UNL     1     -10.014  11.391  66.217  1.00  0.00    -0.224 C  
HETATM    7  H   UNL     1     -11.207  11.672  67.764  1.00  0.00     0.000 HD 
HETATM    8  O   UNL     1     -10.997  10.961  67.171  1.00  0.00    -0.274 OA 
BRANCH   6   9
HETATM    9  C   UNL     1     -10.490  12.645  65.506  1.00  0.00    -0.304 A  
HETATM   10  C   UNL     1      -9.997  13.917  65.852  1.00  0.00    -0.317 A  
HETATM   11  C   UNL     1     -10.490  15.049  65.209  1.00  0.00    -0.403 A  
HETATM   12  O   UNL     1     -10.051  16.305  65.525  1.00  0.00    -0.477 OA 
HETATM   13  C   UNL     1     -11.463  14.931  64.222  1.00  0.00    -0.128 A  
HETATM   14  H   UNL     1     -10.387  17.078  65.086  1.00  0.00     0.000 HD 
HETATM   15  C   UNL     1     -11.957  13.688  63.860  1.00  0.00    -0.455 A  
HETATM   16  O   UNL     1     -11.945  16.049  63.604  1.00  0.00    -1.344 OA 
HETATM   17  H   UNL     1     -12.610  15.968  62.931  1.00  0.00     0.000 HD 
HETATM   18  C   UNL     1     -11.473  12.546  64.504  1.00  0.00    -0.391 A  
ENDBRANCH   6   9
ENDBRANCH   2   6
TORSDOF 2
ENDMDL
MODEL       59
REMARK 921   NORMALIZED FREE ENERGY PREDICTED BY IDOCK:   -4.61 KCAL/MOL
REMARK 922        TOTAL FREE ENERGY PREDICTED BY IDOCK:   -5.35 KCAL/MOL
REMARK 923 INTER-LIGAND FREE ENERGY PREDICTED BY IDOCK:   -5.41 KCAL/MOL
REMARK 924 INTRA-LIGAND FREE ENERGY PREDICTED BY IDOCK:    0.05 KCAL/MOL
REMARK 927      BINDING AFFINITY PREDICTED BY RF-SCORE:    0.00 PKD
ROOT
HETATM    1  C   UNL     1     -11.381  14.847  68.447  1.00  0.00    -0.320 C  
HETATM    2  C   UNL     1     -11.012  13.384  68.711  1.00  0.00    -0.257 C  
HETATM    3  N   UNL     1      -9.615  13.172  68.280  1.00  0.00    -0.225 NA 
HETATM    4  H1  UNL     1      -9.369  12.198  68.456  1.00  0.00     0.000 HD 
HETATM    5  H2  UNL     1      -8.965  13.826  68.718  1.00  0.00     0.000 HD 
ENDROOT
BRANCH   2   6
HETATM    6  C   UNL     1     -11.949  12.369  67.987  1.00  0.00    -0.203 C  
HETATM    7  H   UNL     1     -12.638  10.552  68.325  1.00  0.00     0.000 HD 
HETATM    8  O   UNL     1     -12.068  11.169  68.766  1.00  0.00    -0.522 OA 
BRANCH   6   9
HETATM    9  C   UNL     1     -11.495  12.033  66.578  1.00  0.00    -0.413 A  
HETATM   10  C   UNL     1     -11.939  12.775  65.467  1.00  0.00    -0.497 A  
HETATM   11  C   UNL     1     -11.539  12.411  64.185  1.00  0.00    -0.386 A  
HETATM   12  O   UNL     1     -11.959  13.093  63.077  1.00  0.00    -0.835 OA 
HETATM   13  C   UNL     1     -10.696  11.321  63.994  1.00  0.00    -0.377 A  
HETATM   14  H   UNL     1     -11.685  12.845  62.202  1.00  0.00     0.000 HD 
HETATM   15  C   UNL     1     -10.239  10.581  65.073  1.00  0.00    -0.365 A  
HETATM   16  O   UNL     1     -10.315  10.967  62.731  1.00  0.00    -0.719 OA 
HETATM   17  H   UNL     1      -9.740  10.223  62.601  1.00  0.00     0.000 HD 
HETATM   18  C   UNL     1     -10.641  10.935  66.364  1.00  0.00    -0.289 A  
ENDBRANCH   6   9
ENDBRANCH   2   6
TORSDOF 2
ENDMDL
MODEL       60
REMARK 921   NORMALIZED FREE ENERGY PREDICTED BY IDOCK:   -4.60 KCAL/MOL
REMARK 922        TOTAL FREE ENERGY PREDICTED BY IDOCK:   -5.35 KCAL/MOL
REMARK 923 INTER-LIGAND FREE ENERGY PREDICTED BY IDOCK:   -5.13 KCAL/MOL
REMARK 924 INTRA-LIGAND FREE ENERGY PREDICTED BY IDOCK:   -0.22 KCAL/MOL
REMARK 927      BINDING AFFINITY PREDICTED BY RF-SCORE:    0.00 PKD
ROOT
HETATM    1  C   UNL     1      -6.634  11.661  67.285  1.00  0.00    -0.122 C  
HETATM    2  C   UNL     1      -8.099  12.004  67.571  1.00  0.00    -0.159 C  
HETATM    3  N   UNL     1      -8.330  11.877  69.026  1.00  0.00    -0.362 NA 
HETATM    4  H1  UNL     1      -9.306  12.105  69.216  1.00  0.00     0.000 HD 
HETATM    5  H2  UNL     1      -7.680  12.439  69.577  1.00  0.00     0.000 HD 
ENDROOT
BRANCH   2   6
HETATM    6  C   UNL     1      -9.108  11.102  66.796  1.00  0.00    -0.166 C  
HETATM    7  H   UNL     1      -9.016   9.524  65.616  1.00  0.00     0.000 HD 
HETATM    8  O   UNL     1      -8.402  10.073  66.088  1.00  0.00    -0.117 OA 
BRANCH   6   9
HETATM    9  C   UNL     1      -9.996  11.878  65.840  1.00  0.00    -0.261 A  
HETATM   10  C   UNL     1     -10.730  11.230  64.830  1.00  0.00    -0.352 A  
HETATM   11  C   UNL     1     -11.498  11.978  63.942  1.00  0.00    -0.435 A  
HETATM   12  O   UNL     1     -12.214  11.391  62.936  1.00  0.00    -0.940 OA 
HETATM   13  C   UNL     1     -11.549  13.364  64.052  1.00  0.00    -0.385 A  
HETATM   14  H   UNL     1     -12.739  11.901  62.331  1.00  0.00     0.000 HD 
HETATM   15  C   UNL     1     -10.841  14.024  65.043  1.00  0.00    -0.401 A  
HETATM   16  O   UNL     1     -12.300  14.089  63.170  1.00  0.00    -1.133 OA 
HETATM   17  H   UNL     1     -12.334  15.035  63.245  1.00  0.00     0.000 HD 
HETATM   18  C   UNL     1     -10.062  13.281  65.935  1.00  0.00    -0.296 A  
ENDBRANCH   6   9
ENDBRANCH   2   6
TORSDOF 2
ENDMDL
MODEL       61
REMARK 921   NORMALIZED FREE ENERGY PREDICTED BY IDOCK:   -4.60 KCAL/MOL
REMARK 922        TOTAL FREE ENERGY PREDICTED BY IDOCK:   -5.35 KCAL/MOL
REMARK 923 INTER-LIGAND FREE ENERGY PREDICTED BY IDOCK:   -5.16 KCAL/MOL
REMARK 924 INTRA-LIGAND FREE ENERGY PREDICTED BY IDOCK:   -0.19 KCAL/MOL
REMARK 927      BINDING AFFINITY PREDICTED BY RF-SCORE:    0.00 PKD
ROOT
HETATM    1  C   UNL     1     -11.566  15.015  71.643  1.00  0.00    -0.416 C  
HETATM    2  C   UNL     1     -12.174  15.167  70.244  1.00  0.00    -0.350 C  
HETATM    3  N   UNL     1     -13.517  15.767  70.385  1.00  0.00    -0.681 NA 
HETATM    4  H1  UNL     1     -13.921  15.868  69.454  1.00  0.00     0.000 HD 
HETATM    5  H2  UNL     1     -13.503  16.645  70.905  1.00  0.00     0.000 HD 
ENDROOT
BRANCH   2   6
HETATM    6  C   UNL     1     -12.274  13.821  69.463  1.00  0.00    -0.293 C  
HETATM    7  H   UNL     1     -11.725  11.948  69.747  1.00  0.00     0.000 HD 
HETATM    8  O   UNL     1     -11.664  12.768  70.223  1.00  0.00    -0.246 OA 
BRANCH   6   9
HETATM    9  C   UNL     1     -11.665  13.885  68.075  1.00  0.00    -0.387 A  
HETATM   10  C   UNL     1     -12.466  14.034  66.927  1.00  0.00    -0.187 A  
HETATM   11  C   UNL     1     -11.877  14.043  65.667  1.00  0.00    -0.377 A  
HETATM   12  O   UNL     1     -12.618  14.168  64.525  1.00  0.00    -0.643 OA 
HETATM   13  C   UNL     1     -10.498  13.913  65.534  1.00  0.00    -0.323 A  
HETATM   14  H   UNL     1     -12.216  14.175  63.664  1.00  0.00     0.000 HD 
HETATM   15  C   UNL     1      -9.688  13.774  66.650  1.00  0.00    -0.293 A  
HETATM   16  O   UNL     1      -9.931  13.915  64.291  1.00  0.00    -0.714 OA 
HETATM   17  H   UNL     1      -8.990  13.826  64.201  1.00  0.00     0.000 HD 
HETATM   18  C   UNL     1     -10.272  13.757  67.919  1.00  0.00    -0.245 A  
ENDBRANCH   6   9
ENDBRANCH   2   6
TORSDOF 2
ENDMDL
MODEL       62
REMARK 921   NORMALIZED FREE ENERGY PREDICTED BY IDOCK:   -4.52 KCAL/MOL
REMARK 922        TOTAL FREE ENERGY PREDICTED BY IDOCK:   -5.26 KCAL/MOL
REMARK 923 INTER-LIGAND FREE ENERGY PREDICTED BY IDOCK:   -5.04 KCAL/MOL
REMARK 924 INTRA-LIGAND FREE ENERGY PREDICTED BY IDOCK:   -0.22 KCAL/MOL
REMARK 927      BINDING AFFINITY PREDICTED BY RF-SCORE:    0.00 PKD
ROOT
HETATM    1  C   UNL     1      -9.361  15.511  69.439  1.00  0.00    -0.279 C  
HETATM    2  C   UNL     1     -10.764  15.420  68.829  1.00  0.00    -0.241 C  
HETATM    3  N   UNL     1     -11.053  16.694  68.137  1.00  0.00    -0.340 NA 
HETATM    4  H1  UNL     1     -11.987  16.633  67.732  1.00  0.00     0.000 HD 
HETATM    5  H2  UNL     1     -10.340  16.937  67.449  1.00  0.00     0.000 HD 
ENDROOT
BRANCH   2   6
HETATM    6  C   UNL     1     -11.877  15.125  69.880  1.00  0.00    -0.330 C  
HETATM    7  H   UNL     1     -12.225  15.567  71.771  1.00  0.00     0.000 HD 
HETATM    8  O   UNL     1     -11.547  15.747  71.131  1.00  0.00    -0.348 OA 
BRANCH   6   9
HETATM    9  C   UNL     1     -12.133  13.643  70.085  1.00  0.00    -0.431 A  
HETATM   10  C   UNL     1     -11.870  12.706  69.069  1.00  0.00    -0.341 A  
HETATM   11  C   UNL     1     -12.159  11.360  69.275  1.00  0.00    -0.289 A  
HETATM   12  O   UNL     1     -11.934  10.418  68.310  1.00  0.00    -0.772 OA 
HETATM   13  C   UNL     1     -12.701  10.934  70.484  1.00  0.00    -0.280 A  
HETATM   14  H   UNL     1     -12.131   9.500  68.451  1.00  0.00     0.000 HD 
HETATM   15  C   UNL     1     -12.961  11.838  71.502  1.00  0.00    -0.446 A  
HETATM   16  O   UNL     1     -12.988   9.613  70.673  1.00  0.00    -0.546 OA 
HETATM   17  H   UNL     1     -13.359   9.322  71.498  1.00  0.00     0.000 HD 
HETATM   18  C   UNL     1     -12.680  13.192  71.301  1.00  0.00    -0.396 A  
ENDBRANCH   6   9
ENDBRANCH   2   6
TORSDOF 2
ENDMDL
MODEL       63
REMARK 921   NORMALIZED FREE ENERGY PREDICTED BY IDOCK:   -4.47 KCAL/MOL
REMARK 922        TOTAL FREE ENERGY PREDICTED BY IDOCK:   -5.20 KCAL/MOL
REMARK 923 INTER-LIGAND FREE ENERGY PREDICTED BY IDOCK:   -4.99 KCAL/MOL
REMARK 924 INTRA-LIGAND FREE ENERGY PREDICTED BY IDOCK:   -0.21 KCAL/MOL
REMARK 927      BINDING AFFINITY PREDICTED BY RF-SCORE:    0.00 PKD
ROOT
HETATM    1  C   UNL     1     -12.412  12.527  64.206  1.00  0.00    -0.520 C  
HETATM    2  C   UNL     1     -11.063  12.978  64.775  1.00  0.00    -0.322 C  
HETATM    3  N   UNL     1      -9.990  12.350  63.975  1.00  0.00    -0.575 NA 
HETATM    4  H1  UNL     1      -9.092  12.651  64.353  1.00  0.00     0.000 HD 
HETATM    5  H2  UNL     1     -10.080  12.543  62.977  1.00  0.00     0.000 HD 
ENDROOT
BRANCH   2   6
HETATM    6  C   UNL     1     -10.876  12.623  66.281  1.00  0.00    -0.273 C  
HETATM    7  H   UNL     1     -11.793  11.500  67.620  1.00  0.00     0.000 HD 
HETATM    8  O   UNL     1     -11.907  11.717  66.702  1.00  0.00    -0.533 OA 
BRANCH   6   9
HETATM    9  C   UNL     1     -10.849  13.840  67.187  1.00  0.00    -0.288 A  
HETATM   10  C   UNL     1     -11.848  14.058  68.154  1.00  0.00    -0.402 A  
HETATM   11  C   UNL     1     -11.816  15.208  68.937  1.00  0.00    -0.310 A  
HETATM   12  O   UNL     1     -12.774  15.468  69.877  1.00  0.00    -0.609 OA 
HETATM   13  C   UNL     1     -10.799  16.143  68.773  1.00  0.00    -0.310 A  
HETATM   14  H   UNL     1     -12.753  16.253  70.411  1.00  0.00     0.000 HD 
HETATM   15  C   UNL     1      -9.800  15.946  67.832  1.00  0.00    -0.218 A  
HETATM   16  O   UNL     1     -10.782  17.273  69.540  1.00  0.00    -0.386 OA 
HETATM   17  H   UNL     1     -10.087  17.911  69.428  1.00  0.00     0.000 HD 
HETATM   18  C   UNL     1      -9.827  14.797  67.038  1.00  0.00    -0.240 A  
ENDBRANCH   6   9
ENDBRANCH   2   6
TORSDOF 2
ENDMDL
MODEL       64
REMARK 921   NORMALIZED FREE ENERGY PREDICTED BY IDOCK:   -4.46 KCAL/MOL
REMARK 922        TOTAL FREE ENERGY PREDICTED BY IDOCK:   -5.20 KCAL/MOL
REMARK 923 INTER-LIGAND FREE ENERGY PREDICTED BY IDOCK:   -5.03 KCAL/MOL
REMARK 924 INTRA-LIGAND FREE ENERGY PREDICTED BY IDOCK:   -0.16 KCAL/MOL
REMARK 927      BINDING AFFINITY PREDICTED BY RF-SCORE:    0.00 PKD
ROOT
HETATM    1  C   UNL     1     -12.828  13.343  71.331  1.00  0.00    -0.420 C  
HETATM    2  C   UNL     1     -12.423  14.445  70.348  1.00  0.00    -0.357 C  
HETATM    3  N   UNL     1     -13.479  15.479  70.348  1.00  0.00    -0.780 NA 
HETATM    4  H1  UNL     1     -13.209  16.213  69.694  1.00  0.00     0.000 HD 
HETATM    5  H2  UNL     1     -13.676  15.839  71.283  1.00  0.00     0.000 HD 
ENDROOT
BRANCH   2   6
HETATM    6  C   UNL     1     -12.193  13.925  68.896  1.00  0.00    -0.222 C  
HETATM    7  H   UNL     1     -11.468  12.298  68.047  1.00  0.00     0.000 HD 
HETATM    8  O   UNL     1     -11.608  12.615  68.931  1.00  0.00    -0.274 OA 
BRANCH   6   9
HETATM    9  C   UNL     1     -11.339  14.855  68.053  1.00  0.00    -0.337 A  
HETATM   10  C   UNL     1     -11.452  14.886  66.650  1.00  0.00    -0.297 A  
HETATM   11  C   UNL     1     -10.622  15.718  65.906  1.00  0.00    -0.339 A  
HETATM   12  O   UNL     1     -10.687  15.768  64.541  1.00  0.00    -0.755 OA 
HETATM   13  C   UNL     1      -9.683  16.525  66.540  1.00  0.00    -0.272 A  
HETATM   14  H   UNL     1     -10.120  16.337  64.033  1.00  0.00     0.000 HD 
HETATM   15  C   UNL     1      -9.559  16.518  67.921  1.00  0.00    -0.233 A  
HETATM   16  O   UNL     1      -8.867  17.332  65.800  1.00  0.00    -0.530 OA 
HETATM   17  H   UNL     1      -8.226  17.883  66.233  1.00  0.00     0.000 HD 
HETATM   18  C   UNL     1     -10.385  15.680  68.676  1.00  0.00    -0.216 A  
ENDBRANCH   6   9
ENDBRANCH   2   6
TORSDOF 2
ENDMDL
MODEL       65
REMARK 921   NORMALIZED FREE ENERGY PREDICTED BY IDOCK:   -4.44 KCAL/MOL
REMARK 922        TOTAL FREE ENERGY PREDICTED BY IDOCK:   -5.17 KCAL/MOL
REMARK 923 INTER-LIGAND FREE ENERGY PREDICTED BY IDOCK:   -4.93 KCAL/MOL
REMARK 924 INTRA-LIGAND FREE ENERGY PREDICTED BY IDOCK:   -0.24 KCAL/MOL
REMARK 927      BINDING AFFINITY PREDICTED BY RF-SCORE:    0.00 PKD
ROOT
HETATM    1  C   UNL     1      -9.113  15.916  69.253  1.00  0.00    -0.253 C  
HETATM    2  C   UNL     1     -10.396  16.541  68.698  1.00  0.00    -0.287 C  
HETATM    3  N   UNL     1     -10.417  17.970  69.075  1.00  0.00    -0.414 NA 
HETATM    4  H1  UNL     1     -11.271  18.387  68.705  1.00  0.00     0.000 HD 
HETATM    5  H2  UNL     1      -9.577  18.467  68.777  1.00  0.00     0.000 HD 
ENDROOT
BRANCH   2   6
HETATM    6  C   UNL     1     -11.695  15.842  69.204  1.00  0.00    -0.363 C  
HETATM    7  H   UNL     1     -12.622  15.603  70.929  1.00  0.00     0.000 HD 
HETATM    8  O   UNL     1     -11.831  16.028  70.621  1.00  0.00    -0.370 OA 
BRANCH   6   9
HETATM    9  C   UNL     1     -11.754  14.364  68.863  1.00  0.00    -0.357 A  
HETATM   10  C   UNL     1     -11.826  13.381  69.868  1.00  0.00    -0.385 A  
HETATM   11  C   UNL     1     -11.833  12.034  69.520  1.00  0.00    -0.326 A  
HETATM   12  O   UNL     1     -11.885  11.046  70.463  1.00  0.00    -0.331 OA 
HETATM   13  C   UNL     1     -11.776  11.652  68.183  1.00  0.00    -0.295 A  
HETATM   14  H   UNL     1     -11.890  10.126  70.226  1.00  0.00     0.000 HD 
HETATM   15  C   UNL     1     -11.713  12.603  67.177  1.00  0.00    -0.438 A  
HETATM   16  O   UNL     1     -11.775  10.327  67.853  1.00  0.00    -0.691 OA 
HETATM   17  H   UNL     1     -11.735  10.066  66.941  1.00  0.00     0.000 HD 
HETATM   18  C   UNL     1     -11.699  13.958  67.517  1.00  0.00    -0.416 A  
ENDBRANCH   6   9
ENDBRANCH   2   6
TORSDOF 2
ENDMDL
MODEL       66
REMARK 921   NORMALIZED FREE ENERGY PREDICTED BY IDOCK:   -4.42 KCAL/MOL
REMARK 922        TOTAL FREE ENERGY PREDICTED BY IDOCK:   -5.15 KCAL/MOL
REMARK 923 INTER-LIGAND FREE ENERGY PREDICTED BY IDOCK:   -5.21 KCAL/MOL
REMARK 924 INTRA-LIGAND FREE ENERGY PREDICTED BY IDOCK:    0.06 KCAL/MOL
REMARK 927      BINDING AFFINITY PREDICTED BY RF-SCORE:    0.00 PKD
ROOT
HETATM    1  C   UNL     1     -10.606  12.287  67.050  1.00  0.00    -0.248 C  
HETATM    2  C   UNL     1     -10.610  13.047  68.381  1.00  0.00    -0.251 C  
HETATM    3  N   UNL     1     -10.544  12.060  69.479  1.00  0.00    -0.414 NA 
HETATM    4  H1  UNL     1     -10.546  12.566  70.364  1.00  0.00     0.000 HD 
HETATM    5  H2  UNL     1      -9.750  11.426  69.390  1.00  0.00     0.000 HD 
ENDROOT
BRANCH   2   6
HETATM    6  C   UNL     1     -11.857  13.964  68.567  1.00  0.00    -0.366 C  
HETATM    7  H   UNL     1     -12.470  15.714  67.895  1.00  0.00     0.000 HD 
HETATM    8  O   UNL     1     -11.711  15.156  67.781  1.00  0.00    -0.331 OA 
BRANCH   6   9
HETATM    9  C   UNL     1     -12.128  14.323  70.016  1.00  0.00    -0.400 A  
HETATM   10  C   UNL     1     -12.985  13.547  70.818  1.00  0.00    -0.168 A  
HETATM   11  C   UNL     1     -13.246  13.931  72.129  1.00  0.00    -0.444 A  
HETATM   12  O   UNL     1     -14.085  13.215  72.937  1.00  0.00    -0.648 OA 
HETATM   13  C   UNL     1     -12.659  15.077  72.656  1.00  0.00    -0.370 A  
HETATM   14  H   UNL     1     -14.263  13.478  73.833  1.00  0.00     0.000 HD 
HETATM   15  C   UNL     1     -11.804  15.853  71.889  1.00  0.00    -0.595 A  
HETATM   16  O   UNL     1     -12.928  15.450  73.942  1.00  0.00    -0.607 OA 
HETATM   17  H   UNL     1     -12.527  16.232  74.302  1.00  0.00     0.000 HD 
HETATM   18  C   UNL     1     -11.542  15.478  70.569  1.00  0.00    -0.371 A  
ENDBRANCH   6   9
ENDBRANCH   2   6
TORSDOF 2
ENDMDL
MODEL       67
REMARK 921   NORMALIZED FREE ENERGY PREDICTED BY IDOCK:   -4.42 KCAL/MOL
REMARK 922        TOTAL FREE ENERGY PREDICTED BY IDOCK:   -5.15 KCAL/MOL
REMARK 923 INTER-LIGAND FREE ENERGY PREDICTED BY IDOCK:   -4.97 KCAL/MOL
REMARK 924 INTRA-LIGAND FREE ENERGY PREDICTED BY IDOCK:   -0.18 KCAL/MOL
REMARK 927      BINDING AFFINITY PREDICTED BY RF-SCORE:    0.00 PKD
ROOT
HETATM    1  C   UNL     1     -11.798  14.569  66.032  1.00  0.00    -0.339 C  
HETATM    2  C   UNL     1     -10.681  15.061  65.106  1.00  0.00    -0.415 C  
HETATM    3  N   UNL     1     -10.284  13.944  64.223  1.00  0.00    -0.703 NA 
HETATM    4  H1  UNL     1      -9.541  14.272  63.606  1.00  0.00     0.000 HD 
HETATM    5  H2  UNL     1     -11.073  13.549  63.711  1.00  0.00     0.000 HD 
ENDROOT
BRANCH   2   6
HETATM    6  C   UNL     1      -9.433  15.598  65.872  1.00  0.00    -0.341 C  
HETATM    7  H   UNL     1      -8.100  14.877  67.135  1.00  0.00     0.000 HD 
HETATM    8  O   UNL     1      -8.860  14.551  66.669  1.00  0.00    -0.243 OA 
BRANCH   6   9
HETATM    9  C   UNL     1      -9.734  16.808  66.737  1.00  0.00    -0.273 A  
HETATM   10  C   UNL     1      -9.837  18.098  66.184  1.00  0.00    -0.255 A  
HETATM   11  C   UNL     1     -10.069  19.191  67.014  1.00  0.00    -0.366 A  
HETATM   12  O   UNL     1     -10.160  20.463  66.521  1.00  0.00    -0.489 OA 
HETATM   13  C   UNL     1     -10.207  19.015  68.387  1.00  0.00    -0.377 A  
HETATM   14  H   UNL     1     -10.319  21.209  67.088  1.00  0.00     0.000 HD 
HETATM   15  C   UNL     1     -10.117  17.753  68.953  1.00  0.00    -0.350 A  
HETATM   16  O   UNL     1     -10.426  20.096  69.193  1.00  0.00    -0.568 OA 
HETATM   17  H   UNL     1     -10.519  19.976  70.130  1.00  0.00     0.000 HD 
HETATM   18  C   UNL     1      -9.878  16.651  68.128  1.00  0.00    -0.250 A  
ENDBRANCH   6   9
ENDBRANCH   2   6
TORSDOF 2
ENDMDL
MODEL       68
REMARK 921   NORMALIZED FREE ENERGY PREDICTED BY IDOCK:   -4.42 KCAL/MOL
REMARK 922        TOTAL FREE ENERGY PREDICTED BY IDOCK:   -5.15 KCAL/MOL
REMARK 923 INTER-LIGAND FREE ENERGY PREDICTED BY IDOCK:   -4.98 KCAL/MOL
REMARK 924 INTRA-LIGAND FREE ENERGY PREDICTED BY IDOCK:   -0.17 KCAL/MOL
REMARK 927      BINDING AFFINITY PREDICTED BY RF-SCORE:    0.00 PKD
ROOT
HETATM    1  C   UNL     1     -11.832   8.775  72.349  1.00  0.00    -0.356 C  
HETATM    2  C   UNL     1     -12.251   9.771  71.262  1.00  0.00    -0.374 C  
HETATM    3  N   UNL     1     -13.593   9.388  70.774  1.00  0.00    -0.564 NA 
HETATM    4  H1  UNL     1     -13.871  10.051  70.051  1.00  0.00     0.000 HD 
HETATM    5  H2  UNL     1     -14.278   9.316  71.527  1.00  0.00     0.000 HD 
ENDROOT
BRANCH   2   6
HETATM    6  C   UNL     1     -11.252   9.838  70.066  1.00  0.00    -0.251 C  
HETATM    7  H   UNL     1      -9.296   9.791  69.821  1.00  0.00     0.000 HD 
HETATM    8  O   UNL     1      -9.903   9.751  70.549  1.00  0.00    -0.260 OA 
BRANCH   6   9
HETATM    9  C   UNL     1     -11.422  11.080  69.211  1.00  0.00    -0.370 A  
HETATM   10  C   UNL     1     -11.826  12.307  69.769  1.00  0.00    -0.388 A  
HETATM   11  C   UNL     1     -12.015  13.414  68.948  1.00  0.00    -0.324 A  
HETATM   12  O   UNL     1     -12.422  14.620  69.446  1.00  0.00    -0.549 OA 
HETATM   13  C   UNL     1     -11.802  13.317  67.577  1.00  0.00    -0.358 A  
HETATM   14  H   UNL     1     -12.551  15.376  68.886  1.00  0.00     0.000 HD 
HETATM   15  C   UNL     1     -11.396  12.121  67.005  1.00  0.00    -0.398 A  
HETATM   16  O   UNL     1     -11.998  14.407  66.778  1.00  0.00    -0.411 OA 
HETATM   17  H   UNL     1     -11.853  14.341  65.842  1.00  0.00     0.000 HD 
HETATM   18  C   UNL     1     -11.210  11.002  67.821  1.00  0.00    -0.374 A  
ENDBRANCH   6   9
ENDBRANCH   2   6
TORSDOF 2
ENDMDL
MODEL       69
REMARK 921   NORMALIZED FREE ENERGY PREDICTED BY IDOCK:   -4.39 KCAL/MOL
REMARK 922        TOTAL FREE ENERGY PREDICTED BY IDOCK:   -5.11 KCAL/MOL
REMARK 923 INTER-LIGAND FREE ENERGY PREDICTED BY IDOCK:   -5.04 KCAL/MOL
REMARK 924 INTRA-LIGAND FREE ENERGY PREDICTED BY IDOCK:   -0.07 KCAL/MOL
REMARK 927      BINDING AFFINITY PREDICTED BY RF-SCORE:    0.00 PKD
ROOT
HETATM    1  C   UNL     1     -12.747  13.859  65.506  1.00  0.00    -0.536 C  
HETATM    2  C   UNL     1     -11.686  13.883  64.401  1.00  0.00    -0.404 C  
HETATM    3  N   UNL     1     -12.376  13.997  63.098  1.00  0.00    -1.094 NA 
HETATM    4  H1  UNL     1     -11.669  14.013  62.363  1.00  0.00     0.000 HD 
HETATM    5  H2  UNL     1     -13.005  14.799  63.056  1.00  0.00     0.000 HD 
ENDROOT
BRANCH   2   6
HETATM    6  C   UNL     1     -10.764  12.625  64.402  1.00  0.00    -0.359 C  
HETATM    7  H   UNL     1     -10.843  10.781  63.705  1.00  0.00     0.000 HD 
HETATM    8  O   UNL     1     -11.405  11.547  63.705  1.00  0.00    -0.411 OA 
BRANCH   6   9
HETATM    9  C   UNL     1     -10.359  12.179  65.795  1.00  0.00    -0.289 A  
HETATM   10  C   UNL     1      -9.727  13.058  66.694  1.00  0.00    -0.256 A  
HETATM   11  C   UNL     1      -9.329  12.602  67.947  1.00  0.00    -0.204 A  
HETATM   12  O   UNL     1      -8.698  13.418  68.844  1.00  0.00    -0.370 OA 
HETATM   13  C   UNL     1      -9.558  11.282  68.320  1.00  0.00    -0.193 A  
HETATM   14  H   UNL     1      -8.427  13.107  69.700  1.00  0.00     0.000 HD 
HETATM   15  C   UNL     1     -10.185  10.399  67.455  1.00  0.00    -0.259 A  
HETATM   16  O   UNL     1      -9.155  10.842  69.548  1.00  0.00    -0.398 OA 
HETATM   17  H   UNL     1      -9.311   9.940  69.803  1.00  0.00     0.000 HD 
HETATM   18  C   UNL     1     -10.583  10.847  66.192  1.00  0.00    -0.270 A  
ENDBRANCH   6   9
ENDBRANCH   2   6
TORSDOF 2
ENDMDL
MODEL       70
REMARK 921   NORMALIZED FREE ENERGY PREDICTED BY IDOCK:   -4.37 KCAL/MOL
REMARK 922        TOTAL FREE ENERGY PREDICTED BY IDOCK:   -5.09 KCAL/MOL
REMARK 923 INTER-LIGAND FREE ENERGY PREDICTED BY IDOCK:   -4.86 KCAL/MOL
REMARK 924 INTRA-LIGAND FREE ENERGY PREDICTED BY IDOCK:   -0.23 KCAL/MOL
REMARK 927      BINDING AFFINITY PREDICTED BY RF-SCORE:    0.00 PKD
ROOT
HETATM    1  C   UNL     1      -9.918  11.117  67.638  1.00  0.00    -0.195 C  
HETATM    2  C   UNL     1     -11.142  11.594  68.427  1.00  0.00    -0.234 C  
HETATM    3  N   UNL     1     -11.952  10.410  68.785  1.00  0.00    -0.715 NA 
HETATM    4  H1  UNL     1     -12.766  10.728  69.311  1.00  0.00     0.000 HD 
HETATM    5  H2  UNL     1     -11.413   9.702  69.284  1.00  0.00     0.000 HD 
ENDROOT
BRANCH   2   6
HETATM    6  C   UNL     1     -12.020  12.620  67.648  1.00  0.00    -0.247 C  
HETATM    7  H   UNL     1     -12.581  12.908  65.779  1.00  0.00     0.000 HD 
HETATM    8  O   UNL     1     -12.046  12.283  66.253  1.00  0.00    -0.626 OA 
BRANCH   6   9
HETATM    9  C   UNL     1     -11.568  14.057  67.830  1.00  0.00    -0.378 A  
HETATM   10  C   UNL     1     -11.677  14.710  69.072  1.00  0.00    -0.339 A  
HETATM   11  C   UNL     1     -11.295  16.043  69.191  1.00  0.00    -0.352 A  
HETATM   12  O   UNL     1     -11.399  16.720  70.374  1.00  0.00    -0.466 OA 
HETATM   13  C   UNL     1     -10.799  16.733  68.090  1.00  0.00    -0.353 A  
HETATM   14  H   UNL     1     -11.138  17.630  70.455  1.00  0.00     0.000 HD 
HETATM   15  C   UNL     1     -10.674  16.109  66.859  1.00  0.00    -0.247 A  
HETATM   16  O   UNL     1     -10.434  18.043  68.215  1.00  0.00    -0.375 OA 
HETATM   17  H   UNL     1     -10.095  18.515  67.464  1.00  0.00     0.000 HD 
HETATM   18  C   UNL     1     -11.061  14.772  66.728  1.00  0.00    -0.338 A  
ENDBRANCH   6   9
ENDBRANCH   2   6
TORSDOF 2
ENDMDL
MODEL       71
REMARK 921   NORMALIZED FREE ENERGY PREDICTED BY IDOCK:   -4.37 KCAL/MOL
REMARK 922        TOTAL FREE ENERGY PREDICTED BY IDOCK:   -5.09 KCAL/MOL
REMARK 923 INTER-LIGAND FREE ENERGY PREDICTED BY IDOCK:   -4.90 KCAL/MOL
REMARK 924 INTRA-LIGAND FREE ENERGY PREDICTED BY IDOCK:   -0.19 KCAL/MOL
REMARK 927      BINDING AFFINITY PREDICTED BY RF-SCORE:    0.00 PKD
ROOT
HETATM    1  C   UNL     1     -10.477   5.328  70.326  1.00  0.00    -0.332 C  
HETATM    2  C   UNL     1     -11.243   6.578  69.880  1.00  0.00    -0.395 C  
HETATM    3  N   UNL     1     -11.507   6.468  68.430  1.00  0.00    -0.527 NA 
HETATM    4  H1  UNL     1     -12.017   7.299  68.134  1.00  0.00     0.000 HD 
HETATM    5  H2  UNL     1     -11.988   5.603  68.183  1.00  0.00     0.000 HD 
ENDROOT
BRANCH   2   6
HETATM    6  C   UNL     1     -10.487   7.908  70.181  1.00  0.00    -0.231 C  
HETATM    7  H   UNL     1      -8.957   8.474  71.291  1.00  0.00     0.000 HD 
HETATM    8  O   UNL     1      -9.418   7.665  71.108  1.00  0.00    -0.154 OA 
BRANCH   6   9
HETATM    9  C   UNL     1     -11.391   9.009  70.702  1.00  0.00    -0.311 A  
HETATM   10  C   UNL     1     -11.256  10.340  70.264  1.00  0.00    -0.395 A  
HETATM   11  C   UNL     1     -12.073  11.332  70.798  1.00  0.00    -0.349 A  
HETATM   12  O   UNL     1     -11.964  12.639  70.413  1.00  0.00    -0.467 OA 
HETATM   13  C   UNL     1     -13.028  11.015  71.758  1.00  0.00    -0.438 A  
HETATM   14  H   UNL     1     -12.522  13.317  70.777  1.00  0.00     0.000 HD 
HETATM   15  C   UNL     1     -13.185   9.711  72.199  1.00  0.00    -0.535 A  
HETATM   16  O   UNL     1     -13.819  11.998  72.281  1.00  0.00    -0.384 OA 
HETATM   17  H   UNL     1     -14.471  11.782  72.937  1.00  0.00     0.000 HD 
HETATM   18  C   UNL     1     -12.365   8.709  71.673  1.00  0.00    -0.384 A  
ENDBRANCH   6   9
ENDBRANCH   2   6
TORSDOF 2
ENDMDL
MODEL       72
REMARK 921   NORMALIZED FREE ENERGY PREDICTED BY IDOCK:   -4.36 KCAL/MOL
REMARK 922        TOTAL FREE ENERGY PREDICTED BY IDOCK:   -5.08 KCAL/MOL
REMARK 923 INTER-LIGAND FREE ENERGY PREDICTED BY IDOCK:   -4.89 KCAL/MOL
REMARK 924 INTRA-LIGAND FREE ENERGY PREDICTED BY IDOCK:   -0.20 KCAL/MOL
REMARK 927      BINDING AFFINITY PREDICTED BY RF-SCORE:    0.00 PKD
ROOT
HETATM    1  C   UNL     1     -11.652  12.849  69.172  1.00  0.00    -0.375 C  
HETATM    2  C   UNL     1     -10.445  13.104  68.263  1.00  0.00    -0.250 C  
HETATM    3  N   UNL     1      -9.575  14.103  68.918  1.00  0.00    -0.387 NA 
HETATM    4  H1  UNL     1      -8.771  14.273  68.313  1.00  0.00     0.000 HD 
HETATM    5  H2  UNL     1      -9.305  13.830  69.863  1.00  0.00     0.000 HD 
ENDROOT
BRANCH   2   6
HETATM    6  C   UNL     1     -10.838  13.598  66.837  1.00  0.00    -0.283 C  
HETATM    7  H   UNL     1     -12.458  14.288  65.948  1.00  0.00     0.000 HD 
HETATM    8  O   UNL     1     -12.219  13.987  66.816  1.00  0.00    -0.439 OA 
BRANCH   6   9
HETATM    9  C   UNL     1     -10.567  12.573  65.751  1.00  0.00    -0.299 A  
HETATM   10  C   UNL     1     -10.272  11.233  66.063  1.00  0.00    -0.295 A  
HETATM   11  C   UNL     1      -9.985  10.331  65.043  1.00  0.00    -0.323 A  
HETATM   12  O   UNL     1      -9.678   9.024  65.302  1.00  0.00    -0.452 OA 
HETATM   13  C   UNL     1      -9.994  10.744  63.715  1.00  0.00    -0.351 A  
HETATM   14  H   UNL     1      -9.482   8.408  64.606  1.00  0.00     0.000 HD 
HETATM   15  C   UNL     1     -10.290  12.056  63.383  1.00  0.00    -0.468 A  
HETATM   16  O   UNL     1      -9.703   9.852  62.722  1.00  0.00    -0.535 OA 
HETATM   17  H   UNL     1      -9.709  10.134  61.816  1.00  0.00     0.000 HD 
HETATM   18  C   UNL     1     -10.573  12.971  64.401  1.00  0.00    -0.429 A  
ENDBRANCH   6   9
ENDBRANCH   2   6
TORSDOF 2
ENDMDL
MODEL       73
REMARK 921   NORMALIZED FREE ENERGY PREDICTED BY IDOCK:   -4.32 KCAL/MOL
REMARK 922        TOTAL FREE ENERGY PREDICTED BY IDOCK:   -5.03 KCAL/MOL
REMARK 923 INTER-LIGAND FREE ENERGY PREDICTED BY IDOCK:   -4.84 KCAL/MOL
REMARK 924 INTRA-LIGAND FREE ENERGY PREDICTED BY IDOCK:   -0.19 KCAL/MOL
REMARK 927      BINDING AFFINITY PREDICTED BY RF-SCORE:    0.00 PKD
ROOT
HETATM    1  C   UNL     1     -10.239   9.998  66.926  1.00  0.00    -0.299 C  
HETATM    2  C   UNL     1     -11.077  10.121  68.203  1.00  0.00    -0.230 C  
HETATM    3  N   UNL     1     -12.122  11.140  67.975  1.00  0.00    -0.711 NA 
HETATM    4  H1  UNL     1     -12.680  11.222  68.825  1.00  0.00     0.000 HD 
HETATM    5  H2  UNL     1     -12.689  10.944  67.150  1.00  0.00     0.000 HD 
ENDROOT
BRANCH   2   6
HETATM    6  C   UNL     1     -10.236  10.497  69.461  1.00  0.00    -0.200 C  
HETATM    7  H   UNL     1      -8.329  10.765  69.891  1.00  0.00     0.000 HD 
HETATM    8  O   UNL     1      -8.841  10.536  69.124  1.00  0.00    -0.163 OA 
BRANCH   6   9
HETATM    9  C   UNL     1     -10.464   9.564  70.636  1.00  0.00    -0.374 A  
HETATM   10  C   UNL     1     -11.760   9.185  71.033  1.00  0.00    -0.363 A  
HETATM   11  C   UNL     1     -11.933   8.364  72.143  1.00  0.00    -0.374 A  
HETATM   12  O   UNL     1     -13.174   7.986  72.573  1.00  0.00    -0.538 OA 
HETATM   13  C   UNL     1     -10.831   7.909  72.861  1.00  0.00    -0.386 A  
HETATM   14  H   UNL     1     -13.293   7.425  73.331  1.00  0.00     0.000 HD 
HETATM   15  C   UNL     1      -9.545   8.262  72.484  1.00  0.00    -0.365 A  
HETATM   16  O   UNL     1     -11.013   7.111  73.954  1.00  0.00    -0.526 OA 
HETATM   17  H   UNL     1     -10.261   6.801  74.444  1.00  0.00     0.000 HD 
HETATM   18  C   UNL     1      -9.362   9.091  71.374  1.00  0.00    -0.310 A  
ENDBRANCH   6   9
ENDBRANCH   2   6
TORSDOF 2
ENDMDL
MODEL       74
REMARK 921   NORMALIZED FREE ENERGY PREDICTED BY IDOCK:   -4.31 KCAL/MOL
REMARK 922        TOTAL FREE ENERGY PREDICTED BY IDOCK:   -5.03 KCAL/MOL
REMARK 923 INTER-LIGAND FREE ENERGY PREDICTED BY IDOCK:   -4.81 KCAL/MOL
REMARK 924 INTRA-LIGAND FREE ENERGY PREDICTED BY IDOCK:   -0.22 KCAL/MOL
REMARK 927      BINDING AFFINITY PREDICTED BY RF-SCORE:    0.00 PKD
ROOT
HETATM    1  C   UNL     1     -11.578  15.465  70.400  1.00  0.00    -0.352 C  
HETATM    2  C   UNL     1     -11.675  15.568  68.875  1.00  0.00    -0.370 C  
HETATM    3  N   UNL     1     -12.364  14.362  68.370  1.00  0.00    -0.599 NA 
HETATM    4  H1  UNL     1     -12.428  14.431  67.355  1.00  0.00     0.000 HD 
HETATM    5  H2  UNL     1     -13.271  14.214  68.813  1.00  0.00     0.000 HD 
ENDROOT
BRANCH   2   6
HETATM    6  C   UNL     1     -10.289  15.717  68.175  1.00  0.00    -0.246 C  
HETATM    7  H   UNL     1      -8.425  15.186  68.546  1.00  0.00     0.000 HD 
HETATM    8  O   UNL     1      -9.269  15.096  68.972  1.00  0.00    -0.201 OA 
BRANCH   6   9
HETATM    9  C   UNL     1      -9.916  17.158  67.881  1.00  0.00    -0.292 A  
HETATM   10  C   UNL     1     -10.533  17.879  66.842  1.00  0.00    -0.334 A  
HETATM   11  C   UNL     1     -10.134  19.184  66.571  1.00  0.00    -0.406 A  
HETATM   12  O   UNL     1     -10.695  19.915  65.561  1.00  0.00    -0.461 OA 
HETATM   13  C   UNL     1      -9.132  19.785  67.326  1.00  0.00    -0.326 A  
HETATM   14  H   UNL     1     -10.423  20.806  65.376  1.00  0.00     0.000 HD 
HETATM   15  C   UNL     1      -8.515  19.097  68.360  1.00  0.00    -0.384 A  
HETATM   16  O   UNL     1      -8.742  21.063  67.047  1.00  0.00    -0.579 OA 
HETATM   17  H   UNL     1      -8.057  21.473  67.562  1.00  0.00     0.000 HD 
HETATM   18  C   UNL     1      -8.905  17.784  68.635  1.00  0.00    -0.263 A  
ENDBRANCH   6   9
ENDBRANCH   2   6
TORSDOF 2
ENDMDL
MODEL       75
REMARK 921   NORMALIZED FREE ENERGY PREDICTED BY IDOCK:   -4.31 KCAL/MOL
REMARK 922        TOTAL FREE ENERGY PREDICTED BY IDOCK:   -5.03 KCAL/MOL
REMARK 923 INTER-LIGAND FREE ENERGY PREDICTED BY IDOCK:   -4.84 KCAL/MOL
REMARK 924 INTRA-LIGAND FREE ENERGY PREDICTED BY IDOCK:   -0.19 KCAL/MOL
REMARK 927      BINDING AFFINITY PREDICTED BY RF-SCORE:    0.00 PKD
ROOT
HETATM    1  C   UNL     1     -12.296  13.838  65.143  1.00  0.00    -0.476 C  
HETATM    2  C   UNL     1     -11.635  15.220  65.100  1.00  0.00    -0.192 C  
HETATM    3  N   UNL     1     -11.951  15.845  63.799  1.00  0.00    -1.266 NA 
HETATM    4  H1  UNL     1     -11.512  16.764  63.770  1.00  0.00     0.000 HD 
HETATM    5  H2  UNL     1     -12.954  15.883  63.615  1.00  0.00     0.000 HD 
ENDROOT
BRANCH   2   6
HETATM    6  C   UNL     1     -10.089  15.173  65.302  1.00  0.00    -0.330 C  
HETATM    7  H   UNL     1      -8.768  13.890  66.010  1.00  0.00     0.000 HD 
HETATM    8  O   UNL     1      -9.709  13.918  65.887  1.00  0.00    -0.280 OA 
BRANCH   6   9
HETATM    9  C   UNL     1      -9.558  16.322  66.140  1.00  0.00    -0.362 A  
HETATM   10  C   UNL     1      -8.178  16.503  66.347  1.00  0.00    -0.364 A  
HETATM   11  C   UNL     1      -7.729  17.541  67.158  1.00  0.00    -0.205 A  
HETATM   12  O   UNL     1      -6.398  17.743  67.399  1.00  0.00    -0.149 OA 
HETATM   13  C   UNL     1      -8.636  18.405  67.762  1.00  0.00    -0.267 A  
HETATM   14  H   UNL     1      -6.092  18.452  67.953  1.00  0.00     0.000 HD 
HETATM   15  C   UNL     1     -10.000  18.251  67.566  1.00  0.00    -0.345 A  
HETATM   16  O   UNL     1      -8.185  19.415  68.563  1.00  0.00    -0.339 OA 
HETATM   17  H   UNL     1      -8.805  20.005  68.975  1.00  0.00     0.000 HD 
HETATM   18  C   UNL     1     -10.460  17.208  66.758  1.00  0.00    -0.263 A  
ENDBRANCH   6   9
ENDBRANCH   2   6
TORSDOF 2
ENDMDL
MODEL       76
REMARK 921   NORMALIZED FREE ENERGY PREDICTED BY IDOCK:   -4.30 KCAL/MOL
REMARK 922        TOTAL FREE ENERGY PREDICTED BY IDOCK:   -5.02 KCAL/MOL
REMARK 923 INTER-LIGAND FREE ENERGY PREDICTED BY IDOCK:   -5.02 KCAL/MOL
REMARK 924 INTRA-LIGAND FREE ENERGY PREDICTED BY IDOCK:    0.01 KCAL/MOL
REMARK 927      BINDING AFFINITY PREDICTED BY RF-SCORE:    0.00 PKD
ROOT
HETATM    1  C   UNL     1     -10.887   9.512  70.453  1.00  0.00    -0.338 C  
HETATM    2  C   UNL     1     -10.710  10.350  69.183  1.00  0.00    -0.234 C  
HETATM    3  N   UNL     1      -9.522  11.212  69.358  1.00  0.00    -0.401 NA 
HETATM    4  H1  UNL     1      -9.404  11.770  68.512  1.00  0.00     0.000 HD 
HETATM    5  H2  UNL     1      -8.684  10.682  69.598  1.00  0.00     0.000 HD 
ENDROOT
BRANCH   2   6
HETATM    6  C   UNL     1     -11.954  11.227  68.842  1.00  0.00    -0.310 C  
HETATM    7  H   UNL     1     -12.777  11.987  67.218  1.00  0.00     0.000 HD 
HETATM    8  O   UNL     1     -12.020  11.453  67.426  1.00  0.00    -0.606 OA 
BRANCH   6   9
HETATM    9  C   UNL     1     -11.977  12.551  69.584  1.00  0.00    -0.339 A  
HETATM   10  C   UNL     1     -12.495  12.653  70.888  1.00  0.00    -0.368 A  
HETATM   11  C   UNL     1     -12.542  13.891  71.521  1.00  0.00    -0.334 A  
HETATM   12  O   UNL     1     -13.052  14.038  72.781  1.00  0.00    -0.478 OA 
HETATM   13  C   UNL     1     -12.073  15.030  70.874  1.00  0.00    -0.324 A  
HETATM   14  H   UNL     1     -13.084  14.884  73.213  1.00  0.00     0.000 HD 
HETATM   15  C   UNL     1     -11.551  14.953  69.592  1.00  0.00    -0.337 A  
HETATM   16  O   UNL     1     -12.132  16.242  71.501  1.00  0.00    -0.612 OA 
HETATM   17  H   UNL     1     -11.812  17.020  71.059  1.00  0.00     0.000 HD 
HETATM   18  C   UNL     1     -11.506  13.715  68.947  1.00  0.00    -0.344 A  
ENDBRANCH   6   9
ENDBRANCH   2   6
TORSDOF 2
ENDMDL
MODEL       77
REMARK 921   NORMALIZED FREE ENERGY PREDICTED BY IDOCK:   -4.25 KCAL/MOL
REMARK 922        TOTAL FREE ENERGY PREDICTED BY IDOCK:   -4.95 KCAL/MOL
REMARK 923 INTER-LIGAND FREE ENERGY PREDICTED BY IDOCK:   -4.77 KCAL/MOL
REMARK 924 INTRA-LIGAND FREE ENERGY PREDICTED BY IDOCK:   -0.18 KCAL/MOL
REMARK 927      BINDING AFFINITY PREDICTED BY RF-SCORE:    0.00 PKD
ROOT
HETATM    1  C   UNL     1     -10.387  11.703  66.320  1.00  0.00    -0.273 C  
HETATM    2  C   UNL     1     -11.626  12.363  66.933  1.00  0.00    -0.370 C  
HETATM    3  N   UNL     1     -12.141  13.363  65.973  1.00  0.00    -0.419 NA 
HETATM    4  H1  UNL     1     -12.966  13.803  66.381  1.00  0.00     0.000 HD 
HETATM    5  H2  UNL     1     -12.322  12.965  65.051  1.00  0.00     0.000 HD 
ENDROOT
BRANCH   2   6
HETATM    6  C   UNL     1     -11.349  13.044  68.308  1.00  0.00    -0.288 C  
HETATM    7  H   UNL     1      -9.766  13.579  69.356  1.00  0.00     0.000 HD 
HETATM    8  O   UNL     1      -9.935  13.164  68.519  1.00  0.00    -0.232 OA 
BRANCH   6   9
HETATM    9  C   UNL     1     -11.992  12.321  69.477  1.00  0.00    -0.333 A  
HETATM   10  C   UNL     1     -12.373  13.007  70.645  1.00  0.00    -0.391 A  
HETATM   11  C   UNL     1     -12.918  12.304  71.715  1.00  0.00    -0.325 A  
HETATM   12  O   UNL     1     -13.286  12.927  72.875  1.00  0.00    -0.537 OA 
HETATM   13  C   UNL     1     -13.096  10.927  71.635  1.00  0.00    -0.433 A  
HETATM   14  H   UNL     1     -13.659  12.448  73.606  1.00  0.00     0.000 HD 
HETATM   15  C   UNL     1     -12.737  10.231  70.491  1.00  0.00    -0.325 A  
HETATM   16  O   UNL     1     -13.624  10.245  72.694  1.00  0.00    -0.549 OA 
HETATM   17  H   UNL     1     -13.745   9.305  72.639  1.00  0.00     0.000 HD 
HETATM   18  C   UNL     1     -12.182  10.927  69.414  1.00  0.00    -0.293 A  
ENDBRANCH   6   9
ENDBRANCH   2   6
TORSDOF 2
ENDMDL
MODEL       78
REMARK 921   NORMALIZED FREE ENERGY PREDICTED BY IDOCK:   -4.24 KCAL/MOL
REMARK 922        TOTAL FREE ENERGY PREDICTED BY IDOCK:   -4.95 KCAL/MOL
REMARK 923 INTER-LIGAND FREE ENERGY PREDICTED BY IDOCK:   -4.77 KCAL/MOL
REMARK 924 INTRA-LIGAND FREE ENERGY PREDICTED BY IDOCK:   -0.18 KCAL/MOL
REMARK 927      BINDING AFFINITY PREDICTED BY RF-SCORE:    0.00 PKD
ROOT
HETATM    1  C   UNL     1      -9.974   5.033  71.737  1.00  0.00    -0.250 C  
HETATM    2  C   UNL     1     -10.680   6.324  72.163  1.00  0.00    -0.231 C  
HETATM    3  N   UNL     1     -11.229   6.127  73.521  1.00  0.00    -0.417 NA 
HETATM    4  H1  UNL     1     -11.698   6.987  73.804  1.00  0.00     0.000 HD 
HETATM    5  H2  UNL     1     -10.520   5.827  74.191  1.00  0.00     0.000 HD 
ENDROOT
BRANCH   2   6
HETATM    6  C   UNL     1     -11.819   6.757  71.190  1.00  0.00    -0.360 C  
HETATM    7  H   UNL     1     -12.269   6.484  69.289  1.00  0.00     0.000 HD 
HETATM    8  O   UNL     1     -11.575   6.221  69.881  1.00  0.00    -0.435 OA 
BRANCH   6   9
HETATM    9  C   UNL     1     -12.004   8.261  71.112  1.00  0.00    -0.290 A  
HETATM   10  C   UNL     1     -11.134   9.070  70.358  1.00  0.00    -0.279 A  
HETATM   11  C   UNL     1     -11.307  10.451  70.346  1.00  0.00    -0.337 A  
HETATM   12  O   UNL     1     -10.475  11.275  69.641  1.00  0.00    -0.445 OA 
HETATM   13  C   UNL     1     -12.339  11.037  71.071  1.00  0.00    -0.385 A  
HETATM   14  H   UNL     1     -10.593  12.218  69.632  1.00  0.00     0.000 HD 
HETATM   15  C   UNL     1     -13.214  10.260  71.814  1.00  0.00    -0.534 A  
HETATM   16  O   UNL     1     -12.495  12.394  71.059  1.00  0.00    -0.368 OA 
HETATM   17  H   UNL     1     -13.200  12.794  71.554  1.00  0.00     0.000 HD 
HETATM   18  C   UNL     1     -13.045   8.873  71.837  1.00  0.00    -0.436 A  
ENDBRANCH   6   9
ENDBRANCH   2   6
TORSDOF 2
ENDMDL
MODEL       79
REMARK 921   NORMALIZED FREE ENERGY PREDICTED BY IDOCK:   -4.22 KCAL/MOL
REMARK 922        TOTAL FREE ENERGY PREDICTED BY IDOCK:   -4.92 KCAL/MOL
REMARK 923 INTER-LIGAND FREE ENERGY PREDICTED BY IDOCK:   -4.73 KCAL/MOL
REMARK 924 INTRA-LIGAND FREE ENERGY PREDICTED BY IDOCK:   -0.19 KCAL/MOL
REMARK 927      BINDING AFFINITY PREDICTED BY RF-SCORE:    0.00 PKD
ROOT
HETATM    1  C   UNL     1      -6.908  14.821  68.948  1.00  0.00    -0.105 C  
HETATM    2  C   UNL     1      -7.689  14.060  67.872  1.00  0.00    -0.159 C  
HETATM    3  N   UNL     1      -6.734  13.239  67.098  1.00  0.00    -0.452 NA 
HETATM    4  H1  UNL     1      -7.254  12.733  66.382  1.00  0.00     0.000 HD 
HETATM    5  H2  UNL     1      -6.178  12.622  67.691  1.00  0.00     0.000 HD 
ENDROOT
BRANCH   2   6
HETATM    6  C   UNL     1      -8.485  14.994  66.908  1.00  0.00    -0.236 C  
HETATM    7  H   UNL     1      -9.270  16.802  66.979  1.00  0.00     0.000 HD 
HETATM    8  O   UNL     1      -8.786  16.234  67.566  1.00  0.00    -0.179 OA 
BRANCH   6   9
HETATM    9  C   UNL     1      -9.758  14.362  66.375  1.00  0.00    -0.320 A  
HETATM   10  C   UNL     1     -10.376  13.285  67.037  1.00  0.00    -0.246 A  
HETATM   11  C   UNL     1     -11.517  12.702  66.495  1.00  0.00    -0.353 A  
HETATM   12  O   UNL     1     -12.140  11.643  67.096  1.00  0.00    -0.575 OA 
HETATM   13  C   UNL     1     -12.055  13.181  65.305  1.00  0.00    -0.429 A  
HETATM   14  H   UNL     1     -12.920  11.245  66.726  1.00  0.00     0.000 HD 
HETATM   15  C   UNL     1     -11.469  14.246  64.640  1.00  0.00    -0.389 A  
HETATM   16  O   UNL     1     -13.171  12.595  64.778  1.00  0.00    -0.846 OA 
HETATM   17  H   UNL     1     -13.538  12.923  63.965  1.00  0.00     0.000 HD 
HETATM   18  C   UNL     1     -10.318  14.834  65.173  1.00  0.00    -0.439 A  
ENDBRANCH   6   9
ENDBRANCH   2   6
TORSDOF 2
ENDMDL
MODEL       80
REMARK 921   NORMALIZED FREE ENERGY PREDICTED BY IDOCK:   -4.18 KCAL/MOL
REMARK 922        TOTAL FREE ENERGY PREDICTED BY IDOCK:   -4.87 KCAL/MOL
REMARK 923 INTER-LIGAND FREE ENERGY PREDICTED BY IDOCK:   -4.68 KCAL/MOL
REMARK 924 INTRA-LIGAND FREE ENERGY PREDICTED BY IDOCK:   -0.19 KCAL/MOL
REMARK 927      BINDING AFFINITY PREDICTED BY RF-SCORE:    0.00 PKD
ROOT
HETATM    1  C   UNL     1     -11.285  14.127  69.607  1.00  0.00    -0.241 C  
HETATM    2  C   UNL     1     -11.414  15.652  69.540  1.00  0.00    -0.344 C  
HETATM    3  N   UNL     1     -12.683  16.039  70.192  1.00  0.00    -0.593 NA 
HETATM    4  H1  UNL     1     -12.769  17.054  70.148  1.00  0.00     0.000 HD 
HETATM    5  H2  UNL     1     -12.761  15.679  71.144  1.00  0.00     0.000 HD 
ENDROOT
BRANCH   2   6
HETATM    6  C   UNL     1     -11.374  16.213  68.086  1.00  0.00    -0.270 C  
HETATM    7  H   UNL     1     -11.107  15.489  66.271  1.00  0.00     0.000 HD 
HETATM    8  O   UNL     1     -11.131  15.147  67.156  1.00  0.00    -0.329 OA 
BRANCH   6   9
HETATM    9  C   UNL     1     -10.349  17.317  67.896  1.00  0.00    -0.360 A  
HETATM   10  C   UNL     1     -10.585  18.394  67.022  1.00  0.00    -0.400 A  
HETATM   11  C   UNL     1      -9.604  19.364  66.838  1.00  0.00    -0.339 A  
HETATM   12  O   UNL     1      -9.784  20.419  65.987  1.00  0.00    -0.655 OA 
HETATM   13  C   UNL     1      -8.394  19.279  67.518  1.00  0.00    -0.290 A  
HETATM   14  H   UNL     1      -9.115  21.082  65.861  1.00  0.00     0.000 HD 
HETATM   15  C   UNL     1      -8.143  18.231  68.390  1.00  0.00    -0.322 A  
HETATM   16  O   UNL     1      -7.435  20.232  67.324  1.00  0.00    -0.270 OA 
HETATM   17  H   UNL     1      -6.608  20.173  67.788  1.00  0.00     0.000 HD 
HETATM   18  C   UNL     1      -9.119  17.249  68.576  1.00  0.00    -0.269 A  
ENDBRANCH   6   9
ENDBRANCH   2   6
TORSDOF 2
ENDMDL
MODEL       81
REMARK 921   NORMALIZED FREE ENERGY PREDICTED BY IDOCK:   -4.17 KCAL/MOL
REMARK 922        TOTAL FREE ENERGY PREDICTED BY IDOCK:   -4.87 KCAL/MOL
REMARK 923 INTER-LIGAND FREE ENERGY PREDICTED BY IDOCK:   -4.63 KCAL/MOL
REMARK 924 INTRA-LIGAND FREE ENERGY PREDICTED BY IDOCK:   -0.24 KCAL/MOL
REMARK 927      BINDING AFFINITY PREDICTED BY RF-SCORE:    0.00 PKD
ROOT
HETATM    1  C   UNL     1      -9.671  11.819  67.768  1.00  0.00    -0.185 C  
HETATM    2  C   UNL     1     -11.090  12.006  68.314  1.00  0.00    -0.243 C  
HETATM    3  N   UNL     1     -11.793  10.708  68.232  1.00  0.00    -0.786 NA 
HETATM    4  H1  UNL     1     -12.738  10.833  68.595  1.00  0.00     0.000 HD 
HETATM    5  H2  UNL     1     -11.287   9.957  68.702  1.00  0.00     0.000 HD 
ENDROOT
BRANCH   2   6
HETATM    6  C   UNL     1     -11.906  13.098  67.556  1.00  0.00    -0.360 C  
HETATM    7  H   UNL     1     -12.351  13.520  65.681  1.00  0.00     0.000 HD 
HETATM    8  O   UNL     1     -11.854  12.856  66.143  1.00  0.00    -0.387 OA 
BRANCH   6   9
HETATM    9  C   UNL     1     -11.445  14.512  67.861  1.00  0.00    -0.348 A  
HETATM   10  C   UNL     1     -10.824  15.309  66.881  1.00  0.00    -0.317 A  
HETATM   11  C   UNL     1     -10.373  16.584  67.208  1.00  0.00    -0.296 A  
HETATM   12  O   UNL     1      -9.750  17.385  66.292  1.00  0.00    -0.298 OA 
HETATM   13  C   UNL     1     -10.538  17.079  68.497  1.00  0.00    -0.370 A  
HETATM   14  H   UNL     1      -9.442  18.256  66.515  1.00  0.00     0.000 HD 
HETATM   15  C   UNL     1     -11.154  16.316  69.477  1.00  0.00    -0.330 A  
HETATM   16  O   UNL     1     -10.084  18.329  68.810  1.00  0.00    -0.378 OA 
HETATM   17  H   UNL     1     -10.197  18.667  69.690  1.00  0.00     0.000 HD 
HETATM   18  C   UNL     1     -11.604  15.032  69.159  1.00  0.00    -0.333 A  
ENDBRANCH   6   9
ENDBRANCH   2   6
TORSDOF 2
ENDMDL
MODEL       82
REMARK 921   NORMALIZED FREE ENERGY PREDICTED BY IDOCK:   -4.17 KCAL/MOL
REMARK 922        TOTAL FREE ENERGY PREDICTED BY IDOCK:   -4.87 KCAL/MOL
REMARK 923 INTER-LIGAND FREE ENERGY PREDICTED BY IDOCK:   -4.68 KCAL/MOL
REMARK 924 INTRA-LIGAND FREE ENERGY PREDICTED BY IDOCK:   -0.18 KCAL/MOL
REMARK 927      BINDING AFFINITY PREDICTED BY RF-SCORE:    0.00 PKD
ROOT
HETATM    1  C   UNL     1      -7.838   8.927  68.931  1.00  0.00    -0.096 C  
HETATM    2  C   UNL     1      -9.200   8.266  69.165  1.00  0.00    -0.151 C  
HETATM    3  N   UNL     1      -9.348   7.157  68.199  1.00  0.00    -0.130 NA 
HETATM    4  H1  UNL     1     -10.255   6.717  68.355  1.00  0.00     0.000 HD 
HETATM    5  H2  UNL     1      -8.576   6.492  68.243  1.00  0.00     0.000 HD 
ENDROOT
BRANCH   2   6
HETATM    6  C   UNL     1     -10.399   9.253  69.025  1.00  0.00    -0.214 C  
HETATM    7  H   UNL     1     -10.644  11.198  68.800  1.00  0.00     0.000 HD 
HETATM    8  O   UNL     1      -9.914  10.597  68.885  1.00  0.00    -0.187 OA 
BRANCH   6   9
HETATM    9  C   UNL     1     -11.383   9.170  70.178  1.00  0.00    -0.164 A  
HETATM   10  C   UNL     1     -11.792   7.932  70.707  1.00  0.00    -0.190 A  
HETATM   11  C   UNL     1     -12.729   7.892  71.734  1.00  0.00    -0.329 A  
HETATM   12  O   UNL     1     -13.167   6.711  72.266  1.00  0.00    -0.545 OA 
HETATM   13  C   UNL     1     -13.262   9.070  72.246  1.00  0.00    -0.460 A  
HETATM   14  H   UNL     1     -13.807   6.684  72.967  1.00  0.00     0.000 HD 
HETATM   15  C   UNL     1     -12.868  10.302  71.747  1.00  0.00    -0.565 A  
HETATM   16  O   UNL     1     -14.188   9.020  73.249  1.00  0.00    -1.192 OA 
HETATM   17  H   UNL     1     -14.552   9.825  73.598  1.00  0.00     0.000 HD 
HETATM   18  C   UNL     1     -11.931  10.352  70.711  1.00  0.00    -0.462 A  
ENDBRANCH   6   9
ENDBRANCH   2   6
TORSDOF 2
ENDMDL
MODEL       83
REMARK 921   NORMALIZED FREE ENERGY PREDICTED BY IDOCK:   -4.16 KCAL/MOL
REMARK 922        TOTAL FREE ENERGY PREDICTED BY IDOCK:   -4.86 KCAL/MOL
REMARK 923 INTER-LIGAND FREE ENERGY PREDICTED BY IDOCK:   -4.68 KCAL/MOL
REMARK 924 INTRA-LIGAND FREE ENERGY PREDICTED BY IDOCK:   -0.18 KCAL/MOL
REMARK 927      BINDING AFFINITY PREDICTED BY RF-SCORE:    0.00 PKD
ROOT
HETATM    1  C   UNL     1     -10.889   6.101  68.550  1.00  0.00    -0.389 C  
HETATM    2  C   UNL     1     -10.965   6.690  67.138  1.00  0.00    -0.408 C  
HETATM    3  N   UNL     1     -11.054   5.573  66.174  1.00  0.00    -0.778 NA 
HETATM    4  H1  UNL     1     -11.104   5.965  65.234  1.00  0.00     0.000 HD 
HETATM    5  H2  UNL     1     -11.828   4.939  66.378  1.00  0.00     0.000 HD 
ENDROOT
BRANCH   2   6
HETATM    6  C   UNL     1      -9.750   7.600  66.781  1.00  0.00    -0.222 C  
HETATM    7  H   UNL     1      -8.002   8.046  67.580  1.00  0.00     0.000 HD 
HETATM    8  O   UNL     1      -8.742   7.492  67.797  1.00  0.00    -0.123 OA 
BRANCH   6   9
HETATM    9  C   UNL     1     -10.129   9.055  66.574  1.00  0.00    -0.354 A  
HETATM   10  C   UNL     1     -10.908   9.752  67.517  1.00  0.00    -0.286 A  
HETATM   11  C   UNL     1     -11.275  11.072  67.273  1.00  0.00    -0.258 A  
HETATM   12  O   UNL     1     -12.044  11.781  68.154  1.00  0.00    -0.556 OA 
HETATM   13  C   UNL     1     -10.871  11.710  66.105  1.00  0.00    -0.294 A  
HETATM   14  H   UNL     1     -12.295  12.682  67.987  1.00  0.00     0.000 HD 
HETATM   15  C   UNL     1     -10.097  11.047  65.166  1.00  0.00    -0.346 A  
HETATM   16  O   UNL     1     -11.244  13.003  65.871  1.00  0.00    -0.281 OA 
HETATM   17  H   UNL     1     -10.969  13.438  65.074  1.00  0.00     0.000 HD 
HETATM   18  C   UNL     1      -9.729   9.719  65.399  1.00  0.00    -0.383 A  
ENDBRANCH   6   9
ENDBRANCH   2   6
TORSDOF 2
ENDMDL
MODEL       84
REMARK 921   NORMALIZED FREE ENERGY PREDICTED BY IDOCK:   -4.16 KCAL/MOL
REMARK 922        TOTAL FREE ENERGY PREDICTED BY IDOCK:   -4.86 KCAL/MOL
REMARK 923 INTER-LIGAND FREE ENERGY PREDICTED BY IDOCK:   -4.67 KCAL/MOL
REMARK 924 INTRA-LIGAND FREE ENERGY PREDICTED BY IDOCK:   -0.19 KCAL/MOL
REMARK 927      BINDING AFFINITY PREDICTED BY RF-SCORE:    0.00 PKD
ROOT
HETATM    1  C   UNL     1     -11.104  14.913  69.689  1.00  0.00    -0.298 C  
HETATM    2  C   UNL     1     -11.521  15.306  68.268  1.00  0.00    -0.347 C  
HETATM    3  N   UNL     1     -12.377  14.231  67.723  1.00  0.00    -0.578 NA 
HETATM    4  H1  UNL     1     -12.655  14.493  66.777  1.00  0.00     0.000 HD 
HETATM    5  H2  UNL     1     -13.175  14.023  68.323  1.00  0.00     0.000 HD 
ENDROOT
BRANCH   2   6
HETATM    6  C   UNL     1     -10.312  15.554  67.315  1.00  0.00    -0.267 C  
HETATM    7  H   UNL     1      -8.448  14.928  67.161  1.00  0.00     0.000 HD 
HETATM    8  O   UNL     1      -9.184  14.777  67.742  1.00  0.00    -0.188 OA 
BRANCH   6   9
HETATM    9  C   UNL     1      -9.926  17.017  67.202  1.00  0.00    -0.281 A  
HETATM   10  C   UNL     1      -9.033  17.613  68.112  1.00  0.00    -0.269 A  
HETATM   11  C   UNL     1      -8.736  18.968  68.006  1.00  0.00    -0.306 A  
HETATM   12  O   UNL     1      -7.886  19.591  68.878  1.00  0.00    -0.356 OA 
HETATM   13  C   UNL     1      -9.313  19.738  67.002  1.00  0.00    -0.355 A  
HETATM   14  H   UNL     1      -7.684  20.516  68.805  1.00  0.00     0.000 HD 
HETATM   15  C   UNL     1     -10.190  19.172  66.089  1.00  0.00    -0.535 A  
HETATM   16  O   UNL     1      -9.022  21.070  66.912  1.00  0.00    -0.584 OA 
HETATM   17  H   UNL     1      -9.417  21.595  66.226  1.00  0.00     0.000 HD 
HETATM   18  C   UNL     1     -10.498  17.813  66.192  1.00  0.00    -0.301 A  
ENDBRANCH   6   9
ENDBRANCH   2   6
TORSDOF 2
ENDMDL
MODEL       85
REMARK 921   NORMALIZED FREE ENERGY PREDICTED BY IDOCK:   -4.15 KCAL/MOL
REMARK 922        TOTAL FREE ENERGY PREDICTED BY IDOCK:   -4.84 KCAL/MOL
REMARK 923 INTER-LIGAND FREE ENERGY PREDICTED BY IDOCK:   -4.64 KCAL/MOL
REMARK 924 INTRA-LIGAND FREE ENERGY PREDICTED BY IDOCK:   -0.20 KCAL/MOL
REMARK 927      BINDING AFFINITY PREDICTED BY RF-SCORE:    0.00 PKD
ROOT
HETATM    1  C   UNL     1     -10.440  16.382  65.500  1.00  0.00    -0.349 C  
HETATM    2  C   UNL     1     -10.293  14.962  66.057  1.00  0.00    -0.299 C  
HETATM    3  N   UNL     1      -8.852  14.663  66.189  1.00  0.00    -0.449 NA 
HETATM    4  H1  UNL     1      -8.754  13.717  66.560  1.00  0.00     0.000 HD 
HETATM    5  H2  UNL     1      -8.356  15.357  66.749  1.00  0.00     0.000 HD 
ENDROOT
BRANCH   2   6
HETATM    6  C   UNL     1     -10.979  13.877  65.172  1.00  0.00    -0.350 C  
HETATM    7  H   UNL     1     -12.726  13.635  64.288  1.00  0.00     0.000 HD 
HETATM    8  O   UNL     1     -12.308  14.295  64.826  1.00  0.00    -0.450 OA 
BRANCH   6   9
HETATM    9  C   UNL     1     -11.016  12.506  65.822  1.00  0.00    -0.327 A  
HETATM   10  C   UNL     1     -11.679  12.291  67.044  1.00  0.00    -0.399 A  
HETATM   11  C   UNL     1     -11.654  11.031  67.634  1.00  0.00    -0.143 A  
HETATM   12  O   UNL     1     -12.271  10.781  68.829  1.00  0.00    -0.783 OA 
HETATM   13  C   UNL     1     -10.981   9.980  67.020  1.00  0.00    -0.049 A  
HETATM   14  H   UNL     1     -12.254   9.921  69.231  1.00  0.00     0.000 HD 
HETATM   15  C   UNL     1     -10.327  10.166  65.812  1.00  0.00    -0.216 A  
HETATM   16  O   UNL     1     -10.955   8.749  67.612  1.00  0.00    -0.493 OA 
HETATM   17  H   UNL     1     -10.495   8.032  67.192  1.00  0.00     0.000 HD 
HETATM   18  C   UNL     1     -10.342  11.430  65.215  1.00  0.00    -0.336 A  
ENDBRANCH   6   9
ENDBRANCH   2   6
TORSDOF 2
ENDMDL
MODEL       86
REMARK 921   NORMALIZED FREE ENERGY PREDICTED BY IDOCK:   -4.14 KCAL/MOL
REMARK 922        TOTAL FREE ENERGY PREDICTED BY IDOCK:   -4.84 KCAL/MOL
REMARK 923 INTER-LIGAND FREE ENERGY PREDICTED BY IDOCK:   -4.67 KCAL/MOL
REMARK 924 INTRA-LIGAND FREE ENERGY PREDICTED BY IDOCK:   -0.16 KCAL/MOL
REMARK 927      BINDING AFFINITY PREDICTED BY RF-SCORE:    0.00 PKD
ROOT
HETATM    1  C   UNL     1     -10.695   9.433  67.041  1.00  0.00    -0.207 C  
HETATM    2  C   UNL     1     -11.068  10.798  67.627  1.00  0.00    -0.319 C  
HETATM    3  N   UNL     1     -10.484  11.848  66.765  1.00  0.00    -0.216 NA 
HETATM    4  H1  UNL     1     -10.733  12.757  67.155  1.00  0.00     0.000 HD 
HETATM    5  H2  UNL     1     -10.759  11.751  65.788  1.00  0.00     0.000 HD 
ENDROOT
BRANCH   2   6
HETATM    6  C   UNL     1     -10.587  10.994  69.097  1.00  0.00    -0.219 C  
HETATM    7  H   UNL     1      -9.961   9.842  70.572  1.00  0.00     0.000 HD 
HETATM    8  O   UNL     1     -10.254   9.723  69.677  1.00  0.00    -0.202 OA 
BRANCH   6   9
HETATM    9  C   UNL     1     -11.597  11.717  69.969  1.00  0.00    -0.338 A  
HETATM   10  C   UNL     1     -11.869  13.087  69.797  1.00  0.00    -0.381 A  
HETATM   11  C   UNL     1     -12.768  13.727  70.643  1.00  0.00    -0.260 A  
HETATM   12  O   UNL     1     -13.048  15.060  70.522  1.00  0.00    -0.569 OA 
HETATM   13  C   UNL     1     -13.406  13.020  71.657  1.00  0.00    -0.292 A  
HETATM   14  H   UNL     1     -13.662  15.498  71.100  1.00  0.00     0.000 HD 
HETATM   15  C   UNL     1     -13.161  11.668  71.841  1.00  0.00    -0.490 A  
HETATM   16  O   UNL     1     -14.280  13.661  72.488  1.00  0.00    -0.724 OA 
HETATM   17  H   UNL     1     -14.715  13.178  73.180  1.00  0.00     0.000 HD 
HETATM   18  C   UNL     1     -12.254  11.018  70.999  1.00  0.00    -0.456 A  
ENDBRANCH   6   9
ENDBRANCH   2   6
TORSDOF 2
ENDMDL
MODEL       87
REMARK 921   NORMALIZED FREE ENERGY PREDICTED BY IDOCK:   -4.12 KCAL/MOL
REMARK 922        TOTAL FREE ENERGY PREDICTED BY IDOCK:   -4.81 KCAL/MOL
REMARK 923 INTER-LIGAND FREE ENERGY PREDICTED BY IDOCK:   -4.63 KCAL/MOL
REMARK 924 INTRA-LIGAND FREE ENERGY PREDICTED BY IDOCK:   -0.19 KCAL/MOL
REMARK 927      BINDING AFFINITY PREDICTED BY RF-SCORE:    0.00 PKD
ROOT
HETATM    1  C   UNL     1      -7.995   8.246  63.888  1.00  0.00    -0.146 C  
HETATM    2  C   UNL     1      -8.532   9.675  64.012  1.00  0.00    -0.185 C  
HETATM    3  N   UNL     1      -7.415  10.613  63.769  1.00  0.00    -0.353 NA 
HETATM    4  H1  UNL     1      -7.773  11.565  63.851  1.00  0.00     0.000 HD 
HETATM    5  H2  UNL     1      -6.948  10.444  62.878  1.00  0.00     0.000 HD 
ENDROOT
BRANCH   2   6
HETATM    6  C   UNL     1      -9.182   9.975  65.397  1.00  0.00    -0.210 C  
HETATM    7  H   UNL     1     -10.112   8.949  66.802  1.00  0.00     0.000 HD 
HETATM    8  O   UNL     1      -9.716   8.767  65.959  1.00  0.00    -0.254 OA 
BRANCH   6   9
HETATM    9  C   UNL     1     -10.258  11.043  65.337  1.00  0.00    -0.333 A  
HETATM   10  C   UNL     1     -10.609  11.797  66.473  1.00  0.00    -0.289 A  
HETATM   11  C   UNL     1     -11.631  12.737  66.393  1.00  0.00    -0.378 A  
HETATM   12  O   UNL     1     -12.015  13.479  67.475  1.00  0.00    -0.361 OA 
HETATM   13  C   UNL     1     -12.306  12.942  65.194  1.00  0.00    -0.493 A  
HETATM   14  H   UNL     1     -12.713  14.121  67.421  1.00  0.00     0.000 HD 
HETATM   15  C   UNL     1     -11.973  12.218  64.060  1.00  0.00    -0.551 A  
HETATM   16  O   UNL     1     -13.314  13.861  65.128  1.00  0.00    -0.698 OA 
HETATM   17  H   UNL     1     -13.775  14.001  64.310  1.00  0.00     0.000 HD 
HETATM   18  C   UNL     1     -10.952  11.267  64.133  1.00  0.00    -0.376 A  
ENDBRANCH   6   9
ENDBRANCH   2   6
TORSDOF 2
ENDMDL
MODEL       88
REMARK 921   NORMALIZED FREE ENERGY PREDICTED BY IDOCK:   -4.11 KCAL/MOL
REMARK 922        TOTAL FREE ENERGY PREDICTED BY IDOCK:   -4.81 KCAL/MOL
REMARK 923 INTER-LIGAND FREE ENERGY PREDICTED BY IDOCK:   -4.62 KCAL/MOL
REMARK 924 INTRA-LIGAND FREE ENERGY PREDICTED BY IDOCK:   -0.19 KCAL/MOL
REMARK 927      BINDING AFFINITY PREDICTED BY RF-SCORE:    0.00 PKD
ROOT
HETATM    1  C   UNL     1      -9.521   5.928  67.196  1.00  0.00    -0.123 C  
HETATM    2  C   UNL     1     -10.502   6.904  67.854  1.00  0.00    -0.212 C  
HETATM    3  N   UNL     1     -10.875   7.929  66.856  1.00  0.00    -0.453 NA 
HETATM    4  H1  UNL     1     -11.528   8.579  67.295  1.00  0.00     0.000 HD 
HETATM    5  H2  UNL     1     -11.242   7.524  65.995  1.00  0.00     0.000 HD 
ENDROOT
BRANCH   2   6
HETATM    6  C   UNL     1      -9.928   7.592  69.130  1.00  0.00    -0.181 C  
HETATM    7  H   UNL     1      -8.568   7.181  70.499  1.00  0.00     0.000 HD 
HETATM    8  O   UNL     1      -8.918   6.762  69.722  1.00  0.00    -0.143 OA 
BRANCH   6   9
HETATM    9  C   UNL     1     -10.991   7.935  70.158  1.00  0.00    -0.235 A  
HETATM   10  C   UNL     1     -11.296   9.270  70.482  1.00  0.00    -0.306 A  
HETATM   11  C   UNL     1     -12.245   9.546  71.461  1.00  0.00    -0.386 A  
HETATM   12  O   UNL     1     -12.561  10.827  71.819  1.00  0.00    -0.376 OA 
HETATM   13  C   UNL     1     -12.899   8.509  72.119  1.00  0.00    -0.369 A  
HETATM   14  H   UNL     1     -13.209  11.016  72.487  1.00  0.00     0.000 HD 
HETATM   15  C   UNL     1     -12.621   7.187  71.812  1.00  0.00    -0.381 A  
HETATM   16  O   UNL     1     -13.822   8.791  73.086  1.00  0.00    -1.042 OA 
HETATM   17  H   UNL     1     -14.268   8.083  73.535  1.00  0.00     0.000 HD 
HETATM   18  C   UNL     1     -11.665   6.900  70.833  1.00  0.00    -0.408 A  
ENDBRANCH   6   9
ENDBRANCH   2   6
TORSDOF 2
ENDMDL
MODEL       89
REMARK 921   NORMALIZED FREE ENERGY PREDICTED BY IDOCK:   -4.11 KCAL/MOL
REMARK 922        TOTAL FREE ENERGY PREDICTED BY IDOCK:   -4.80 KCAL/MOL
REMARK 923 INTER-LIGAND FREE ENERGY PREDICTED BY IDOCK:   -4.61 KCAL/MOL
REMARK 924 INTRA-LIGAND FREE ENERGY PREDICTED BY IDOCK:   -0.19 KCAL/MOL
REMARK 927      BINDING AFFINITY PREDICTED BY RF-SCORE:    0.00 PKD
ROOT
HETATM    1  C   UNL     1     -13.270  12.324  63.594  1.00  0.00     0.100 C  
HETATM    2  C   UNL     1     -11.748  12.472  63.686  1.00  0.00    -0.515 C  
HETATM    3  N   UNL     1     -11.127  11.266  63.098  1.00  0.00    -0.846 NA 
HETATM    4  H1  UNL     1     -10.114  11.365  63.159  1.00  0.00     0.000 HD 
HETATM    5  H2  UNL     1     -11.448  11.084  62.146  1.00  0.00     0.000 HD 
ENDROOT
BRANCH   2   6
HETATM    6  C   UNL     1     -11.233  12.674  65.144  1.00  0.00    -0.301 C  
HETATM    7  H   UNL     1     -11.988  12.577  66.964  1.00  0.00     0.000 HD 
HETATM    8  O   UNL     1     -12.302  12.454  66.076  1.00  0.00    -0.627 OA 
BRANCH   6   9
HETATM    9  C   UNL     1     -10.608  14.037  65.377  1.00  0.00    -0.351 A  
HETATM   10  C   UNL     1      -9.400  14.181  66.085  1.00  0.00    -0.166 A  
HETATM   11  C   UNL     1      -8.880  15.450  66.319  1.00  0.00    -0.267 A  
HETATM   12  O   UNL     1      -7.718  15.636  67.016  1.00  0.00    -0.205 OA 
HETATM   13  C   UNL     1      -9.544  16.579  65.852  1.00  0.00    -0.248 A  
HETATM   14  H   UNL     1      -7.363  16.502  67.176  1.00  0.00     0.000 HD 
HETATM   15  C   UNL     1     -10.730  16.463  65.145  1.00  0.00    -0.309 A  
HETATM   16  O   UNL     1      -9.029  17.821  66.094  1.00  0.00    -0.455 OA 
HETATM   17  H   UNL     1      -9.482  18.592  65.775  1.00  0.00     0.000 HD 
HETATM   18  C   UNL     1     -11.264  15.192  64.911  1.00  0.00    -0.424 A  
ENDBRANCH   6   9
ENDBRANCH   2   6
TORSDOF 2
ENDMDL
MODEL       90
REMARK 921   NORMALIZED FREE ENERGY PREDICTED BY IDOCK:   -4.10 KCAL/MOL
REMARK 922        TOTAL FREE ENERGY PREDICTED BY IDOCK:   -4.79 KCAL/MOL
REMARK 923 INTER-LIGAND FREE ENERGY PREDICTED BY IDOCK:   -4.83 KCAL/MOL
REMARK 924 INTRA-LIGAND FREE ENERGY PREDICTED BY IDOCK:    0.04 KCAL/MOL
REMARK 927      BINDING AFFINITY PREDICTED BY RF-SCORE:    0.00 PKD
ROOT
HETATM    1  C   UNL     1     -12.055  13.700  70.308  1.00  0.00    -0.427 C  
HETATM    2  C   UNL     1     -11.647  12.916  69.057  1.00  0.00    -0.322 C  
HETATM    3  N   UNL     1     -10.173  12.809  69.037  1.00  0.00    -0.431 NA 
HETATM    4  H1  UNL     1      -9.901  12.287  68.204  1.00  0.00     0.000 HD 
HETATM    5  H2  UNL     1      -9.797  12.404  69.895  1.00  0.00     0.000 HD 
ENDROOT
BRANCH   2   6
HETATM    6  C   UNL     1     -12.148  13.563  67.729  1.00  0.00    -0.280 C  
HETATM    7  H   UNL     1     -12.544  12.960  65.893  1.00  0.00     0.000 HD 
HETATM    8  O   UNL     1     -12.239  12.565  66.701  1.00  0.00    -0.552 OA 
BRANCH   6   9
HETATM    9  C   UNL     1     -11.282  14.719  67.260  1.00  0.00    -0.351 A  
HETATM   10  C   UNL     1     -11.223  15.929  67.976  1.00  0.00    -0.319 A  
HETATM   11  C   UNL     1     -10.454  16.983  67.492  1.00  0.00    -0.334 A  
HETATM   12  O   UNL     1     -10.380  18.182  68.146  1.00  0.00    -0.364 OA 
HETATM   13  C   UNL     1      -9.737  16.846  66.308  1.00  0.00    -0.280 A  
HETATM   14  H   UNL     1      -9.855  18.901  67.816  1.00  0.00     0.000 HD 
HETATM   15  C   UNL     1      -9.774  15.660  65.590  1.00  0.00    -0.348 A  
HETATM   16  O   UNL     1      -8.993  17.890  65.837  1.00  0.00    -0.512 OA 
HETATM   17  H   UNL     1      -8.504  17.796  65.028  1.00  0.00     0.000 HD 
HETATM   18  C   UNL     1     -10.549  14.598  66.065  1.00  0.00    -0.314 A  
ENDBRANCH   6   9
ENDBRANCH   2   6
TORSDOF 2
ENDMDL
MODEL       91
REMARK 921   NORMALIZED FREE ENERGY PREDICTED BY IDOCK:   -4.09 KCAL/MOL
REMARK 922        TOTAL FREE ENERGY PREDICTED BY IDOCK:   -4.78 KCAL/MOL
REMARK 923 INTER-LIGAND FREE ENERGY PREDICTED BY IDOCK:   -4.56 KCAL/MOL
REMARK 924 INTRA-LIGAND FREE ENERGY PREDICTED BY IDOCK:   -0.22 KCAL/MOL
REMARK 927      BINDING AFFINITY PREDICTED BY RF-SCORE:    0.00 PKD
ROOT
HETATM    1  C   UNL     1      -9.583  10.801  69.188  1.00  0.00    -0.169 C  
HETATM    2  C   UNL     1     -11.067  10.560  68.893  1.00  0.00    -0.261 C  
HETATM    3  N   UNL     1     -11.183   9.338  68.069  1.00  0.00    -0.459 NA 
HETATM    4  H1  UNL     1     -12.171   9.178  67.873  1.00  0.00     0.000 HD 
HETATM    5  H2  UNL     1     -10.732   8.531  68.499  1.00  0.00     0.000 HD 
ENDROOT
BRANCH   2   6
HETATM    6  C   UNL     1     -11.756  11.755  68.166  1.00  0.00    -0.307 C  
HETATM    7  H   UNL     1     -11.495  12.765  66.492  1.00  0.00     0.000 HD 
HETATM    8  O   UNL     1     -11.076  12.038  66.934  1.00  0.00    -0.268 OA 
BRANCH   6   9
HETATM    9  C   UNL     1     -11.837  13.010  69.017  1.00  0.00    -0.362 A  
HETATM   10  C   UNL     1     -11.490  14.272  68.500  1.00  0.00    -0.329 A  
HETATM   11  C   UNL     1     -11.534  15.393  69.322  1.00  0.00    -0.333 A  
HETATM   12  O   UNL     1     -11.190  16.635  68.865  1.00  0.00    -0.295 OA 
HETATM   13  C   UNL     1     -11.925  15.277  70.652  1.00  0.00    -0.343 A  
HETATM   14  H   UNL     1     -11.220  17.402  69.426  1.00  0.00     0.000 HD 
HETATM   15  C   UNL     1     -12.279  14.046  71.181  1.00  0.00    -0.417 A  
HETATM   16  O   UNL     1     -11.956  16.383  71.452  1.00  0.00    -0.638 OA 
HETATM   17  H   UNL     1     -12.222  16.303  72.360  1.00  0.00     0.000 HD 
HETATM   18  C   UNL     1     -12.232  12.912  70.365  1.00  0.00    -0.381 A  
ENDBRANCH   6   9
ENDBRANCH   2   6
TORSDOF 2
ENDMDL
MODEL       92
REMARK 921   NORMALIZED FREE ENERGY PREDICTED BY IDOCK:   -4.09 KCAL/MOL
REMARK 922        TOTAL FREE ENERGY PREDICTED BY IDOCK:   -4.78 KCAL/MOL
REMARK 923 INTER-LIGAND FREE ENERGY PREDICTED BY IDOCK:   -4.61 KCAL/MOL
REMARK 924 INTRA-LIGAND FREE ENERGY PREDICTED BY IDOCK:   -0.17 KCAL/MOL
REMARK 927      BINDING AFFINITY PREDICTED BY RF-SCORE:    0.00 PKD
ROOT
HETATM    1  C   UNL     1     -10.251  11.868  67.516  1.00  0.00    -0.212 C  
HETATM    2  C   UNL     1     -11.223  13.051  67.457  1.00  0.00    -0.284 C  
HETATM    3  N   UNL     1     -11.416  13.423  66.039  1.00  0.00    -0.318 NA 
HETATM    4  H1  UNL     1     -12.063  14.211  66.000  1.00  0.00     0.000 HD 
HETATM    5  H2  UNL     1     -11.719  12.636  65.465  1.00  0.00     0.000 HD 
ENDROOT
BRANCH   2   6
HETATM    6  C   UNL     1     -10.738  14.292  68.268  1.00  0.00    -0.247 C  
HETATM    7  H   UNL     1      -9.024  14.972  68.970  1.00  0.00     0.000 HD 
HETATM    8  O   UNL     1      -9.320  14.217  68.476  1.00  0.00    -0.202 OA 
BRANCH   6   9
HETATM    9  C   UNL     1     -11.453  14.459  69.596  1.00  0.00    -0.331 A  
HETATM   10  C   UNL     1     -11.405  15.672  70.308  1.00  0.00    -0.357 A  
HETATM   11  C   UNL     1     -12.035  15.775  71.545  1.00  0.00    -0.440 A  
HETATM   12  O   UNL     1     -12.000  16.928  72.278  1.00  0.00    -0.467 OA 
HETATM   13  C   UNL     1     -12.718  14.687  72.079  1.00  0.00    -0.334 A  
HETATM   14  H   UNL     1     -12.431  16.999  73.122  1.00  0.00     0.000 HD 
HETATM   15  C   UNL     1     -12.786  13.485  71.392  1.00  0.00    -0.440 A  
HETATM   16  O   UNL     1     -13.326  14.796  73.297  1.00  0.00    -0.564 OA 
HETATM   17  H   UNL     1     -13.792  14.054  73.662  1.00  0.00     0.000 HD 
HETATM   18  C   UNL     1     -12.151  13.371  70.152  1.00  0.00    -0.415 A  
ENDBRANCH   6   9
ENDBRANCH   2   6
TORSDOF 2
ENDMDL
MODEL       93
REMARK 921   NORMALIZED FREE ENERGY PREDICTED BY IDOCK:   -4.08 KCAL/MOL
REMARK 922        TOTAL FREE ENERGY PREDICTED BY IDOCK:   -4.76 KCAL/MOL
REMARK 923 INTER-LIGAND FREE ENERGY PREDICTED BY IDOCK:   -4.60 KCAL/MOL
REMARK 924 INTRA-LIGAND FREE ENERGY PREDICTED BY IDOCK:   -0.17 KCAL/MOL
REMARK 927      BINDING AFFINITY PREDICTED BY RF-SCORE:    0.00 PKD
ROOT
HETATM    1  C   UNL     1      -8.701  15.772  67.325  1.00  0.00    -0.210 C  
HETATM    2  C   UNL     1      -9.196  15.433  68.735  1.00  0.00    -0.206 C  
HETATM    3  N   UNL     1      -8.083  14.809  69.480  1.00  0.00    -0.403 NA 
HETATM    4  H1  UNL     1      -8.412  14.583  70.418  1.00  0.00     0.000 HD 
HETATM    5  H2  UNL     1      -7.242  15.386  69.487  1.00  0.00     0.000 HD 
ENDROOT
BRANCH   2   6
HETATM    6  C   UNL     1     -10.436  14.486  68.745  1.00  0.00    -0.246 C  
HETATM    7  H   UNL     1     -12.014  14.170  67.606  1.00  0.00     0.000 HD 
HETATM    8  O   UNL     1     -11.260  14.747  67.599  1.00  0.00    -0.298 OA 
BRANCH   6   9
HETATM    9  C   UNL     1     -11.259  14.589  70.016  1.00  0.00    -0.228 A  
HETATM   10  C   UNL     1     -11.224  15.742  70.822  1.00  0.00    -0.404 A  
HETATM   11  C   UNL     1     -11.958  15.784  72.004  1.00  0.00    -0.479 A  
HETATM   12  O   UNL     1     -11.940  16.876  72.825  1.00  0.00    -0.408 OA 
HETATM   13  C   UNL     1     -12.732  14.694  72.390  1.00  0.00    -0.347 A  
HETATM   14  H   UNL     1     -12.441  16.905  73.632  1.00  0.00     0.000 HD 
HETATM   15  C   UNL     1     -12.789  13.552  71.608  1.00  0.00    -0.419 A  
HETATM   16  O   UNL     1     -13.441  14.742  73.556  1.00  0.00    -0.531 OA 
HETATM   17  H   UNL     1     -13.970  13.998  73.820  1.00  0.00     0.000 HD 
HETATM   18  C   UNL     1     -12.050  13.498  70.423  1.00  0.00    -0.415 A  
ENDBRANCH   6   9
ENDBRANCH   2   6
TORSDOF 2
ENDMDL
MODEL       94
REMARK 921   NORMALIZED FREE ENERGY PREDICTED BY IDOCK:   -4.05 KCAL/MOL
REMARK 922        TOTAL FREE ENERGY PREDICTED BY IDOCK:   -4.73 KCAL/MOL
REMARK 923 INTER-LIGAND FREE ENERGY PREDICTED BY IDOCK:   -4.73 KCAL/MOL
REMARK 924 INTRA-LIGAND FREE ENERGY PREDICTED BY IDOCK:   -0.00 KCAL/MOL
REMARK 927      BINDING AFFINITY PREDICTED BY RF-SCORE:    0.00 PKD
ROOT
HETATM    1  C   UNL     1     -12.014  14.789  64.314  1.00  0.00    -0.387 C  
HETATM    2  C   UNL     1     -12.027  13.467  65.089  1.00  0.00    -0.368 C  
HETATM    3  N   UNL     1     -13.230  12.707  64.687  1.00  0.00    -0.775 NA 
HETATM    4  H1  UNL     1     -13.238  11.827  65.203  1.00  0.00     0.000 HD 
HETATM    5  H2  UNL     1     -13.290  12.571  63.678  1.00  0.00     0.000 HD 
ENDROOT
BRANCH   2   6
HETATM    6  C   UNL     1     -12.014  13.657  66.636  1.00  0.00    -0.415 C  
HETATM    7  H   UNL     1     -11.168  14.884  67.929  1.00  0.00     0.000 HD 
HETATM    8  O   UNL     1     -11.176  14.769  66.986  1.00  0.00    -0.328 OA 
BRANCH   6   9
HETATM    9  C   UNL     1     -11.575  12.415  67.390  1.00  0.00    -0.433 A  
HETATM   10  C   UNL     1     -11.125  11.266  66.713  1.00  0.00    -0.314 A  
HETATM   11  C   UNL     1     -10.773  10.129  67.435  1.00  0.00    -0.277 A  
HETATM   12  O   UNL     1     -10.347   8.986  66.817  1.00  0.00    -0.261 OA 
HETATM   13  C   UNL     1     -10.857  10.123  68.823  1.00  0.00    -0.225 A  
HETATM   14  H   UNL     1     -10.106   8.210  67.309  1.00  0.00     0.000 HD 
HETATM   15  C   UNL     1     -11.290  11.246  69.512  1.00  0.00    -0.362 A  
HETATM   16  O   UNL     1     -10.518   9.000  69.521  1.00  0.00    -0.211 OA 
HETATM   17  H   UNL     1     -10.576   8.996  70.469  1.00  0.00     0.000 HD 
HETATM   18  C   UNL     1     -11.651  12.390  68.795  1.00  0.00    -0.373 A  
ENDBRANCH   6   9
ENDBRANCH   2   6
TORSDOF 2
ENDMDL
MODEL       95
REMARK 921   NORMALIZED FREE ENERGY PREDICTED BY IDOCK:   -4.04 KCAL/MOL
REMARK 922        TOTAL FREE ENERGY PREDICTED BY IDOCK:   -4.72 KCAL/MOL
REMARK 923 INTER-LIGAND FREE ENERGY PREDICTED BY IDOCK:   -4.54 KCAL/MOL
REMARK 924 INTRA-LIGAND FREE ENERGY PREDICTED BY IDOCK:   -0.18 KCAL/MOL
REMARK 927      BINDING AFFINITY PREDICTED BY RF-SCORE:    0.00 PKD
ROOT
HETATM    1  C   UNL     1     -11.404   6.319  69.646  1.00  0.00    -0.492 C  
HETATM    2  C   UNL     1     -10.878   7.676  70.124  1.00  0.00    -0.248 C  
HETATM    3  N   UNL     1      -9.472   7.507  70.545  1.00  0.00    -0.165 NA 
HETATM    4  H1  UNL     1      -9.122   8.410  70.863  1.00  0.00     0.000 HD 
HETATM    5  H2  UNL     1      -8.890   7.094  69.816  1.00  0.00     0.000 HD 
ENDROOT
BRANCH   2   6
HETATM    6  C   UNL     1     -11.711   8.286  71.293  1.00  0.00    -0.283 C  
HETATM    7  H   UNL     1     -13.447   7.934  72.159  1.00  0.00     0.000 HD 
HETATM    8  O   UNL     1     -12.941   7.563  71.448  1.00  0.00    -0.351 OA 
BRANCH   6   9
HETATM    9  C   UNL     1     -11.994   9.767  71.119  1.00  0.00    -0.463 A  
HETATM   10  C   UNL     1     -11.287  10.546  70.184  1.00  0.00    -0.400 A  
HETATM   11  C   UNL     1     -11.542  11.910  70.084  1.00  0.00    -0.167 A  
HETATM   12  O   UNL     1     -10.867  12.706  69.201  1.00  0.00    -0.389 OA 
HETATM   13  C   UNL     1     -12.496  12.509  70.899  1.00  0.00    -0.269 A  
HETATM   14  H   UNL     1     -11.041  13.638  69.132  1.00  0.00     0.000 HD 
HETATM   15  C   UNL     1     -13.211  11.762  71.821  1.00  0.00    -0.434 A  
HETATM   16  O   UNL     1     -12.732  13.851  70.798  1.00  0.00    -0.329 OA 
HETATM   17  H   UNL     1     -13.384  14.260  71.355  1.00  0.00     0.000 HD 
HETATM   18  C   UNL     1     -12.958  10.392  71.933  1.00  0.00    -0.555 A  
ENDBRANCH   6   9
ENDBRANCH   2   6
TORSDOF 2
ENDMDL
MODEL       96
REMARK 921   NORMALIZED FREE ENERGY PREDICTED BY IDOCK:   -4.04 KCAL/MOL
REMARK 922        TOTAL FREE ENERGY PREDICTED BY IDOCK:   -4.72 KCAL/MOL
REMARK 923 INTER-LIGAND FREE ENERGY PREDICTED BY IDOCK:   -4.50 KCAL/MOL
REMARK 924 INTRA-LIGAND FREE ENERGY PREDICTED BY IDOCK:   -0.22 KCAL/MOL
REMARK 927      BINDING AFFINITY PREDICTED BY RF-SCORE:    0.00 PKD
ROOT
HETATM    1  C   UNL     1     -12.014  13.719  64.083  1.00  0.00    -0.473 C  
HETATM    2  C   UNL     1     -10.887  13.345  65.051  1.00  0.00    -0.328 C  
HETATM    3  N   UNL     1      -9.870  14.417  65.015  1.00  0.00    -0.519 NA 
HETATM    4  H1  UNL     1      -9.120  14.168  65.660  1.00  0.00     0.000 HD 
HETATM    5  H2  UNL     1     -10.263  15.339  65.207  1.00  0.00     0.000 HD 
ENDROOT
BRANCH   2   6
HETATM    6  C   UNL     1     -10.221  11.973  64.725  1.00  0.00    -0.279 C  
HETATM    7  H   UNL     1     -10.340  10.619  63.296  1.00  0.00     0.000 HD 
HETATM    8  O   UNL     1     -10.746  11.454  63.495  1.00  0.00    -0.380 OA 
BRANCH   6   9
HETATM    9  C   UNL     1     -10.380  10.950  65.834  1.00  0.00    -0.310 A  
HETATM   10  C   UNL     1     -10.034   9.599  65.643  1.00  0.00    -0.321 A  
HETATM   11  C   UNL     1     -10.235   8.679  66.667  1.00  0.00    -0.273 A  
HETATM   12  O   UNL     1      -9.928   7.355  66.518  1.00  0.00    -0.365 OA 
HETATM   13  C   UNL     1     -10.772   9.088  67.883  1.00  0.00    -0.138 A  
HETATM   14  H   UNL     1     -10.066   6.727  67.217  1.00  0.00     0.000 HD 
HETATM   15  C   UNL     1     -11.113  10.414  68.099  1.00  0.00    -0.344 A  
HETATM   16  O   UNL     1     -10.974   8.175  68.879  1.00  0.00    -0.428 OA 
HETATM   17  H   UNL     1     -11.341   8.454  69.710  1.00  0.00     0.000 HD 
HETATM   18  C   UNL     1     -10.920  11.343  67.073  1.00  0.00    -0.347 A  
ENDBRANCH   6   9
ENDBRANCH   2   6
TORSDOF 2
ENDMDL
MODEL       97
REMARK 921   NORMALIZED FREE ENERGY PREDICTED BY IDOCK:   -4.02 KCAL/MOL
REMARK 922        TOTAL FREE ENERGY PREDICTED BY IDOCK:   -4.70 KCAL/MOL
REMARK 923 INTER-LIGAND FREE ENERGY PREDICTED BY IDOCK:   -4.50 KCAL/MOL
REMARK 924 INTRA-LIGAND FREE ENERGY PREDICTED BY IDOCK:   -0.21 KCAL/MOL
REMARK 927      BINDING AFFINITY PREDICTED BY RF-SCORE:    0.00 PKD
ROOT
HETATM    1  C   UNL     1      -8.991   6.042  66.092  1.00  0.00    -0.160 C  
HETATM    2  C   UNL     1     -10.266   5.481  66.732  1.00  0.00    -0.233 C  
HETATM    3  N   UNL     1     -11.182   5.063  65.650  1.00  0.00    -0.868 NA 
HETATM    4  H1  UNL     1     -12.031   4.690  66.077  1.00  0.00     0.000 HD 
HETATM    5  H2  UNL     1     -10.749   4.408  65.000  1.00  0.00     0.000 HD 
ENDROOT
BRANCH   2   6
HETATM    6  C   UNL     1     -10.985   6.498  67.671  1.00  0.00    -0.337 C  
HETATM    7  H   UNL     1     -10.870   8.428  68.060  1.00  0.00     0.000 HD 
HETATM    8  O   UNL     1     -10.432   7.809  67.489  1.00  0.00    -0.240 OA 
BRANCH   6   9
HETATM    9  C   UNL     1     -10.927   6.106  69.137  1.00  0.00    -0.450 A  
HETATM   10  C   UNL     1     -11.760   6.716  70.093  1.00  0.00    -0.412 A  
HETATM   11  C   UNL     1     -11.649   6.364  71.435  1.00  0.00    -0.311 A  
HETATM   12  O   UNL     1     -12.426   6.943  72.399  1.00  0.00    -0.509 OA 
HETATM   13  C   UNL     1     -10.722   5.407  71.836  1.00  0.00    -0.211 A  
HETATM   14  H   UNL     1     -12.350   6.703  73.315  1.00  0.00     0.000 HD 
HETATM   15  C   UNL     1      -9.897   4.787  70.912  1.00  0.00    -0.279 A  
HETATM   16  O   UNL     1     -10.615   5.076  73.157  1.00  0.00    -0.187 OA 
HETATM   17  H   UNL     1      -9.982   4.423  73.431  1.00  0.00     0.000 HD 
HETATM   18  C   UNL     1      -9.998   5.139  69.563  1.00  0.00    -0.301 A  
ENDBRANCH   6   9
ENDBRANCH   2   6
TORSDOF 2
ENDMDL
MODEL       98
REMARK 921   NORMALIZED FREE ENERGY PREDICTED BY IDOCK:   -4.02 KCAL/MOL
REMARK 922        TOTAL FREE ENERGY PREDICTED BY IDOCK:   -4.70 KCAL/MOL
REMARK 923 INTER-LIGAND FREE ENERGY PREDICTED BY IDOCK:   -4.48 KCAL/MOL
REMARK 924 INTRA-LIGAND FREE ENERGY PREDICTED BY IDOCK:   -0.22 KCAL/MOL
REMARK 927      BINDING AFFINITY PREDICTED BY RF-SCORE:    0.00 PKD
ROOT
HETATM    1  C   UNL     1     -14.174   8.445  71.789  1.00  0.00    -0.536 C  
HETATM    2  C   UNL     1     -12.682   8.745  71.606  1.00  0.00    -0.348 C  
HETATM    3  N   UNL     1     -11.927   7.973  72.615  1.00  0.00    -0.578 NA 
HETATM    4  H1  UNL     1     -10.934   8.173  72.493  1.00  0.00     0.000 HD 
HETATM    5  H2  UNL     1     -12.134   6.975  72.581  1.00  0.00     0.000 HD 
ENDROOT
BRANCH   2   6
HETATM    6  C   UNL     1     -12.336  10.260  71.732  1.00  0.00    -0.268 C  
HETATM    7  H   UNL     1     -13.227  11.889  72.399  1.00  0.00     0.000 HD 
HETATM    8  O   UNL     1     -13.437  10.967  72.322  1.00  0.00    -0.324 OA 
BRANCH   6   9
HETATM    9  C   UNL     1     -11.954  10.901  70.410  1.00  0.00    -0.453 A  
HETATM   10  C   UNL     1     -11.426  10.139  69.351  1.00  0.00    -0.202 A  
HETATM   11  C   UNL     1     -11.044  10.766  68.169  1.00  0.00    -0.280 A  
HETATM   12  O   UNL     1     -10.512  10.068  67.121  1.00  0.00    -0.227 OA 
HETATM   13  C   UNL     1     -11.186  12.143  68.025  1.00  0.00    -0.264 A  
HETATM   14  H   UNL     1     -10.251  10.496  66.314  1.00  0.00     0.000 HD 
HETATM   15  C   UNL     1     -11.711  12.912  69.051  1.00  0.00    -0.375 A  
HETATM   16  O   UNL     1     -10.800  12.750  66.864  1.00  0.00    -0.247 OA 
HETATM   17  H   UNL     1     -10.897  13.689  66.766  1.00  0.00     0.000 HD 
HETATM   18  C   UNL     1     -12.092  12.292  70.244  1.00  0.00    -0.376 A  
ENDBRANCH   6   9
ENDBRANCH   2   6
TORSDOF 2
ENDMDL
MODEL       99
REMARK 921   NORMALIZED FREE ENERGY PREDICTED BY IDOCK:   -3.97 KCAL/MOL
REMARK 922        TOTAL FREE ENERGY PREDICTED BY IDOCK:   -4.64 KCAL/MOL
REMARK 923 INTER-LIGAND FREE ENERGY PREDICTED BY IDOCK:   -4.50 KCAL/MOL
REMARK 924 INTRA-LIGAND FREE ENERGY PREDICTED BY IDOCK:   -0.14 KCAL/MOL
REMARK 927      BINDING AFFINITY PREDICTED BY RF-SCORE:    0.00 PKD
ROOT
HETATM    1  C   UNL     1     -10.819  12.660  68.044  1.00  0.00    -0.249 C  
HETATM    2  C   UNL     1     -11.036  14.161  68.266  1.00  0.00    -0.251 C  
HETATM    3  N   UNL     1     -12.373  14.352  68.866  1.00  0.00    -0.576 NA 
HETATM    4  H1  UNL     1     -12.517  15.351  69.014  1.00  0.00     0.000 HD 
HETATM    5  H2  UNL     1     -12.503  13.806  69.718  1.00  0.00     0.000 HD 
ENDROOT
BRANCH   2   6
HETATM    6  C   UNL     1     -10.917  15.004  66.960  1.00  0.00    -0.318 C  
HETATM    7  H   UNL     1     -10.198  14.745  65.141  1.00  0.00     0.000 HD 
HETATM    8  O   UNL     1     -10.270  14.232  65.936  1.00  0.00    -0.298 OA 
BRANCH   6   9
HETATM    9  C   UNL     1     -10.190  16.321  67.159  1.00  0.00    -0.276 A  
HETATM   10  C   UNL     1     -10.651  17.283  68.076  1.00  0.00    -0.394 A  
HETATM   11  C   UNL     1      -9.985  18.498  68.200  1.00  0.00    -0.361 A  
HETATM   12  O   UNL     1     -10.408  19.467  69.067  1.00  0.00    -0.587 OA 
HETATM   13  C   UNL     1      -8.861  18.767  67.426  1.00  0.00    -0.270 A  
HETATM   14  H   UNL     1      -9.953  20.297  69.152  1.00  0.00     0.000 HD 
HETATM   15  C   UNL     1      -8.383  17.831  66.522  1.00  0.00    -0.294 A  
HETATM   16  O   UNL     1      -8.220  19.966  67.549  1.00  0.00    -0.302 OA 
HETATM   17  H   UNL     1      -7.452  20.149  67.021  1.00  0.00     0.000 HD 
HETATM   18  C   UNL     1      -9.049  16.610  66.386  1.00  0.00    -0.325 A  
ENDBRANCH   6   9
ENDBRANCH   2   6
TORSDOF 2
ENDMDL
MODEL      100
REMARK 921   NORMALIZED FREE ENERGY PREDICTED BY IDOCK:   -3.96 KCAL/MOL
REMARK 922        TOTAL FREE ENERGY PREDICTED BY IDOCK:   -4.64 KCAL/MOL
REMARK 923 INTER-LIGAND FREE ENERGY PREDICTED BY IDOCK:   -4.67 KCAL/MOL
REMARK 924 INTRA-LIGAND FREE ENERGY PREDICTED BY IDOCK:    0.03 KCAL/MOL
REMARK 927      BINDING AFFINITY PREDICTED BY RF-SCORE:    0.00 PKD
ROOT
HETATM    1  C   UNL     1      -9.665  20.183  66.297  1.00  0.00    -0.515 C  
HETATM    2  C   UNL     1     -10.304  19.041  67.095  1.00  0.00    -0.416 C  
HETATM    3  N   UNL     1     -10.524  19.510  68.479  1.00  0.00    -0.493 NA 
HETATM    4  H1  UNL     1     -10.949  18.750  69.010  1.00  0.00     0.000 HD 
HETATM    5  H2  UNL     1     -11.068  20.371  68.521  1.00  0.00     0.000 HD 
ENDROOT
BRANCH   2   6
HETATM    6  C   UNL     1      -9.446  17.739  67.107  1.00  0.00    -0.265 C  
HETATM    7  H   UNL     1      -8.727  16.477  65.772  1.00  0.00     0.000 HD 
HETATM    8  O   UNL     1      -9.249  17.270  65.765  1.00  0.00    -0.517 OA 
BRANCH   6   9
HETATM    9  C   UNL     1     -10.041  16.636  67.964  1.00  0.00    -0.262 A  
HETATM   10  C   UNL     1     -10.982  15.728  67.443  1.00  0.00    -0.279 A  
HETATM   11  C   UNL     1     -11.540  14.758  68.269  1.00  0.00    -0.323 A  
HETATM   12  O   UNL     1     -12.469  13.867  67.810  1.00  0.00    -0.445 OA 
HETATM   13  C   UNL     1     -11.168  14.675  69.607  1.00  0.00    -0.272 A  
HETATM   14  H   UNL     1     -12.850  13.204  68.374  1.00  0.00     0.000 HD 
HETATM   15  C   UNL     1     -10.238  15.553  70.141  1.00  0.00    -0.230 A  
HETATM   16  O   UNL     1     -11.729  13.724  70.412  1.00  0.00    -0.457 OA 
HETATM   17  H   UNL     1     -11.475  13.668  71.326  1.00  0.00     0.000 HD 
HETATM   18  C   UNL     1      -9.677  16.535  69.320  1.00  0.00    -0.193 A  
ENDBRANCH   6   9
ENDBRANCH   2   6
TORSDOF 2
ENDMDL
MODEL      101
REMARK 921   NORMALIZED FREE ENERGY PREDICTED BY IDOCK:   -3.96 KCAL/MOL
REMARK 922        TOTAL FREE ENERGY PREDICTED BY IDOCK:   -4.63 KCAL/MOL
REMARK 923 INTER-LIGAND FREE ENERGY PREDICTED BY IDOCK:   -4.54 KCAL/MOL
REMARK 924 INTRA-LIGAND FREE ENERGY PREDICTED BY IDOCK:   -0.09 KCAL/MOL
REMARK 927      BINDING AFFINITY PREDICTED BY RF-SCORE:    0.00 PKD
ROOT
HETATM    1  C   UNL     1      -8.499  15.005  69.309  1.00  0.00    -0.167 C  
HETATM    2  C   UNL     1      -9.526  14.417  68.336  1.00  0.00    -0.207 C  
HETATM    3  N   UNL     1      -9.857  13.047  68.782  1.00  0.00    -0.421 NA 
HETATM    4  H1  UNL     1     -10.540  12.656  68.134  1.00  0.00     0.000 HD 
HETATM    5  H2  UNL     1     -10.171  13.015  69.752  1.00  0.00     0.000 HD 
ENDROOT
BRANCH   2   6
HETATM    6  C   UNL     1      -9.031  14.386  66.857  1.00  0.00    -0.243 C  
HETATM    7  H   UNL     1      -8.526  15.707  65.481  1.00  0.00     0.000 HD 
HETATM    8  O   UNL     1      -8.827  15.725  66.381  1.00  0.00    -0.282 OA 
BRANCH   6   9
HETATM    9  C   UNL     1      -9.967  13.638  65.926  1.00  0.00    -0.304 A  
HETATM   10  C   UNL     1      -9.688  12.324  65.505  1.00  0.00    -0.174 A  
HETATM   11  C   UNL     1     -10.545  11.684  64.615  1.00  0.00    -0.312 A  
HETATM   12  O   UNL     1     -10.304  10.415  64.168  1.00  0.00    -0.395 OA 
HETATM   13  C   UNL     1     -11.680  12.334  64.142  1.00  0.00    -0.402 A  
HETATM   14  H   UNL     1     -10.889   9.978  63.560  1.00  0.00     0.000 HD 
HETATM   15  C   UNL     1     -11.980  13.624  64.548  1.00  0.00    -0.454 A  
HETATM   16  O   UNL     1     -12.510  11.700  63.262  1.00  0.00    -0.854 OA 
HETATM   17  H   UNL     1     -13.286  12.144  62.939  1.00  0.00     0.000 HD 
HETATM   18  C   UNL     1     -11.122  14.277  65.437  1.00  0.00    -0.327 A  
ENDBRANCH   6   9
ENDBRANCH   2   6
TORSDOF 2
ENDMDL
MODEL      102
REMARK 921   NORMALIZED FREE ENERGY PREDICTED BY IDOCK:   -3.95 KCAL/MOL
REMARK 922        TOTAL FREE ENERGY PREDICTED BY IDOCK:   -4.63 KCAL/MOL
REMARK 923 INTER-LIGAND FREE ENERGY PREDICTED BY IDOCK:   -4.57 KCAL/MOL
REMARK 924 INTRA-LIGAND FREE ENERGY PREDICTED BY IDOCK:   -0.06 KCAL/MOL
REMARK 927      BINDING AFFINITY PREDICTED BY RF-SCORE:    0.00 PKD
ROOT
HETATM    1  C   UNL     1     -12.024  14.902  69.039  1.00  0.00    -0.307 C  
HETATM    2  C   UNL     1     -10.853  15.856  68.779  1.00  0.00    -0.284 C  
HETATM    3  N   UNL     1     -10.825  16.862  69.862  1.00  0.00    -0.348 NA 
HETATM    4  H1  UNL     1     -10.045  17.496  69.689  1.00  0.00     0.000 HD 
HETATM    5  H2  UNL     1     -10.789  16.439  70.790  1.00  0.00     0.000 HD 
ENDROOT
BRANCH   2   6
HETATM    6  C   UNL     1     -10.932  16.571  67.395  1.00  0.00    -0.121 C  
HETATM    7  H   UNL     1     -10.598  16.097  65.510  1.00  0.00     0.000 HD 
HETATM    8  O   UNL     1     -10.550  15.662  66.352  1.00  0.00    -0.301 OA 
BRANCH   6   9
HETATM    9  C   UNL     1     -10.092  17.833  67.322  1.00  0.00    -0.337 A  
HETATM   10  C   UNL     1      -8.687  17.785  67.388  1.00  0.00    -0.235 A  
HETATM   11  C   UNL     1      -7.951  18.965  67.363  1.00  0.00    -0.246 A  
HETATM   12  O   UNL     1      -6.586  18.966  67.441  1.00  0.00    -0.193 OA 
HETATM   13  C   UNL     1      -8.596  20.194  67.268  1.00  0.00    -0.343 A  
HETATM   14  H   UNL     1      -6.084  19.771  67.424  1.00  0.00     0.000 HD 
HETATM   15  C   UNL     1      -9.978  20.266  67.193  1.00  0.00    -0.593 A  
HETATM   16  O   UNL     1      -7.864  21.347  67.253  1.00  0.00    -0.703 OA 
HETATM   17  H   UNL     1      -8.305  22.186  67.188  1.00  0.00     0.000 HD 
HETATM   18  C   UNL     1     -10.726  19.086  67.224  1.00  0.00    -0.556 A  
ENDBRANCH   6   9
ENDBRANCH   2   6
TORSDOF 2
ENDMDL
MODEL      103
REMARK 921   NORMALIZED FREE ENERGY PREDICTED BY IDOCK:   -3.95 KCAL/MOL
REMARK 922        TOTAL FREE ENERGY PREDICTED BY IDOCK:   -4.62 KCAL/MOL
REMARK 923 INTER-LIGAND FREE ENERGY PREDICTED BY IDOCK:   -4.38 KCAL/MOL
REMARK 924 INTRA-LIGAND FREE ENERGY PREDICTED BY IDOCK:   -0.24 KCAL/MOL
REMARK 927      BINDING AFFINITY PREDICTED BY RF-SCORE:    0.00 PKD
ROOT
HETATM    1  C   UNL     1      -7.798  16.866  67.829  1.00  0.00    -0.188 C  
HETATM    2  C   UNL     1      -8.720  17.127  66.635  1.00  0.00    -0.252 C  
HETATM    3  N   UNL     1      -8.402  18.461  66.085  1.00  0.00    -0.476 NA 
HETATM    4  H1  UNL     1      -9.016  18.634  65.289  1.00  0.00     0.000 HD 
HETATM    5  H2  UNL     1      -7.415  18.564  65.849  1.00  0.00     0.000 HD 
ENDROOT
BRANCH   2   6
HETATM    6  C   UNL     1     -10.236  17.051  66.995  1.00  0.00    -0.303 C  
HETATM    7  H   UNL     1     -11.434  17.837  68.350  1.00  0.00     0.000 HD 
HETATM    8  O   UNL     1     -10.512  17.883  68.131  1.00  0.00    -0.374 OA 
BRANCH   6   9
HETATM    9  C   UNL     1     -10.722  15.636  67.253  1.00  0.00    -0.305 A  
HETATM   10  C   UNL     1     -11.102  15.214  68.540  1.00  0.00    -0.281 A  
HETATM   11  C   UNL     1     -11.500  13.897  68.749  1.00  0.00    -0.292 A  
HETATM   12  O   UNL     1     -11.862  13.441  69.986  1.00  0.00    -0.346 OA 
HETATM   13  C   UNL     1     -11.529  12.995  67.691  1.00  0.00    -0.324 A  
HETATM   14  H   UNL     1     -12.134  12.542  70.129  1.00  0.00     0.000 HD 
HETATM   15  C   UNL     1     -11.167  13.390  66.413  1.00  0.00    -0.323 A  
HETATM   16  O   UNL     1     -11.913  11.703  67.908  1.00  0.00    -0.599 OA 
HETATM   17  H   UNL     1     -11.933  11.087  67.186  1.00  0.00     0.000 HD 
HETATM   18  C   UNL     1     -10.760  14.709  66.195  1.00  0.00    -0.314 A  
ENDBRANCH   6   9
ENDBRANCH   2   6
TORSDOF 2
ENDMDL
MODEL      104
REMARK 921   NORMALIZED FREE ENERGY PREDICTED BY IDOCK:   -3.91 KCAL/MOL
REMARK 922        TOTAL FREE ENERGY PREDICTED BY IDOCK:   -4.58 KCAL/MOL
REMARK 923 INTER-LIGAND FREE ENERGY PREDICTED BY IDOCK:   -4.61 KCAL/MOL
REMARK 924 INTRA-LIGAND FREE ENERGY PREDICTED BY IDOCK:    0.03 KCAL/MOL
REMARK 927      BINDING AFFINITY PREDICTED BY RF-SCORE:    0.00 PKD
ROOT
HETATM    1  C   UNL     1     -12.043  15.121  64.233  1.00  0.00    -0.277 C  
HETATM    2  C   UNL     1     -11.821  13.633  64.518  1.00  0.00    -0.412 C  
HETATM    3  N   UNL     1     -12.737  12.854  63.658  1.00  0.00    -0.719 NA 
HETATM    4  H1  UNL     1     -12.588  11.863  63.848  1.00  0.00     0.000 HD 
HETATM    5  H2  UNL     1     -12.638  13.084  62.669  1.00  0.00     0.000 HD 
ENDROOT
BRANCH   2   6
HETATM    6  C   UNL     1     -12.043  13.249  66.013  1.00  0.00    -0.436 C  
HETATM    7  H   UNL     1     -11.661  14.046  67.776  1.00  0.00     0.000 HD 
HETATM    8  O   UNL     1     -11.525  14.280  66.866  1.00  0.00    -0.331 OA 
BRANCH   6   9
HETATM    9  C   UNL     1     -11.436  11.908  66.386  1.00  0.00    -0.371 A  
HETATM   10  C   UNL     1     -11.629  11.345  67.661  1.00  0.00    -0.315 A  
HETATM   11  C   UNL     1     -11.020  10.136  67.983  1.00  0.00    -0.270 A  
HETATM   12  O   UNL     1     -11.167   9.560  69.215  1.00  0.00    -0.418 OA 
HETATM   13  C   UNL     1     -10.227   9.477  67.050  1.00  0.00    -0.255 A  
HETATM   14  H   UNL     1     -10.751   8.735  69.435  1.00  0.00     0.000 HD 
HETATM   15  C   UNL     1     -10.029  10.008  65.785  1.00  0.00    -0.346 A  
HETATM   16  O   UNL     1      -9.627   8.295  67.379  1.00  0.00    -0.148 OA 
HETATM   17  H   UNL     1      -9.085   7.845  66.742  1.00  0.00     0.000 HD 
HETATM   18  C   UNL     1     -10.632  11.225  65.454  1.00  0.00    -0.312 A  
ENDBRANCH   6   9
ENDBRANCH   2   6
TORSDOF 2
ENDMDL
MODEL      105
REMARK 921   NORMALIZED FREE ENERGY PREDICTED BY IDOCK:   -3.90 KCAL/MOL
REMARK 922        TOTAL FREE ENERGY PREDICTED BY IDOCK:   -4.57 KCAL/MOL
REMARK 923 INTER-LIGAND FREE ENERGY PREDICTED BY IDOCK:   -4.36 KCAL/MOL
REMARK 924 INTRA-LIGAND FREE ENERGY PREDICTED BY IDOCK:   -0.21 KCAL/MOL
REMARK 927      BINDING AFFINITY PREDICTED BY RF-SCORE:    0.00 PKD
ROOT
HETATM    1  C   UNL     1     -10.862  14.330  65.022  1.00  0.00    -0.414 C  
HETATM    2  C   UNL     1     -10.313  12.907  65.164  1.00  0.00    -0.303 C  
HETATM    3  N   UNL     1      -9.829  12.462  63.841  1.00  0.00    -0.602 NA 
HETATM    4  H1  UNL     1      -9.463  11.515  63.936  1.00  0.00     0.000 HD 
HETATM    5  H2  UNL     1      -9.151  13.106  63.433  1.00  0.00     0.000 HD 
ENDROOT
BRANCH   2   6
HETATM    6  C   UNL     1     -11.361  11.891  65.714  1.00  0.00    -0.299 C  
HETATM    7  H   UNL     1     -13.297  11.884  66.093  1.00  0.00     0.000 HD 
HETATM    8  O   UNL     1     -12.659  12.503  65.759  1.00  0.00    -0.569 OA 
BRANCH   6   9
HETATM    9  C   UNL     1     -10.998  11.333  67.078  1.00  0.00    -0.352 A  
HETATM   10  C   UNL     1     -11.838  11.515  68.192  1.00  0.00    -0.306 A  
HETATM   11  C   UNL     1     -11.453  11.028  69.438  1.00  0.00    -0.294 A  
HETATM   12  O   UNL     1     -12.230  11.197  70.550  1.00  0.00    -0.328 OA 
HETATM   13  C   UNL     1     -10.244  10.357  69.587  1.00  0.00    -0.209 A  
HETATM   14  H   UNL     1     -11.967  10.865  71.400  1.00  0.00     0.000 HD 
HETATM   15  C   UNL     1      -9.404  10.158  68.502  1.00  0.00    -0.151 A  
HETATM   16  O   UNL     1      -9.871   9.891  70.815  1.00  0.00    -0.334 OA 
HETATM   17  H   UNL     1      -9.046   9.432  70.917  1.00  0.00     0.000 HD 
HETATM   18  C   UNL     1      -9.780  10.649  67.249  1.00  0.00    -0.195 A  
ENDBRANCH   6   9
ENDBRANCH   2   6
TORSDOF 2
ENDMDL
MODEL      106
REMARK 921   NORMALIZED FREE ENERGY PREDICTED BY IDOCK:   -3.90 KCAL/MOL
REMARK 922        TOTAL FREE ENERGY PREDICTED BY IDOCK:   -4.57 KCAL/MOL
REMARK 923 INTER-LIGAND FREE ENERGY PREDICTED BY IDOCK:   -4.55 KCAL/MOL
REMARK 924 INTRA-LIGAND FREE ENERGY PREDICTED BY IDOCK:   -0.01 KCAL/MOL
REMARK 927      BINDING AFFINITY PREDICTED BY RF-SCORE:    0.00 PKD
ROOT
HETATM    1  C   UNL     1     -11.368  15.006  67.344  1.00  0.00    -0.338 C  
HETATM    2  C   UNL     1     -10.741  14.207  66.196  1.00  0.00    -0.297 C  
HETATM    3  N   UNL     1     -10.547  15.119  65.049  1.00  0.00    -0.417 NA 
HETATM    4  H1  UNL     1     -10.129  14.587  64.285  1.00  0.00     0.000 HD 
HETATM    5  H2  UNL     1     -10.005  15.947  65.293  1.00  0.00     0.000 HD 
ENDROOT
BRANCH   2   6
HETATM    6  C   UNL     1     -11.596  12.979  65.757  1.00  0.00    -0.356 C  
HETATM    7  H   UNL     1     -12.766  11.653  66.632  1.00  0.00     0.000 HD 
HETATM    8  O   UNL     1     -12.245  12.401  66.899  1.00  0.00    -0.527 OA 
BRANCH   6   9
HETATM    9  C   UNL     1     -10.794  11.921  65.022  1.00  0.00    -0.351 A  
HETATM   10  C   UNL     1     -10.376  10.739  65.662  1.00  0.00    -0.297 A  
HETATM   11  C   UNL     1      -9.604   9.812  64.970  1.00  0.00    -0.264 A  
HETATM   12  O   UNL     1      -9.162   8.659  65.558  1.00  0.00    -0.356 OA 
HETATM   13  C   UNL     1      -9.246  10.042  63.645  1.00  0.00    -0.274 A  
HETATM   14  H   UNL     1      -8.635   8.025  65.085  1.00  0.00     0.000 HD 
HETATM   15  C   UNL     1      -9.653  11.194  62.992  1.00  0.00    -0.389 A  
HETATM   16  O   UNL     1      -8.481   9.129  62.978  1.00  0.00    -0.191 OA 
HETATM   17  H   UNL     1      -8.237   9.287  62.074  1.00  0.00     0.000 HD 
HETATM   18  C   UNL     1     -10.424  12.135  63.681  1.00  0.00    -0.495 A  
ENDBRANCH   6   9
ENDBRANCH   2   6
TORSDOF 2
ENDMDL
MODEL      107
REMARK 921   NORMALIZED FREE ENERGY PREDICTED BY IDOCK:   -3.90 KCAL/MOL
REMARK 922        TOTAL FREE ENERGY PREDICTED BY IDOCK:   -4.56 KCAL/MOL
REMARK 923 INTER-LIGAND FREE ENERGY PREDICTED BY IDOCK:   -4.62 KCAL/MOL
REMARK 924 INTRA-LIGAND FREE ENERGY PREDICTED BY IDOCK:    0.06 KCAL/MOL
REMARK 927      BINDING AFFINITY PREDICTED BY RF-SCORE:    0.00 PKD
ROOT
HETATM    1  C   UNL     1      -9.582   9.446  66.123  1.00  0.00    -0.311 C  
HETATM    2  C   UNL     1      -9.257  10.484  65.044  1.00  0.00    -0.206 C  
HETATM    3  N   UNL     1      -8.272  11.436  65.598  1.00  0.00    -0.364 NA 
HETATM    4  H1  UNL     1      -8.055  12.127  64.879  1.00  0.00     0.000 HD 
HETATM    5  H2  UNL     1      -7.439  10.973  65.962  1.00  0.00     0.000 HD 
ENDROOT
BRANCH   2   6
HETATM    6  C   UNL     1     -10.510  11.257  64.531  1.00  0.00    -0.334 C  
HETATM    7  H   UNL     1     -11.029  12.235  62.898  1.00  0.00     0.000 HD 
HETATM    8  O   UNL     1     -10.266  11.764  63.210  1.00  0.00    -0.412 OA 
BRANCH   6   9
HETATM    9  C   UNL     1     -10.939  12.385  65.452  1.00  0.00    -0.335 A  
HETATM   10  C   UNL     1     -10.767  13.734  65.091  1.00  0.00    -0.365 A  
HETATM   11  C   UNL     1     -11.130  14.741  65.979  1.00  0.00    -0.330 A  
HETATM   12  O   UNL     1     -10.965  16.064  65.676  1.00  0.00    -0.272 OA 
HETATM   13  C   UNL     1     -11.669  14.423  67.222  1.00  0.00    -0.404 A  
HETATM   14  H   UNL     1     -11.214  16.752  66.283  1.00  0.00     0.000 HD 
HETATM   15  C   UNL     1     -11.856  13.102  67.596  1.00  0.00    -0.405 A  
HETATM   16  O   UNL     1     -12.015  15.419  68.090  1.00  0.00    -0.471 OA 
HETATM   17  H   UNL     1     -12.383  15.202  68.938  1.00  0.00     0.000 HD 
HETATM   18  C   UNL     1     -11.488  12.083  66.713  1.00  0.00    -0.410 A  
ENDBRANCH   6   9
ENDBRANCH   2   6
TORSDOF 2
ENDMDL
MODEL      108
REMARK 921   NORMALIZED FREE ENERGY PREDICTED BY IDOCK:   -3.89 KCAL/MOL
REMARK 922        TOTAL FREE ENERGY PREDICTED BY IDOCK:   -4.55 KCAL/MOL
REMARK 923 INTER-LIGAND FREE ENERGY PREDICTED BY IDOCK:   -4.59 KCAL/MOL
REMARK 924 INTRA-LIGAND FREE ENERGY PREDICTED BY IDOCK:    0.05 KCAL/MOL
REMARK 927      BINDING AFFINITY PREDICTED BY RF-SCORE:    0.00 PKD
ROOT
HETATM    1  C   UNL     1      -8.985   8.071  68.265  1.00  0.00    -0.132 C  
HETATM    2  C   UNL     1      -9.760   6.789  68.588  1.00  0.00    -0.131 C  
HETATM    3  N   UNL     1     -11.107   6.898  67.989  1.00  0.00    -0.520 NA 
HETATM    4  H1  UNL     1     -11.622   6.045  68.203  1.00  0.00     0.000 HD 
HETATM    5  H2  UNL     1     -11.077   7.098  66.989  1.00  0.00     0.000 HD 
ENDROOT
BRANCH   2   6
HETATM    6  C   UNL     1      -9.882   6.508  70.117  1.00  0.00    -0.166 C  
HETATM    7  H   UNL     1     -10.247   4.949  71.268  1.00  0.00     0.000 HD 
HETATM    8  O   UNL     1     -10.173   5.120  70.338  1.00  0.00    -0.240 OA 
BRANCH   6   9
HETATM    9  C   UNL     1     -10.920   7.375  70.806  1.00  0.00    -0.272 A  
HETATM   10  C   UNL     1     -12.191   6.873  71.141  1.00  0.00    -0.428 A  
HETATM   11  C   UNL     1     -13.133   7.709  71.732  1.00  0.00    -0.323 A  
HETATM   12  O   UNL     1     -14.385   7.267  72.059  1.00  0.00    -0.571 OA 
HETATM   13  C   UNL     1     -12.824   9.039  71.999  1.00  0.00    -0.401 A  
HETATM   14  H   UNL     1     -15.028   7.838  72.463  1.00  0.00     0.000 HD 
HETATM   15  C   UNL     1     -11.576   9.554  71.685  1.00  0.00    -0.451 A  
HETATM   16  O   UNL     1     -13.760   9.853  72.571  1.00  0.00    -0.649 OA 
HETATM   17  H   UNL     1     -13.549  10.761  72.753  1.00  0.00     0.000 HD 
HETATM   18  C   UNL     1     -10.626   8.723  71.086  1.00  0.00    -0.310 A  
ENDBRANCH   6   9
ENDBRANCH   2   6
TORSDOF 2
ENDMDL
MODEL      109
REMARK 921   NORMALIZED FREE ENERGY PREDICTED BY IDOCK:   -3.86 KCAL/MOL
REMARK 922        TOTAL FREE ENERGY PREDICTED BY IDOCK:   -4.52 KCAL/MOL
REMARK 923 INTER-LIGAND FREE ENERGY PREDICTED BY IDOCK:   -4.61 KCAL/MOL
REMARK 924 INTRA-LIGAND FREE ENERGY PREDICTED BY IDOCK:    0.09 KCAL/MOL
REMARK 927      BINDING AFFINITY PREDICTED BY RF-SCORE:    0.00 PKD
ROOT
HETATM    1  C   UNL     1     -10.063  15.179  65.356  1.00  0.00    -0.384 C  
HETATM    2  C   UNL     1     -10.643  14.701  66.691  1.00  0.00    -0.289 C  
HETATM    3  N   UNL     1      -9.519  14.349  67.585  1.00  0.00    -0.210 NA 
HETATM    4  H1  UNL     1      -9.905  14.030  68.473  1.00  0.00     0.000 HD 
HETATM    5  H2  UNL     1      -8.853  15.113  67.697  1.00  0.00     0.000 HD 
ENDROOT
BRANCH   2   6
HETATM    6  C   UNL     1     -11.606  13.483  66.547  1.00  0.00    -0.359 C  
HETATM    7  H   UNL     1     -12.731  12.388  67.741  1.00  0.00     0.000 HD 
HETATM    8  O   UNL     1     -12.145  13.130  67.829  1.00  0.00    -0.324 OA 
BRANCH   6   9
HETATM    9  C   UNL     1     -10.952  12.273  65.905  1.00  0.00    -0.338 A  
HETATM   10  C   UNL     1     -10.909  12.116  64.507  1.00  0.00    -0.356 A  
HETATM   11  C   UNL     1     -10.341  10.973  63.954  1.00  0.00    -0.372 A  
HETATM   12  O   UNL     1     -10.294  10.772  62.602  1.00  0.00    -0.761 OA 
HETATM   13  C   UNL     1      -9.809   9.984  64.775  1.00  0.00    -0.254 A  
HETATM   14  H   UNL     1      -9.906   9.992  62.224  1.00  0.00     0.000 HD 
HETATM   15  C   UNL     1      -9.832  10.120  66.154  1.00  0.00    -0.297 A  
HETATM   16  O   UNL     1      -9.262   8.861  64.222  1.00  0.00    -0.390 OA 
HETATM   17  H   UNL     1      -8.899   8.186  64.783  1.00  0.00     0.000 HD 
HETATM   18  C   UNL     1     -10.406  11.262  66.719  1.00  0.00    -0.278 A  
ENDBRANCH   6   9
ENDBRANCH   2   6
TORSDOF 2
ENDMDL
MODEL      110
REMARK 921   NORMALIZED FREE ENERGY PREDICTED BY IDOCK:   -3.84 KCAL/MOL
REMARK 922        TOTAL FREE ENERGY PREDICTED BY IDOCK:   -4.50 KCAL/MOL
REMARK 923 INTER-LIGAND FREE ENERGY PREDICTED BY IDOCK:   -4.32 KCAL/MOL
REMARK 924 INTRA-LIGAND FREE ENERGY PREDICTED BY IDOCK:   -0.18 KCAL/MOL
REMARK 927      BINDING AFFINITY PREDICTED BY RF-SCORE:    0.00 PKD
ROOT
HETATM    1  C   UNL     1      -9.267   7.788  66.439  1.00  0.00    -0.229 C  
HETATM    2  C   UNL     1     -10.212   7.343  67.560  1.00  0.00    -0.224 C  
HETATM    3  N   UNL     1     -11.370   6.660  66.947  1.00  0.00    -0.824 NA 
HETATM    4  H1  UNL     1     -11.999   6.364  67.693  1.00  0.00     0.000 HD 
HETATM    5  H2  UNL     1     -11.094   5.890  66.337  1.00  0.00     0.000 HD 
ENDROOT
BRANCH   2   6
HETATM    6  C   UNL     1     -10.706   8.520  68.456  1.00  0.00    -0.031 C  
HETATM    7  H   UNL     1     -10.210  10.406  68.758  1.00  0.00     0.000 HD 
HETATM    8  O   UNL     1      -9.909   9.689  68.213  1.00  0.00    -0.145 OA 
BRANCH   6   9
HETATM    9  C   UNL     1     -10.706   8.188  69.937  1.00  0.00    -0.241 A  
HETATM   10  C   UNL     1     -11.673   7.332  70.497  1.00  0.00    -0.264 A  
HETATM   11  C   UNL     1     -11.671   7.085  71.867  1.00  0.00    -0.296 A  
HETATM   12  O   UNL     1     -12.600   6.273  72.455  1.00  0.00    -0.549 OA 
HETATM   13  C   UNL     1     -10.714   7.675  72.686  1.00  0.00    -0.321 A  
HETATM   14  H   UNL     1     -12.599   6.105  73.390  1.00  0.00     0.000 HD 
HETATM   15  C   UNL     1      -9.747   8.515  72.156  1.00  0.00    -0.387 A  
HETATM   16  O   UNL     1     -10.726   7.433  74.030  1.00  0.00    -0.550 OA 
HETATM   17  H   UNL     1     -10.073   7.836  74.590  1.00  0.00     0.000 HD 
HETATM   18  C   UNL     1      -9.746   8.774  70.783  1.00  0.00    -0.257 A  
ENDBRANCH   6   9
ENDBRANCH   2   6
TORSDOF 2
ENDMDL
MODEL      111
REMARK 921   NORMALIZED FREE ENERGY PREDICTED BY IDOCK:   -3.83 KCAL/MOL
REMARK 922        TOTAL FREE ENERGY PREDICTED BY IDOCK:   -4.49 KCAL/MOL
REMARK 923 INTER-LIGAND FREE ENERGY PREDICTED BY IDOCK:   -4.51 KCAL/MOL
REMARK 924 INTRA-LIGAND FREE ENERGY PREDICTED BY IDOCK:    0.01 KCAL/MOL
REMARK 927      BINDING AFFINITY PREDICTED BY RF-SCORE:    0.00 PKD
ROOT
HETATM    1  C   UNL     1     -10.270  17.843  68.885  1.00  0.00    -0.331 C  
HETATM    2  C   UNL     1     -10.360  16.407  68.358  1.00  0.00    -0.282 C  
HETATM    3  N   UNL     1     -10.029  16.421  66.918  1.00  0.00    -0.262 NA 
HETATM    4  H1  UNL     1     -10.089  15.465  66.567  1.00  0.00     0.000 HD 
HETATM    5  H2  UNL     1      -9.126  16.854  66.726  1.00  0.00     0.000 HD 
ENDROOT
BRANCH   2   6
HETATM    6  C   UNL     1     -11.760  15.755  68.573  1.00  0.00    -0.319 C  
HETATM    7  H   UNL     1     -13.129  15.722  69.993  1.00  0.00     0.000 HD 
HETATM    8  O   UNL     1     -12.277  16.119  69.862  1.00  0.00    -0.158 OA 
BRANCH   6   9
HETATM    9  C   UNL     1     -11.749  14.245  68.423  1.00  0.00    -0.373 A  
HETATM   10  C   UNL     1     -11.686  13.633  67.157  1.00  0.00    -0.418 A  
HETATM   11  C   UNL     1     -11.723  12.246  67.054  1.00  0.00    -0.329 A  
HETATM   12  O   UNL     1     -11.681  11.611  65.844  1.00  0.00    -0.348 OA 
HETATM   13  C   UNL     1     -11.816  11.459  68.197  1.00  0.00    -0.218 A  
HETATM   14  H   UNL     1     -11.706  10.664  65.774  1.00  0.00     0.000 HD 
HETATM   15  C   UNL     1     -11.870  12.038  69.455  1.00  0.00    -0.390 A  
HETATM   16  O   UNL     1     -11.860  10.098  68.085  1.00  0.00    -0.686 OA 
HETATM   17  H   UNL     1     -11.923   9.560  68.865  1.00  0.00     0.000 HD 
HETATM   18  C   UNL     1     -11.840  13.431  69.568  1.00  0.00    -0.391 A  
ENDBRANCH   6   9
ENDBRANCH   2   6
TORSDOF 2
ENDMDL
MODEL      112
REMARK 921   NORMALIZED FREE ENERGY PREDICTED BY IDOCK:   -3.83 KCAL/MOL
REMARK 922        TOTAL FREE ENERGY PREDICTED BY IDOCK:   -4.49 KCAL/MOL
REMARK 923 INTER-LIGAND FREE ENERGY PREDICTED BY IDOCK:   -4.29 KCAL/MOL
REMARK 924 INTRA-LIGAND FREE ENERGY PREDICTED BY IDOCK:   -0.20 KCAL/MOL
REMARK 927      BINDING AFFINITY PREDICTED BY RF-SCORE:    0.00 PKD
ROOT
HETATM    1  C   UNL     1     -11.195   7.614  72.456  1.00  0.00    -0.399 C  
HETATM    2  C   UNL     1     -11.826   8.038  71.126  1.00  0.00    -0.284 C  
HETATM    3  N   UNL     1     -12.444   6.847  70.505  1.00  0.00    -0.585 NA 
HETATM    4  H1  UNL     1     -12.865   7.130  69.620  1.00  0.00     0.000 HD 
HETATM    5  H2  UNL     1     -13.108   6.382  71.125  1.00  0.00     0.000 HD 
ENDROOT
BRANCH   2   6
HETATM    6  C   UNL     1     -10.808   8.683  70.135  1.00  0.00    -0.233 C  
HETATM    7  H   UNL     1      -8.869   9.042  70.095  1.00  0.00     0.000 HD 
HETATM    8  O   UNL     1      -9.489   8.649  70.698  1.00  0.00    -0.164 OA 
BRANCH   6   9
HETATM    9  C   UNL     1     -11.172  10.102  69.739  1.00  0.00    -0.325 A  
HETATM   10  C   UNL     1     -10.820  10.626  68.482  1.00  0.00    -0.275 A  
HETATM   11  C   UNL     1     -11.130  11.946  68.170  1.00  0.00    -0.242 A  
HETATM   12  O   UNL     1     -10.793  12.501  66.966  1.00  0.00    -0.244 OA 
HETATM   13  C   UNL     1     -11.792  12.751  69.092  1.00  0.00    -0.301 A  
HETATM   14  H   UNL     1     -11.004  13.402  66.753  1.00  0.00     0.000 HD 
HETATM   15  C   UNL     1     -12.156  12.254  70.333  1.00  0.00    -0.385 A  
HETATM   16  O   UNL     1     -12.084  14.047  68.778  1.00  0.00    -0.396 OA 
HETATM   17  H   UNL     1     -12.535  14.596  69.408  1.00  0.00     0.000 HD 
HETATM   18  C   UNL     1     -11.843  10.931  70.658  1.00  0.00    -0.453 A  
ENDBRANCH   6   9
ENDBRANCH   2   6
TORSDOF 2
ENDMDL
MODEL      113
REMARK 921   NORMALIZED FREE ENERGY PREDICTED BY IDOCK:   -3.82 KCAL/MOL
REMARK 922        TOTAL FREE ENERGY PREDICTED BY IDOCK:   -4.48 KCAL/MOL
REMARK 923 INTER-LIGAND FREE ENERGY PREDICTED BY IDOCK:   -4.27 KCAL/MOL
REMARK 924 INTRA-LIGAND FREE ENERGY PREDICTED BY IDOCK:   -0.21 KCAL/MOL
REMARK 927      BINDING AFFINITY PREDICTED BY RF-SCORE:    0.00 PKD
ROOT
HETATM    1  C   UNL     1     -11.691   8.423  72.148  1.00  0.00    -0.442 C  
HETATM    2  C   UNL     1     -12.190   7.166  71.428  1.00  0.00    -0.362 C  
HETATM    3  N   UNL     1     -13.440   6.723  72.081  1.00  0.00    -0.518 NA 
HETATM    4  H1  UNL     1     -13.772   5.886  71.601  1.00  0.00     0.000 HD 
HETATM    5  H2  UNL     1     -14.145   7.460  72.120  1.00  0.00     0.000 HD 
ENDROOT
BRANCH   2   6
HETATM    6  C   UNL     1     -11.153   6.001  71.426  1.00  0.00    -0.274 C  
HETATM    7  H   UNL     1      -9.417   5.617  72.280  1.00  0.00     0.000 HD 
HETATM    8  O   UNL     1     -10.048   6.327  72.281  1.00  0.00    -0.177 OA 
BRANCH   6   9
HETATM    9  C   UNL     1     -10.652   5.644  70.038  1.00  0.00    -0.388 A  
HETATM   10  C   UNL     1     -11.199   6.239  68.885  1.00  0.00    -0.387 A  
HETATM   11  C   UNL     1     -10.746   5.855  67.627  1.00  0.00    -0.270 A  
HETATM   12  O   UNL     1     -11.260   6.394  66.480  1.00  0.00    -0.699 OA 
HETATM   13  C   UNL     1      -9.751   4.891  67.501  1.00  0.00    -0.164 A  
HETATM   14  H   UNL     1     -10.951   6.133  65.621  1.00  0.00     0.000 HD 
HETATM   15  C   UNL     1      -9.192   4.298  68.622  1.00  0.00    -0.197 A  
HETATM   16  O   UNL     1      -9.320   4.515  66.260  1.00  0.00    -0.131 OA 
HETATM   17  H   UNL     1      -8.641   3.857  66.174  1.00  0.00     0.000 HD 
HETATM   18  C   UNL     1      -9.645   4.672  69.890  1.00  0.00    -0.261 A  
ENDBRANCH   6   9
ENDBRANCH   2   6
TORSDOF 2
ENDMDL
MODEL      114
REMARK 921   NORMALIZED FREE ENERGY PREDICTED BY IDOCK:   -3.82 KCAL/MOL
REMARK 922        TOTAL FREE ENERGY PREDICTED BY IDOCK:   -4.48 KCAL/MOL
REMARK 923 INTER-LIGAND FREE ENERGY PREDICTED BY IDOCK:   -4.52 KCAL/MOL
REMARK 924 INTRA-LIGAND FREE ENERGY PREDICTED BY IDOCK:    0.04 KCAL/MOL
REMARK 927      BINDING AFFINITY PREDICTED BY RF-SCORE:    0.00 PKD
ROOT
HETATM    1  C   UNL     1     -11.302   6.028  72.368  1.00  0.00    -0.349 C  
HETATM    2  C   UNL     1     -12.420   6.914  71.810  1.00  0.00    -0.356 C  
HETATM    3  N   UNL     1     -12.354   6.870  70.334  1.00  0.00    -0.604 NA 
HETATM    4  H1  UNL     1     -13.099   7.460  69.963  1.00  0.00     0.000 HD 
HETATM    5  H2  UNL     1     -12.387   5.918  69.968  1.00  0.00     0.000 HD 
ENDROOT
BRANCH   2   6
HETATM    6  C   UNL     1     -12.339   8.393  72.299  1.00  0.00    -0.376 C  
HETATM    7  H   UNL     1     -13.594   9.753  72.982  1.00  0.00     0.000 HD 
HETATM    8  O   UNL     1     -13.643   8.853  72.684  1.00  0.00    -0.439 OA 
BRANCH   6   9
HETATM    9  C   UNL     1     -11.736   9.333  71.271  1.00  0.00    -0.416 A  
HETATM   10  C   UNL     1     -10.362   9.306  70.968  1.00  0.00    -0.388 A  
HETATM   11  C   UNL     1      -9.835  10.213  70.054  1.00  0.00    -0.128 A  
HETATM   12  O   UNL     1      -8.504  10.232  69.743  1.00  0.00    -0.303 OA 
HETATM   13  C   UNL     1     -10.660  11.144  69.432  1.00  0.00    -0.134 A  
HETATM   14  H   UNL     1      -8.144  10.852  69.118  1.00  0.00     0.000 HD 
HETATM   15  C   UNL     1     -12.018  11.185  69.709  1.00  0.00    -0.428 A  
HETATM   16  O   UNL     1     -10.132  12.036  68.543  1.00  0.00    -0.210 OA 
HETATM   17  H   UNL     1     -10.695  12.672  68.119  1.00  0.00     0.000 HD 
HETATM   18  C   UNL     1     -12.555  10.282  70.630  1.00  0.00    -0.391 A  
ENDBRANCH   6   9
ENDBRANCH   2   6
TORSDOF 2
ENDMDL
MODEL      115
REMARK 921   NORMALIZED FREE ENERGY PREDICTED BY IDOCK:   -3.81 KCAL/MOL
REMARK 922        TOTAL FREE ENERGY PREDICTED BY IDOCK:   -4.47 KCAL/MOL
REMARK 923 INTER-LIGAND FREE ENERGY PREDICTED BY IDOCK:   -4.39 KCAL/MOL
REMARK 924 INTRA-LIGAND FREE ENERGY PREDICTED BY IDOCK:   -0.07 KCAL/MOL
REMARK 927      BINDING AFFINITY PREDICTED BY RF-SCORE:    0.00 PKD
ROOT
HETATM    1  C   UNL     1     -11.895  14.421  68.501  1.00  0.00    -0.369 C  
HETATM    2  C   UNL     1     -10.676  15.286  68.167  1.00  0.00    -0.257 C  
HETATM    3  N   UNL     1     -10.474  16.249  69.270  1.00  0.00    -0.264 NA 
HETATM    4  H1  UNL     1      -9.662  16.825  69.048  1.00  0.00     0.000 HD 
HETATM    5  H2  UNL     1     -10.395  15.793  70.180  1.00  0.00     0.000 HD 
ENDROOT
BRANCH   2   6
HETATM    6  C   UNL     1     -10.812  16.052  66.815  1.00  0.00    -0.195 C  
HETATM    7  H   UNL     1     -10.650  15.624  64.896  1.00  0.00     0.000 HD 
HETATM    8  O   UNL     1     -10.567  15.158  65.719  1.00  0.00    -0.312 OA 
BRANCH   6   9
HETATM    9  C   UNL     1      -9.901  17.262  66.716  1.00  0.00    -0.296 A  
HETATM   10  C   UNL     1     -10.409  18.572  66.796  1.00  0.00    -0.435 A  
HETATM   11  C   UNL     1      -9.551  19.658  66.656  1.00  0.00    -0.380 A  
HETATM   12  O   UNL     1     -10.004  20.947  66.711  1.00  0.00    -0.536 OA 
HETATM   13  C   UNL     1      -8.191  19.457  66.442  1.00  0.00    -0.325 A  
HETATM   14  H   UNL     1      -9.418  21.689  66.615  1.00  0.00     0.000 HD 
HETATM   15  C   UNL     1      -7.667  18.177  66.368  1.00  0.00    -0.295 A  
HETATM   16  O   UNL     1      -7.359  20.530  66.297  1.00  0.00    -0.422 OA 
HETATM   17  H   UNL     1      -6.431  20.393  66.151  1.00  0.00     0.000 HD 
HETATM   18  C   UNL     1      -8.522  17.079  66.501  1.00  0.00    -0.306 A  
ENDBRANCH   6   9
ENDBRANCH   2   6
TORSDOF 2
ENDMDL
MODEL      116
REMARK 921   NORMALIZED FREE ENERGY PREDICTED BY IDOCK:   -3.81 KCAL/MOL
REMARK 922        TOTAL FREE ENERGY PREDICTED BY IDOCK:   -4.46 KCAL/MOL
REMARK 923 INTER-LIGAND FREE ENERGY PREDICTED BY IDOCK:   -4.30 KCAL/MOL
REMARK 924 INTRA-LIGAND FREE ENERGY PREDICTED BY IDOCK:   -0.16 KCAL/MOL
REMARK 927      BINDING AFFINITY PREDICTED BY RF-SCORE:    0.00 PKD
ROOT
HETATM    1  C   UNL     1     -12.367  13.607  65.870  1.00  0.00    -0.516 C  
HETATM    2  C   UNL     1     -11.210  14.589  66.085  1.00  0.00    -0.339 C  
HETATM    3  N   UNL     1     -10.111  14.218  65.168  1.00  0.00    -0.524 NA 
HETATM    4  H1  UNL     1      -9.342  14.872  65.311  1.00  0.00     0.000 HD 
HETATM    5  H2  UNL     1     -10.411  14.171  64.194  1.00  0.00     0.000 HD 
ENDROOT
BRANCH   2   6
HETATM    6  C   UNL     1     -10.687  14.618  67.553  1.00  0.00    -0.268 C  
HETATM    7  H   UNL     1     -11.446  14.368  69.357  1.00  0.00     0.000 HD 
HETATM    8  O   UNL     1     -11.765  14.350  68.463  1.00  0.00    -0.302 OA 
BRANCH   6   9
HETATM    9  C   UNL     1     -10.004  15.922  67.922  1.00  0.00    -0.221 A  
HETATM   10  C   UNL     1     -10.744  17.059  68.293  1.00  0.00    -0.372 A  
HETATM   11  C   UNL     1     -10.087  18.251  68.581  1.00  0.00    -0.385 A  
HETATM   12  O   UNL     1     -10.767  19.385  68.930  1.00  0.00    -0.324 OA 
HETATM   13  C   UNL     1      -8.699  18.324  68.511  1.00  0.00    -0.308 A  
HETATM   14  H   UNL     1     -10.319  20.198  69.127  1.00  0.00     0.000 HD 
HETATM   15  C   UNL     1      -7.948  17.214  68.156  1.00  0.00    -0.216 A  
HETATM   16  O   UNL     1      -8.064  19.501  68.788  1.00  0.00    -0.357 OA 
HETATM   17  H   UNL     1      -7.117  19.551  68.739  1.00  0.00     0.000 HD 
HETATM   18  C   UNL     1      -8.601  16.015  67.859  1.00  0.00    -0.165 A  
ENDBRANCH   6   9
ENDBRANCH   2   6
TORSDOF 2
ENDMDL
MODEL      117
REMARK 921   NORMALIZED FREE ENERGY PREDICTED BY IDOCK:   -3.79 KCAL/MOL
REMARK 922        TOTAL FREE ENERGY PREDICTED BY IDOCK:   -4.44 KCAL/MOL
REMARK 923 INTER-LIGAND FREE ENERGY PREDICTED BY IDOCK:   -4.26 KCAL/MOL
REMARK 924 INTRA-LIGAND FREE ENERGY PREDICTED BY IDOCK:   -0.19 KCAL/MOL
REMARK 927      BINDING AFFINITY PREDICTED BY RF-SCORE:    0.00 PKD
ROOT
HETATM    1  C   UNL     1     -12.212  13.704  70.464  1.00  0.00    -0.438 C  
HETATM    2  C   UNL     1     -11.720  15.154  70.418  1.00  0.00    -0.293 C  
HETATM    3  N   UNL     1     -12.612  15.974  71.265  1.00  0.00    -0.551 NA 
HETATM    4  H1  UNL     1     -12.283  16.939  71.234  1.00  0.00     0.000 HD 
HETATM    5  H2  UNL     1     -12.688  15.615  72.217  1.00  0.00     0.000 HD 
ENDROOT
BRANCH   2   6
HETATM    6  C   UNL     1     -11.669  15.745  68.976  1.00  0.00    -0.396 C  
HETATM    7  H   UNL     1     -11.684  15.043  67.132  1.00  0.00     0.000 HD 
HETATM    8  O   UNL     1     -11.714  14.684  68.010  1.00  0.00    -0.330 OA 
BRANCH   6   9
HETATM    9  C   UNL     1     -10.457  16.624  68.729  1.00  0.00    -0.324 A  
HETATM   10  C   UNL     1      -9.150  16.154  68.956  1.00  0.00    -0.250 A  
HETATM   11  C   UNL     1      -8.065  17.003  68.762  1.00  0.00    -0.250 A  
HETATM   12  O   UNL     1      -6.780  16.593  68.986  1.00  0.00    -0.176 OA 
HETATM   13  C   UNL     1      -8.263  18.313  68.338  1.00  0.00    -0.311 A  
HETATM   14  H   UNL     1      -6.039  17.172  68.854  1.00  0.00     0.000 HD 
HETATM   15  C   UNL     1      -9.540  18.796  68.100  1.00  0.00    -0.373 A  
HETATM   16  O   UNL     1      -7.191  19.140  68.159  1.00  0.00    -0.251 OA 
HETATM   17  H   UNL     1      -7.327  20.035  67.870  1.00  0.00     0.000 HD 
HETATM   18  C   UNL     1     -10.637  17.952  68.298  1.00  0.00    -0.314 A  
ENDBRANCH   6   9
ENDBRANCH   2   6
TORSDOF 2
ENDMDL
MODEL      118
REMARK 921   NORMALIZED FREE ENERGY PREDICTED BY IDOCK:   -3.79 KCAL/MOL
REMARK 922        TOTAL FREE ENERGY PREDICTED BY IDOCK:   -4.44 KCAL/MOL
REMARK 923 INTER-LIGAND FREE ENERGY PREDICTED BY IDOCK:   -4.26 KCAL/MOL
REMARK 924 INTRA-LIGAND FREE ENERGY PREDICTED BY IDOCK:   -0.19 KCAL/MOL
REMARK 927      BINDING AFFINITY PREDICTED BY RF-SCORE:    0.00 PKD
ROOT
HETATM    1  C   UNL     1      -7.178  17.078  68.191  1.00  0.00    -0.186 C  
HETATM    2  C   UNL     1      -8.696  17.082  67.980  1.00  0.00    -0.218 C  
HETATM    3  N   UNL     1      -9.241  18.328  68.560  1.00  0.00    -0.317 NA 
HETATM    4  H1  UNL     1     -10.251  18.330  68.420  1.00  0.00     0.000 HD 
HETATM    5  H2  UNL     1      -8.790  19.164  68.188  1.00  0.00     0.000 HD 
ENDROOT
BRANCH   2   6
HETATM    6  C   UNL     1      -9.411  15.848  68.610  1.00  0.00    -0.214 C  
HETATM    7  H   UNL     1      -8.896  14.286  69.699  1.00  0.00     0.000 HD 
HETATM    8  O   UNL     1      -8.460  15.037  69.315  1.00  0.00    -0.200 OA 
BRANCH   6   9
HETATM    9  C   UNL     1     -10.164  15.007  67.595  1.00  0.00    -0.236 A  
HETATM   10  C   UNL     1      -9.600  14.684  66.347  1.00  0.00    -0.323 A  
HETATM   11  C   UNL     1     -10.336  13.949  65.423  1.00  0.00    -0.348 A  
HETATM   12  O   UNL     1      -9.833  13.627  64.193  1.00  0.00    -0.693 OA 
HETATM   13  C   UNL     1     -11.625  13.525  65.728  1.00  0.00    -0.330 A  
HETATM   14  H   UNL     1     -10.336  13.125  63.562  1.00  0.00     0.000 HD 
HETATM   15  C   UNL     1     -12.199  13.825  66.954  1.00  0.00    -0.408 A  
HETATM   16  O   UNL     1     -12.343  12.812  64.810  1.00  0.00    -0.433 OA 
HETATM   17  H   UNL     1     -13.223  12.523  65.019  1.00  0.00     0.000 HD 
HETATM   18  C   UNL     1     -11.469  14.568  67.886  1.00  0.00    -0.348 A  
ENDBRANCH   6   9
ENDBRANCH   2   6
TORSDOF 2
ENDMDL
MODEL      119
REMARK 921   NORMALIZED FREE ENERGY PREDICTED BY IDOCK:   -3.76 KCAL/MOL
REMARK 922        TOTAL FREE ENERGY PREDICTED BY IDOCK:   -4.41 KCAL/MOL
REMARK 923 INTER-LIGAND FREE ENERGY PREDICTED BY IDOCK:   -4.20 KCAL/MOL
REMARK 924 INTRA-LIGAND FREE ENERGY PREDICTED BY IDOCK:   -0.20 KCAL/MOL
REMARK 927      BINDING AFFINITY PREDICTED BY RF-SCORE:    0.00 PKD
ROOT
HETATM    1  C   UNL     1     -10.328   9.533  66.998  1.00  0.00    -0.319 C  
HETATM    2  C   UNL     1     -10.937  10.783  67.643  1.00  0.00    -0.306 C  
HETATM    3  N   UNL     1     -12.130  10.372  68.414  1.00  0.00    -0.647 NA 
HETATM    4  H1  UNL     1     -12.535  11.204  68.843  1.00  0.00     0.000 HD 
HETATM    5  H2  UNL     1     -11.925   9.639  69.093  1.00  0.00     0.000 HD 
ENDROOT
BRANCH   2   6
HETATM    6  C   UNL     1     -11.328  11.884  66.611  1.00  0.00    -0.337 C  
HETATM    7  H   UNL     1     -11.094  12.191  64.676  1.00  0.00     0.000 HD 
HETATM    8  O   UNL     1     -10.856  11.521  65.305  1.00  0.00    -0.287 OA 
BRANCH   6   9
HETATM    9  C   UNL     1     -10.821  13.265  66.984  1.00  0.00    -0.278 A  
HETATM   10  C   UNL     1     -10.134  13.493  68.191  1.00  0.00    -0.250 A  
HETATM   11  C   UNL     1      -9.723  14.781  68.522  1.00  0.00    -0.218 A  
HETATM   12  O   UNL     1      -9.068  15.050  69.692  1.00  0.00    -0.432 OA 
HETATM   13  C   UNL     1      -9.982  15.844  67.664  1.00  0.00    -0.237 A  
HETATM   14  H   UNL     1      -8.787  15.929  69.918  1.00  0.00     0.000 HD 
HETATM   15  C   UNL     1     -10.649  15.642  66.466  1.00  0.00    -0.307 A  
HETATM   16  O   UNL     1      -9.581  17.105  68.002  1.00  0.00    -0.255 OA 
HETATM   17  H   UNL     1      -9.758  17.831  67.416  1.00  0.00     0.000 HD 
HETATM   18  C   UNL     1     -11.071  14.354  66.128  1.00  0.00    -0.330 A  
ENDBRANCH   6   9
ENDBRANCH   2   6
TORSDOF 2
ENDMDL
MODEL      120
REMARK 921   NORMALIZED FREE ENERGY PREDICTED BY IDOCK:   -3.76 KCAL/MOL
REMARK 922        TOTAL FREE ENERGY PREDICTED BY IDOCK:   -4.41 KCAL/MOL
REMARK 923 INTER-LIGAND FREE ENERGY PREDICTED BY IDOCK:   -4.39 KCAL/MOL
REMARK 924 INTRA-LIGAND FREE ENERGY PREDICTED BY IDOCK:   -0.02 KCAL/MOL
REMARK 927      BINDING AFFINITY PREDICTED BY RF-SCORE:    0.00 PKD
ROOT
HETATM    1  C   UNL     1      -9.670  15.592  69.326  1.00  0.00    -0.271 C  
HETATM    2  C   UNL     1     -10.692  16.260  68.401  1.00  0.00    -0.311 C  
HETATM    3  N   UNL     1     -11.930  15.452  68.417  1.00  0.00    -0.528 NA 
HETATM    4  H1  UNL     1     -12.610  15.897  67.802  1.00  0.00     0.000 HD 
HETATM    5  H2  UNL     1     -12.290  15.305  69.360  1.00  0.00     0.000 HD 
ENDROOT
BRANCH   2   6
HETATM    6  C   UNL     1     -10.186  16.423  66.935  1.00  0.00    -0.290 C  
HETATM    7  H   UNL     1     -10.363  17.756  65.492  1.00  0.00     0.000 HD 
HETATM    8  O   UNL     1     -10.671  17.657  66.384  1.00  0.00    -0.239 OA 
BRANCH   6   9
HETATM    9  C   UNL     1     -10.569  15.263  66.035  1.00  0.00    -0.327 A  
HETATM   10  C   UNL     1      -9.861  14.047  66.063  1.00  0.00    -0.316 A  
HETATM   11  C   UNL     1     -10.212  13.020  65.192  1.00  0.00    -0.272 A  
HETATM   12  O   UNL     1      -9.541  11.829  65.174  1.00  0.00    -0.317 OA 
HETATM   13  C   UNL     1     -11.263  13.186  64.296  1.00  0.00    -0.388 A  
HETATM   14  H   UNL     1      -9.780  11.128  64.580  1.00  0.00     0.000 HD 
HETATM   15  C   UNL     1     -11.979  14.371  64.255  1.00  0.00    -0.433 A  
HETATM   16  O   UNL     1     -11.593  12.175  63.439  1.00  0.00    -0.568 OA 
HETATM   17  H   UNL     1     -12.310  12.288  62.827  1.00  0.00     0.000 HD 
HETATM   18  C   UNL     1     -11.631  15.410  65.122  1.00  0.00    -0.127 A  
ENDBRANCH   6   9
ENDBRANCH   2   6
TORSDOF 2
ENDMDL
MODEL      121
REMARK 921   NORMALIZED FREE ENERGY PREDICTED BY IDOCK:   -3.75 KCAL/MOL
REMARK 922        TOTAL FREE ENERGY PREDICTED BY IDOCK:   -4.39 KCAL/MOL
REMARK 923 INTER-LIGAND FREE ENERGY PREDICTED BY IDOCK:   -4.36 KCAL/MOL
REMARK 924 INTRA-LIGAND FREE ENERGY PREDICTED BY IDOCK:   -0.03 KCAL/MOL
REMARK 927      BINDING AFFINITY PREDICTED BY RF-SCORE:    0.00 PKD
ROOT
HETATM    1  C   UNL     1      -9.168  19.681  68.851  1.00  0.00    -0.307 C  
HETATM    2  C   UNL     1      -9.856  18.545  68.087  1.00  0.00    -0.346 C  
HETATM    3  N   UNL     1      -9.981  17.385  68.993  1.00  0.00    -0.292 NA 
HETATM    4  H1  UNL     1     -10.440  16.629  68.484  1.00  0.00     0.000 HD 
HETATM    5  H2  UNL     1     -10.457  17.617  69.865  1.00  0.00     0.000 HD 
ENDROOT
BRANCH   2   6
HETATM    6  C   UNL     1      -9.099  18.124  66.790  1.00  0.00    -0.282 C  
HETATM    7  H   UNL     1      -8.557  18.981  65.098  1.00  0.00     0.000 HD 
HETATM    8  O   UNL     1      -9.018  19.237  65.887  1.00  0.00    -0.434 OA 
BRANCH   6   9
HETATM    9  C   UNL     1      -9.723  16.930  66.091  1.00  0.00    -0.296 A  
HETATM   10  C   UNL     1      -9.259  15.621  66.321  1.00  0.00    -0.365 A  
HETATM   11  C   UNL     1      -9.824  14.554  65.629  1.00  0.00    -0.305 A  
HETATM   12  O   UNL     1      -9.394  13.269  65.809  1.00  0.00    -0.469 OA 
HETATM   13  C   UNL     1     -10.850  14.772  64.715  1.00  0.00    -0.376 A  
HETATM   14  H   UNL     1      -9.779  12.540  65.337  1.00  0.00     0.000 HD 
HETATM   15  C   UNL     1     -11.329  16.051  64.479  1.00  0.00    -0.303 A  
HETATM   16  O   UNL     1     -11.392  13.719  64.035  1.00  0.00    -0.580 OA 
HETATM   17  H   UNL     1     -12.092  13.868  63.411  1.00  0.00     0.000 HD 
HETATM   18  C   UNL     1     -10.763  17.130  65.164  1.00  0.00    -0.009 A  
ENDBRANCH   6   9
ENDBRANCH   2   6
TORSDOF 2
ENDMDL
MODEL      122
REMARK 921   NORMALIZED FREE ENERGY PREDICTED BY IDOCK:   -3.74 KCAL/MOL
REMARK 922        TOTAL FREE ENERGY PREDICTED BY IDOCK:   -4.38 KCAL/MOL
REMARK 923 INTER-LIGAND FREE ENERGY PREDICTED BY IDOCK:   -4.49 KCAL/MOL
REMARK 924 INTRA-LIGAND FREE ENERGY PREDICTED BY IDOCK:    0.10 KCAL/MOL
REMARK 927      BINDING AFFINITY PREDICTED BY RF-SCORE:    0.00 PKD
ROOT
HETATM    1  C   UNL     1     -12.322  14.039  66.119  1.00  0.00    -0.491 C  
HETATM    2  C   UNL     1     -10.834  14.372  65.970  1.00  0.00    -0.309 C  
HETATM    3  N   UNL     1     -10.254  13.463  64.959  1.00  0.00    -0.478 NA 
HETATM    4  H1  UNL     1      -9.264  13.685  64.860  1.00  0.00     0.000 HD 
HETATM    5  H2  UNL     1     -10.755  13.493  64.071  1.00  0.00     0.000 HD 
ENDROOT
BRANCH   2   6
HETATM    6  C   UNL     1     -10.037  14.256  67.305  1.00  0.00    -0.252 C  
HETATM    7  H   UNL     1      -8.324  13.476  67.896  1.00  0.00     0.000 HD 
HETATM    8  O   UNL     1      -8.810  13.547  67.083  1.00  0.00    -0.212 OA 
BRANCH   6   9
HETATM    9  C   UNL     1     -10.827  13.596  68.421  1.00  0.00    -0.274 A  
HETATM   10  C   UNL     1     -11.075  12.211  68.425  1.00  0.00    -0.289 A  
HETATM   11  C   UNL     1     -11.841  11.646  69.440  1.00  0.00    -0.342 A  
HETATM   12  O   UNL     1     -12.119  10.308  69.474  1.00  0.00    -0.495 OA 
HETATM   13  C   UNL     1     -12.359  12.442  70.456  1.00  0.00    -0.262 A  
HETATM   14  H   UNL     1     -12.642   9.922  70.167  1.00  0.00     0.000 HD 
HETATM   15  C   UNL     1     -12.122  13.808  70.477  1.00  0.00    -0.416 A  
HETATM   16  O   UNL     1     -13.117  11.879  71.443  1.00  0.00    -0.350 OA 
HETATM   17  H   UNL     1     -13.471  12.423  72.136  1.00  0.00     0.000 HD 
HETATM   18  C   UNL     1     -11.359  14.384  69.459  1.00  0.00    -0.318 A  
ENDBRANCH   6   9
ENDBRANCH   2   6
TORSDOF 2
ENDMDL
MODEL      123
REMARK 921   NORMALIZED FREE ENERGY PREDICTED BY IDOCK:   -3.73 KCAL/MOL
REMARK 922        TOTAL FREE ENERGY PREDICTED BY IDOCK:   -4.38 KCAL/MOL
REMARK 923 INTER-LIGAND FREE ENERGY PREDICTED BY IDOCK:   -4.16 KCAL/MOL
REMARK 924 INTRA-LIGAND FREE ENERGY PREDICTED BY IDOCK:   -0.22 KCAL/MOL
REMARK 927      BINDING AFFINITY PREDICTED BY RF-SCORE:    0.00 PKD
ROOT
HETATM    1  C   UNL     1      -8.319   5.635  70.565  1.00  0.00    -0.117 C  
HETATM    2  C   UNL     1      -8.405   6.761  71.600  1.00  0.00    -0.111 C  
HETATM    3  N   UNL     1      -7.224   6.670  72.484  1.00  0.00    -0.083 NA 
HETATM    4  H1  UNL     1      -7.282   7.420  73.173  1.00  0.00     0.000 HD 
HETATM    5  H2  UNL     1      -6.345   6.679  71.966  1.00  0.00     0.000 HD 
ENDROOT
BRANCH   2   6
HETATM    6  C   UNL     1      -9.710   6.718  72.454  1.00  0.00    -0.154 C  
HETATM    7  H   UNL     1     -11.167   5.431  72.792  1.00  0.00     0.000 HD 
HETATM    8  O   UNL     1     -10.373   5.458  72.272  1.00  0.00    -0.195 OA 
BRANCH   6   9
HETATM    9  C   UNL     1     -10.664   7.859  72.152  1.00  0.00    -0.316 A  
HETATM   10  C   UNL     1     -11.960   7.897  72.700  1.00  0.00    -0.299 A  
HETATM   11  C   UNL     1     -12.823   8.935  72.365  1.00  0.00    -0.380 A  
HETATM   12  O   UNL     1     -14.096   9.003  72.861  1.00  0.00    -1.009 OA 
HETATM   13  C   UNL     1     -12.412   9.941  71.497  1.00  0.00    -0.411 A  
HETATM   14  H   UNL     1     -14.685   9.712  72.633  1.00  0.00     0.000 HD 
HETATM   15  C   UNL     1     -11.137   9.929  70.952  1.00  0.00    -0.418 A  
HETATM   16  O   UNL     1     -13.270  10.951  71.168  1.00  0.00    -0.302 OA 
HETATM   17  H   UNL     1     -12.989  11.637  70.575  1.00  0.00     0.000 HD 
HETATM   18  C   UNL     1     -10.265   8.886  71.277  1.00  0.00    -0.361 A  
ENDBRANCH   6   9
ENDBRANCH   2   6
TORSDOF 2
ENDMDL
MODEL      124
REMARK 921   NORMALIZED FREE ENERGY PREDICTED BY IDOCK:   -3.73 KCAL/MOL
REMARK 922        TOTAL FREE ENERGY PREDICTED BY IDOCK:   -4.37 KCAL/MOL
REMARK 923 INTER-LIGAND FREE ENERGY PREDICTED BY IDOCK:   -4.17 KCAL/MOL
REMARK 924 INTRA-LIGAND FREE ENERGY PREDICTED BY IDOCK:   -0.20 KCAL/MOL
REMARK 927      BINDING AFFINITY PREDICTED BY RF-SCORE:    0.00 PKD
ROOT
HETATM    1  C   UNL     1      -6.655   8.395  70.314  1.00  0.00    -0.035 C  
HETATM    2  C   UNL     1      -8.088   7.873  70.173  1.00  0.00    -0.116 C  
HETATM    3  N   UNL     1      -8.098   6.819  69.137  1.00  0.00    -0.119 NA 
HETATM    4  H1  UNL     1      -9.052   6.471  69.043  1.00  0.00     0.000 HD 
HETATM    5  H2  UNL     1      -7.425   6.076  69.326  1.00  0.00     0.000 HD 
ENDROOT
BRANCH   2   6
HETATM    6  C   UNL     1      -9.119   8.984  69.807  1.00  0.00    -0.159 C  
HETATM    7  H   UNL     1      -9.118  10.950  69.644  1.00  0.00     0.000 HD 
HETATM    8  O   UNL     1      -8.491  10.274  69.867  1.00  0.00    -0.142 OA 
BRANCH   6   9
HETATM    9  C   UNL     1     -10.359   8.966  70.682  1.00  0.00    -0.265 A  
HETATM   10  C   UNL     1     -11.221  10.076  70.757  1.00  0.00    -0.428 A  
HETATM   11  C   UNL     1     -12.324  10.040  71.604  1.00  0.00    -0.394 A  
HETATM   12  O   UNL     1     -13.178  11.101  71.721  1.00  0.00    -0.442 OA 
HETATM   13  C   UNL     1     -12.585   8.911  72.373  1.00  0.00    -0.353 A  
HETATM   14  H   UNL     1     -13.932  11.077  72.299  1.00  0.00     0.000 HD 
HETATM   15  C   UNL     1     -11.754   7.803  72.309  1.00  0.00    -0.390 A  
HETATM   16  O   UNL     1     -13.665   8.889  73.208  1.00  0.00    -1.085 OA 
HETATM   17  H   UNL     1     -13.843   8.118  73.733  1.00  0.00     0.000 HD 
HETATM   18  C   UNL     1     -10.640   7.832  71.466  1.00  0.00    -0.247 A  
ENDBRANCH   6   9
ENDBRANCH   2   6
TORSDOF 2
ENDMDL
MODEL      125
REMARK 921   NORMALIZED FREE ENERGY PREDICTED BY IDOCK:   -3.72 KCAL/MOL
REMARK 922        TOTAL FREE ENERGY PREDICTED BY IDOCK:   -4.36 KCAL/MOL
REMARK 923 INTER-LIGAND FREE ENERGY PREDICTED BY IDOCK:   -4.19 KCAL/MOL
REMARK 924 INTRA-LIGAND FREE ENERGY PREDICTED BY IDOCK:   -0.17 KCAL/MOL
REMARK 927      BINDING AFFINITY PREDICTED BY RF-SCORE:    0.00 PKD
ROOT
HETATM    1  C   UNL     1      -9.412  13.179  66.713  1.00  0.00    -0.252 C  
HETATM    2  C   UNL     1      -9.605  14.104  67.919  1.00  0.00    -0.223 C  
HETATM    3  N   UNL     1     -10.133  13.300  69.041  1.00  0.00    -0.425 NA 
HETATM    4  H1  UNL     1     -10.261  13.916  69.843  1.00  0.00     0.000 HD 
HETATM    5  H2  UNL     1      -9.548  12.492  69.255  1.00  0.00     0.000 HD 
ENDROOT
BRANCH   2   6
HETATM    6  C   UNL     1     -10.559  15.303  67.632  1.00  0.00    -0.270 C  
HETATM    7  H   UNL     1     -11.934  15.761  66.294  1.00  0.00     0.000 HD 
HETATM    8  O   UNL     1     -11.353  15.031  66.468  1.00  0.00    -0.341 OA 
BRANCH   6   9
HETATM    9  C   UNL     1      -9.830  16.625  67.470  1.00  0.00    -0.253 A  
HETATM   10  C   UNL     1      -8.869  16.814  66.459  1.00  0.00    -0.311 A  
HETATM   11  C   UNL     1      -8.188  18.024  66.368  1.00  0.00    -0.255 A  
HETATM   12  O   UNL     1      -7.235  18.245  65.413  1.00  0.00    -0.541 OA 
HETATM   13  C   UNL     1      -8.456  19.052  67.266  1.00  0.00    -0.277 A  
HETATM   14  H   UNL     1      -6.770  19.071  65.350  1.00  0.00     0.000 HD 
HETATM   15  C   UNL     1      -9.405  18.892  68.264  1.00  0.00    -0.384 A  
HETATM   16  O   UNL     1      -7.776  20.232  67.173  1.00  0.00    -0.294 OA 
HETATM   17  H   UNL     1      -7.959  20.934  67.786  1.00  0.00     0.000 HD 
HETATM   18  C   UNL     1     -10.089  17.678  68.367  1.00  0.00    -0.368 A  
ENDBRANCH   6   9
ENDBRANCH   2   6
TORSDOF 2
ENDMDL
MODEL      126
REMARK 921   NORMALIZED FREE ENERGY PREDICTED BY IDOCK:   -3.70 KCAL/MOL
REMARK 922        TOTAL FREE ENERGY PREDICTED BY IDOCK:   -4.34 KCAL/MOL
REMARK 923 INTER-LIGAND FREE ENERGY PREDICTED BY IDOCK:   -4.17 KCAL/MOL
REMARK 924 INTRA-LIGAND FREE ENERGY PREDICTED BY IDOCK:   -0.18 KCAL/MOL
REMARK 927      BINDING AFFINITY PREDICTED BY RF-SCORE:    0.00 PKD
ROOT
HETATM    1  C   UNL     1      -8.916   5.600  66.197  1.00  0.00    -0.153 C  
HETATM    2  C   UNL     1     -10.290   5.153  66.707  1.00  0.00    -0.261 C  
HETATM    3  N   UNL     1     -11.110   4.755  65.544  1.00  0.00    -0.943 NA 
HETATM    4  H1  UNL     1     -12.024   4.457  65.884  1.00  0.00     0.000 HD 
HETATM    5  H2  UNL     1     -10.656   4.048  64.966  1.00  0.00     0.000 HD 
ENDROOT
BRANCH   2   6
HETATM    6  C   UNL     1     -11.033   6.251  67.528  1.00  0.00    -0.350 C  
HETATM    7  H   UNL     1     -11.006   8.219  67.653  1.00  0.00     0.000 HD 
HETATM    8  O   UNL     1     -10.554   7.551  67.153  1.00  0.00    -0.307 OA 
BRANCH   6   9
HETATM    9  C   UNL     1     -10.912   6.063  69.030  1.00  0.00    -0.409 A  
HETATM   10  C   UNL     1     -10.121   5.038  69.580  1.00  0.00    -0.321 A  
HETATM   11  C   UNL     1     -10.070   4.867  70.960  1.00  0.00    -0.218 A  
HETATM   12  O   UNL     1      -9.326   3.875  71.537  1.00  0.00    -0.117 OA 
HETATM   13  C   UNL     1     -10.792   5.708  71.801  1.00  0.00    -0.239 A  
HETATM   14  H   UNL     1      -9.291   3.758  72.479  1.00  0.00     0.000 HD 
HETATM   15  C   UNL     1     -11.572   6.729  71.282  1.00  0.00    -0.366 A  
HETATM   16  O   UNL     1     -10.742   5.526  73.153  1.00  0.00    -0.228 OA 
HETATM   17  H   UNL     1     -11.235   6.100  73.727  1.00  0.00     0.000 HD 
HETATM   18  C   UNL     1     -11.635   6.904  69.897  1.00  0.00    -0.255 A  
ENDBRANCH   6   9
ENDBRANCH   2   6
TORSDOF 2
ENDMDL
MODEL      127
REMARK 921   NORMALIZED FREE ENERGY PREDICTED BY IDOCK:   -3.70 KCAL/MOL
REMARK 922        TOTAL FREE ENERGY PREDICTED BY IDOCK:   -4.34 KCAL/MOL
REMARK 923 INTER-LIGAND FREE ENERGY PREDICTED BY IDOCK:   -4.33 KCAL/MOL
REMARK 924 INTRA-LIGAND FREE ENERGY PREDICTED BY IDOCK:   -0.01 KCAL/MOL
REMARK 927      BINDING AFFINITY PREDICTED BY RF-SCORE:    0.00 PKD
ROOT
HETATM    1  C   UNL     1     -11.826  13.822  69.996  1.00  0.00    -0.377 C  
HETATM    2  C   UNL     1     -11.924  12.451  69.318  1.00  0.00    -0.253 C  
HETATM    3  N   UNL     1     -10.816  11.608  69.814  1.00  0.00    -0.448 NA 
HETATM    4  H1  UNL     1     -10.881  10.696  69.362  1.00  0.00     0.000 HD 
HETATM    5  H2  UNL     1     -10.797  11.543  70.832  1.00  0.00     0.000 HD 
ENDROOT
BRANCH   2   6
HETATM    6  C   UNL     1     -11.876  12.526  67.761  1.00  0.00    -0.313 C  
HETATM    7  H   UNL     1     -11.455  11.301  66.273  1.00  0.00     0.000 HD 
HETATM    8  O   UNL     1     -11.484  11.255  67.221  1.00  0.00    -0.464 OA 
BRANCH   6   9
HETATM    9  C   UNL     1     -10.961  13.620  67.240  1.00  0.00    -0.299 A  
HETATM   10  C   UNL     1      -9.560  13.496  67.300  1.00  0.00    -0.235 A  
HETATM   11  C   UNL     1      -8.753  14.537  66.855  1.00  0.00    -0.211 A  
HETATM   12  O   UNL     1      -7.388  14.466  66.910  1.00  0.00    -0.318 OA 
HETATM   13  C   UNL     1      -9.321  15.699  66.344  1.00  0.00    -0.300 A  
HETATM   14  H   UNL     1      -6.836  15.177  66.605  1.00  0.00     0.000 HD 
HETATM   15  C   UNL     1     -10.698  15.841  66.267  1.00  0.00    -0.282 A  
HETATM   16  O   UNL     1      -8.519  16.719  65.917  1.00  0.00    -0.484 OA 
HETATM   17  H   UNL     1      -8.907  17.513  65.568  1.00  0.00     0.000 HD 
HETATM   18  C   UNL     1     -11.517  14.803  66.718  1.00  0.00    -0.343 A  
ENDBRANCH   6   9
ENDBRANCH   2   6
TORSDOF 2
ENDMDL
MODEL      128
REMARK 921   NORMALIZED FREE ENERGY PREDICTED BY IDOCK:   -3.69 KCAL/MOL
REMARK 922        TOTAL FREE ENERGY PREDICTED BY IDOCK:   -4.33 KCAL/MOL
REMARK 923 INTER-LIGAND FREE ENERGY PREDICTED BY IDOCK:   -4.47 KCAL/MOL
REMARK 924 INTRA-LIGAND FREE ENERGY PREDICTED BY IDOCK:    0.14 KCAL/MOL
REMARK 927      BINDING AFFINITY PREDICTED BY RF-SCORE:    0.00 PKD
ROOT
HETATM    1  C   UNL     1      -9.929  19.282  67.829  1.00  0.00    -0.460 C  
HETATM    2  C   UNL     1     -10.397  17.837  68.031  1.00  0.00    -0.393 C  
HETATM    3  N   UNL     1     -10.178  17.473  69.447  1.00  0.00    -0.214 NA 
HETATM    4  H1  UNL     1     -10.489  16.511  69.582  1.00  0.00     0.000 HD 
HETATM    5  H2  UNL     1     -10.623  18.125  70.094  1.00  0.00     0.000 HD 
ENDROOT
BRANCH   2   6
HETATM    6  C   UNL     1      -9.670  16.816  67.104  1.00  0.00    -0.251 C  
HETATM    7  H   UNL     1      -9.303  16.631  65.175  1.00  0.00     0.000 HD 
HETATM    8  O   UNL     1      -9.745  17.253  65.739  1.00  0.00    -0.530 OA 
BRANCH   6   9
HETATM    9  C   UNL     1     -10.207  15.402  67.230  1.00  0.00    -0.254 A  
HETATM   10  C   UNL     1      -9.483  14.296  66.747  1.00  0.00    -0.287 A  
HETATM   11  C   UNL     1     -10.027  13.018  66.839  1.00  0.00    -0.243 A  
HETATM   12  O   UNL     1      -9.366  11.918  66.368  1.00  0.00    -0.217 OA 
HETATM   13  C   UNL     1     -11.279  12.826  67.412  1.00  0.00    -0.294 A  
HETATM   14  H   UNL     1      -9.737  11.045  66.431  1.00  0.00     0.000 HD 
HETATM   15  C   UNL     1     -12.007  13.899  67.903  1.00  0.00    -0.393 A  
HETATM   16  O   UNL     1     -11.807  11.569  67.490  1.00  0.00    -0.605 OA 
HETATM   17  H   UNL     1     -12.663  11.438  67.881  1.00  0.00     0.000 HD 
HETATM   18  C   UNL     1     -11.472  15.187  67.809  1.00  0.00    -0.329 A  
ENDBRANCH   6   9
ENDBRANCH   2   6
TORSDOF 2
ENDMDL
MODEL      129
REMARK 921   NORMALIZED FREE ENERGY PREDICTED BY IDOCK:   -3.69 KCAL/MOL
REMARK 922        TOTAL FREE ENERGY PREDICTED BY IDOCK:   -4.33 KCAL/MOL
REMARK 923 INTER-LIGAND FREE ENERGY PREDICTED BY IDOCK:   -4.10 KCAL/MOL
REMARK 924 INTRA-LIGAND FREE ENERGY PREDICTED BY IDOCK:   -0.23 KCAL/MOL
REMARK 927      BINDING AFFINITY PREDICTED BY RF-SCORE:    0.00 PKD
ROOT
HETATM    1  C   UNL     1      -9.531   4.246  67.522  1.00  0.00    -0.216 C  
HETATM    2  C   UNL     1     -10.598   5.343  67.449  1.00  0.00    -0.153 C  
HETATM    3  N   UNL     1     -11.066   5.443  66.051  1.00  0.00    -0.789 NA 
HETATM    4  H1  UNL     1     -11.777   6.173  66.002  1.00  0.00     0.000 HD 
HETATM    5  H2  UNL     1     -11.395   4.550  65.682  1.00  0.00     0.000 HD 
ENDROOT
BRANCH   2   6
HETATM    6  C   UNL     1     -10.090   6.734  67.937  1.00  0.00    -0.159 C  
HETATM    7  H   UNL     1      -8.357   7.667  68.071  1.00  0.00     0.000 HD 
HETATM    8  O   UNL     1      -8.666   6.820  67.774  1.00  0.00    -0.121 OA 
BRANCH   6   9
HETATM    9  C   UNL     1     -10.471   7.043  69.373  1.00  0.00    -0.227 A  
HETATM   10  C   UNL     1      -9.667   7.864  70.186  1.00  0.00    -0.179 A  
HETATM   11  C   UNL     1     -10.024   8.089  71.512  1.00  0.00    -0.177 A  
HETATM   12  O   UNL     1      -9.264   8.867  72.341  1.00  0.00    -0.362 OA 
HETATM   13  C   UNL     1     -11.174   7.512  72.039  1.00  0.00    -0.257 A  
HETATM   14  H   UNL     1      -9.507   9.021  73.246  1.00  0.00     0.000 HD 
HETATM   15  C   UNL     1     -11.986   6.706  71.256  1.00  0.00    -0.409 A  
HETATM   16  O   UNL     1     -11.510   7.733  73.344  1.00  0.00    -0.617 OA 
HETATM   17  H   UNL     1     -12.296   7.338  73.704  1.00  0.00     0.000 HD 
HETATM   18  C   UNL     1     -11.632   6.469  69.924  1.00  0.00    -0.433 A  
ENDBRANCH   6   9
ENDBRANCH   2   6
TORSDOF 2
ENDMDL
MODEL      130
REMARK 921   NORMALIZED FREE ENERGY PREDICTED BY IDOCK:   -3.69 KCAL/MOL
REMARK 922        TOTAL FREE ENERGY PREDICTED BY IDOCK:   -4.33 KCAL/MOL
REMARK 923 INTER-LIGAND FREE ENERGY PREDICTED BY IDOCK:   -4.10 KCAL/MOL
REMARK 924 INTRA-LIGAND FREE ENERGY PREDICTED BY IDOCK:   -0.23 KCAL/MOL
REMARK 927      BINDING AFFINITY PREDICTED BY RF-SCORE:    0.00 PKD
ROOT
HETATM    1  C   UNL     1     -10.312  14.688  68.158  1.00  0.00    -0.230 C  
HETATM    2  C   UNL     1     -11.356  13.644  67.749  1.00  0.00    -0.306 C  
HETATM    3  N   UNL     1     -12.345  14.298  66.867  1.00  0.00    -0.571 NA 
HETATM    4  H1  UNL     1     -13.040  13.603  66.595  1.00  0.00     0.000 HD 
HETATM    5  H2  UNL     1     -11.913  14.757  66.065  1.00  0.00     0.000 HD 
ENDROOT
BRANCH   2   6
HETATM    6  C   UNL     1     -12.083  12.987  68.963  1.00  0.00    -0.177 C  
HETATM    7  H   UNL     1     -12.336  13.387  70.878  1.00  0.00     0.000 HD 
HETATM    8  O   UNL     1     -11.894  13.787  70.139  1.00  0.00    -0.295 OA 
BRANCH   6   9
HETATM    9  C   UNL     1     -11.641  11.559  69.226  1.00  0.00    -0.388 A  
HETATM   10  C   UNL     1     -11.804  10.961  70.490  1.00  0.00    -0.457 A  
HETATM   11  C   UNL     1     -11.347   9.665  70.708  1.00  0.00    -0.340 A  
HETATM   12  O   UNL     1     -11.470   9.052  71.924  1.00  0.00    -0.348 OA 
HETATM   13  C   UNL     1     -10.733   8.954  69.682  1.00  0.00    -0.217 A  
HETATM   14  H   UNL     1     -11.158   8.167  72.073  1.00  0.00     0.000 HD 
HETATM   15  C   UNL     1     -10.568   9.519  68.427  1.00  0.00    -0.261 A  
HETATM   16  O   UNL     1     -10.279   7.686  69.910  1.00  0.00    -0.205 OA 
HETATM   17  H   UNL     1      -9.860   7.200  69.209  1.00  0.00     0.000 HD 
HETATM   18  C   UNL     1     -11.019  10.822  68.201  1.00  0.00    -0.308 A  
ENDBRANCH   6   9
ENDBRANCH   2   6
TORSDOF 2
ENDMDL
MODEL      131
REMARK 921   NORMALIZED FREE ENERGY PREDICTED BY IDOCK:   -3.67 KCAL/MOL
REMARK 922        TOTAL FREE ENERGY PREDICTED BY IDOCK:   -4.30 KCAL/MOL
REMARK 923 INTER-LIGAND FREE ENERGY PREDICTED BY IDOCK:   -4.11 KCAL/MOL
REMARK 924 INTRA-LIGAND FREE ENERGY PREDICTED BY IDOCK:   -0.19 KCAL/MOL
REMARK 927      BINDING AFFINITY PREDICTED BY RF-SCORE:    0.00 PKD
ROOT
HETATM    1  C   UNL     1     -12.037  13.818  70.305  1.00  0.00    -0.425 C  
HETATM    2  C   UNL     1     -11.239  15.004  69.752  1.00  0.00    -0.277 C  
HETATM    3  N   UNL     1     -11.532  16.189  70.586  1.00  0.00    -0.458 NA 
HETATM    4  H1  UNL     1     -11.001  16.978  70.218  1.00  0.00     0.000 HD 
HETATM    5  H2  UNL     1     -11.357  16.025  71.577  1.00  0.00     0.000 HD 
ENDROOT
BRANCH   2   6
HETATM    6  C   UNL     1     -11.553  15.318  68.258  1.00  0.00    -0.341 C  
HETATM    7  H   UNL     1     -12.175  14.316  66.676  1.00  0.00     0.000 HD 
HETATM    8  O   UNL     1     -11.983  14.125  67.586  1.00  0.00    -0.377 OA 
BRANCH   6   9
HETATM    9  C   UNL     1     -10.385  15.942  67.517  1.00  0.00    -0.283 A  
HETATM   10  C   UNL     1      -9.159  15.264  67.375  1.00  0.00    -0.201 A  
HETATM   11  C   UNL     1      -8.095  15.885  66.728  1.00  0.00    -0.266 A  
HETATM   12  O   UNL     1      -6.882  15.270  66.582  1.00  0.00    -0.154 OA 
HETATM   13  C   UNL     1      -8.236  17.170  66.215  1.00  0.00    -0.271 A  
HETATM   14  H   UNL     1      -6.156  15.694  66.141  1.00  0.00     0.000 HD 
HETATM   15  C   UNL     1      -9.436  17.854  66.335  1.00  0.00    -0.278 A  
HETATM   16  O   UNL     1      -7.182  17.773  65.590  1.00  0.00    -0.494 OA 
HETATM   17  H   UNL     1      -7.279  18.651  65.240  1.00  0.00     0.000 HD 
HETATM   18  C   UNL     1     -10.509  17.241  66.989  1.00  0.00    -0.287 A  
ENDBRANCH   6   9
ENDBRANCH   2   6
TORSDOF 2
ENDMDL
MODEL      132
REMARK 921   NORMALIZED FREE ENERGY PREDICTED BY IDOCK:   -3.63 KCAL/MOL
REMARK 922        TOTAL FREE ENERGY PREDICTED BY IDOCK:   -4.27 KCAL/MOL
REMARK 923 INTER-LIGAND FREE ENERGY PREDICTED BY IDOCK:   -4.08 KCAL/MOL
REMARK 924 INTRA-LIGAND FREE ENERGY PREDICTED BY IDOCK:   -0.18 KCAL/MOL
REMARK 927      BINDING AFFINITY PREDICTED BY RF-SCORE:    0.00 PKD
ROOT
HETATM    1  C   UNL     1      -9.182   9.455  65.908  1.00  0.00    -0.269 C  
HETATM    2  C   UNL     1     -10.122  10.656  65.761  1.00  0.00    -0.266 C  
HETATM    3  N   UNL     1     -10.606  10.698  64.365  1.00  0.00    -0.325 NA 
HETATM    4  H1  UNL     1     -11.232  11.497  64.267  1.00  0.00     0.000 HD 
HETATM    5  H2  UNL     1     -11.039   9.821  64.073  1.00  0.00     0.000 HD 
ENDROOT
BRANCH   2   6
HETATM    6  C   UNL     1      -9.453  12.015  66.130  1.00  0.00    -0.232 C  
HETATM    7  H   UNL     1      -7.725  12.615  66.869  1.00  0.00     0.000 HD 
HETATM    8  O   UNL     1      -8.133  11.787  66.645  1.00  0.00    -0.161 OA 
BRANCH   6   9
HETATM    9  C   UNL     1     -10.264  12.836  67.116  1.00  0.00    -0.235 A  
HETATM   10  C   UNL     1     -10.640  12.317  68.369  1.00  0.00    -0.250 A  
HETATM   11  C   UNL     1     -11.422  13.081  69.229  1.00  0.00    -0.289 A  
HETATM   12  O   UNL     1     -11.824  12.611  70.449  1.00  0.00    -0.516 OA 
HETATM   13  C   UNL     1     -11.830  14.359  68.861  1.00  0.00    -0.320 A  
HETATM   14  H   UNL     1     -12.357  13.132  71.036  1.00  0.00     0.000 HD 
HETATM   15  C   UNL     1     -11.465  14.895  67.636  1.00  0.00    -0.366 A  
HETATM   16  O   UNL     1     -12.604  15.098  69.710  1.00  0.00    -0.567 OA 
HETATM   17  H   UNL     1     -12.883  15.970  69.458  1.00  0.00     0.000 HD 
HETATM   18  C   UNL     1     -10.685  14.132  66.763  1.00  0.00    -0.286 A  
ENDBRANCH   6   9
ENDBRANCH   2   6
TORSDOF 2
ENDMDL
MODEL      133
REMARK 921   NORMALIZED FREE ENERGY PREDICTED BY IDOCK:   -3.63 KCAL/MOL
REMARK 922        TOTAL FREE ENERGY PREDICTED BY IDOCK:   -4.26 KCAL/MOL
REMARK 923 INTER-LIGAND FREE ENERGY PREDICTED BY IDOCK:   -4.23 KCAL/MOL
REMARK 924 INTRA-LIGAND FREE ENERGY PREDICTED BY IDOCK:   -0.04 KCAL/MOL
REMARK 927      BINDING AFFINITY PREDICTED BY RF-SCORE:    0.00 PKD
ROOT
HETATM    1  C   UNL     1      -6.374   8.988  63.358  1.00  0.00    -0.089 C  
HETATM    2  C   UNL     1      -7.682   9.784  63.346  1.00  0.00    -0.137 C  
HETATM    3  N   UNL     1      -7.466  11.019  62.563  1.00  0.00    -0.393 NA 
HETATM    4  H1  UNL     1      -8.338  11.549  62.555  1.00  0.00     0.000 HD 
HETATM    5  H2  UNL     1      -7.110  10.833  61.625  1.00  0.00     0.000 HD 
ENDROOT
BRANCH   2   6
HETATM    6  C   UNL     1      -8.201  10.145  64.771  1.00  0.00    -0.161 C  
HETATM    7  H   UNL     1      -8.742   9.167  66.397  1.00  0.00     0.000 HD 
HETATM    8  O   UNL     1      -8.427   8.947  65.529  1.00  0.00    -0.140 OA 
BRANCH   6   9
HETATM    9  C   UNL     1      -9.457  10.998  64.756  1.00  0.00    -0.267 A  
HETATM   10  C   UNL     1     -10.488  10.769  63.826  1.00  0.00    -0.218 A  
HETATM   11  C   UNL     1     -11.605  11.598  63.811  1.00  0.00    -0.332 A  
HETATM   12  O   UNL     1     -12.622  11.422  62.915  1.00  0.00    -0.970 OA 
HETATM   13  C   UNL     1     -11.712  12.650  64.715  1.00  0.00    -0.352 A  
HETATM   14  H   UNL     1     -13.385  11.988  62.905  1.00  0.00     0.000 HD 
HETATM   15  C   UNL     1     -10.713  12.890  65.645  1.00  0.00    -0.295 A  
HETATM   16  O   UNL     1     -12.809  13.464  64.686  1.00  0.00    -0.668 OA 
HETATM   17  H   UNL     1     -12.882  14.182  65.303  1.00  0.00     0.000 HD 
HETATM   18  C   UNL     1      -9.585  12.066  65.663  1.00  0.00    -0.205 A  
ENDBRANCH   6   9
ENDBRANCH   2   6
TORSDOF 2
ENDMDL
MODEL      134
REMARK 921   NORMALIZED FREE ENERGY PREDICTED BY IDOCK:   -3.62 KCAL/MOL
REMARK 922        TOTAL FREE ENERGY PREDICTED BY IDOCK:   -4.25 KCAL/MOL
REMARK 923 INTER-LIGAND FREE ENERGY PREDICTED BY IDOCK:   -5.03 KCAL/MOL
REMARK 924 INTRA-LIGAND FREE ENERGY PREDICTED BY IDOCK:    0.78 KCAL/MOL
REMARK 927      BINDING AFFINITY PREDICTED BY RF-SCORE:    0.00 PKD
ROOT
HETATM    1  C   UNL     1      -7.477  14.100  68.107  1.00  0.00    -0.129 C  
HETATM    2  C   UNL     1      -8.571  13.284  67.410  1.00  0.00    -0.204 C  
HETATM    3  N   UNL     1      -7.923  12.358  66.457  1.00  0.00    -0.383 NA 
HETATM    4  H1  UNL     1      -8.651  11.815  65.994  1.00  0.00     0.000 HD 
HETATM    5  H2  UNL     1      -7.216  11.771  66.900  1.00  0.00     0.000 HD 
ENDROOT
BRANCH   2   6
HETATM    6  C   UNL     1      -9.618  14.165  66.662  1.00  0.00    -0.289 C  
HETATM    7  H   UNL     1     -11.155  15.301  67.152  1.00  0.00     0.000 HD 
HETATM    8  O   UNL     1     -10.517  14.765  67.607  1.00  0.00    -0.250 OA 
BRANCH   6   9
HETATM    9  C   UNL     1     -10.401  13.403  65.608  1.00  0.00    -0.295 A  
HETATM   10  C   UNL     1     -11.182  14.071  64.647  1.00  0.00    -0.377 A  
HETATM   11  C   UNL     1     -11.922  13.339  63.724  1.00  0.00    -0.491 A  
HETATM   12  O   UNL     1     -12.707  13.947  62.784  1.00  0.00    -0.720 OA 
HETATM   13  C   UNL     1     -11.890  11.949  63.741  1.00  0.00    -0.458 A  
HETATM   14  H   UNL     1     -13.212  13.448  62.153  1.00  0.00     0.000 HD 
HETATM   15  C   UNL     1     -11.121  11.268  64.672  1.00  0.00    -0.223 A  
HETATM   16  O   UNL     1     -12.627  11.240  62.835  1.00  0.00    -0.917 OA 
HETATM   17  H   UNL     1     -12.605  10.290  62.847  1.00  0.00     0.000 HD 
HETATM   18  C   UNL     1     -10.380  11.995  65.608  1.00  0.00    -0.288 A  
ENDBRANCH   6   9
ENDBRANCH   2   6
TORSDOF 2
ENDMDL
MODEL      135
REMARK 921   NORMALIZED FREE ENERGY PREDICTED BY IDOCK:   -3.61 KCAL/MOL
REMARK 922        TOTAL FREE ENERGY PREDICTED BY IDOCK:   -4.24 KCAL/MOL
REMARK 923 INTER-LIGAND FREE ENERGY PREDICTED BY IDOCK:   -4.05 KCAL/MOL
REMARK 924 INTRA-LIGAND FREE ENERGY PREDICTED BY IDOCK:   -0.19 KCAL/MOL
REMARK 927      BINDING AFFINITY PREDICTED BY RF-SCORE:    0.00 PKD
ROOT
HETATM    1  C   UNL     1     -11.124  15.105  66.434  1.00  0.00    -0.312 C  
HETATM    2  C   UNL     1     -10.529  16.406  65.885  1.00  0.00    -0.337 C  
HETATM    3  N   UNL     1     -11.086  16.637  64.535  1.00  0.00    -1.105 NA 
HETATM    4  H1  UNL     1     -10.691  17.503  64.170  1.00  0.00     0.000 HD 
HETATM    5  H2  UNL     1     -12.107  16.636  64.526  1.00  0.00     0.000 HD 
ENDROOT
BRANCH   2   6
HETATM    6  C   UNL     1      -8.971  16.395  65.819  1.00  0.00     0.000 C  
HETATM    7  H   UNL     1      -7.518  15.157  66.316  1.00  0.00     0.000 HD 
HETATM    8  O   UNL     1      -8.467  15.164  66.356  1.00  0.00    -0.198 OA 
BRANCH   6   9
HETATM    9  C   UNL     1      -8.332  17.575  66.528  1.00  0.00    -0.304 A  
HETATM   10  C   UNL     1      -7.322  18.340  65.916  1.00  0.00    -0.237 A  
HETATM   11  C   UNL     1      -6.727  19.387  66.613  1.00  0.00    -0.193 A  
HETATM   12  O   UNL     1      -5.731  20.146  66.063  1.00  0.00    -0.168 OA 
HETATM   13  C   UNL     1      -7.129  19.687  67.910  1.00  0.00    -0.266 A  
HETATM   14  H   UNL     1      -5.325  20.861  66.538  1.00  0.00     0.000 HD 
HETATM   15  C   UNL     1      -8.127  18.953  68.531  1.00  0.00    -0.383 A  
HETATM   16  O   UNL     1      -6.532  20.711  68.588  1.00  0.00    -0.296 OA 
HETATM   17  H   UNL     1      -6.806  20.916  69.474  1.00  0.00     0.000 HD 
HETATM   18  C   UNL     1      -8.727  17.896  67.841  1.00  0.00    -0.252 A  
ENDBRANCH   6   9
ENDBRANCH   2   6
TORSDOF 2
ENDMDL
MODEL      136
REMARK 921   NORMALIZED FREE ENERGY PREDICTED BY IDOCK:   -3.59 KCAL/MOL
REMARK 922        TOTAL FREE ENERGY PREDICTED BY IDOCK:   -4.22 KCAL/MOL
REMARK 923 INTER-LIGAND FREE ENERGY PREDICTED BY IDOCK:   -4.32 KCAL/MOL
REMARK 924 INTRA-LIGAND FREE ENERGY PREDICTED BY IDOCK:    0.10 KCAL/MOL
REMARK 927      BINDING AFFINITY PREDICTED BY RF-SCORE:    0.00 PKD
ROOT
HETATM    1  C   UNL     1     -10.639  19.035  67.662  1.00  0.00    -0.526 C  
HETATM    2  C   UNL     1      -9.270  19.382  67.070  1.00  0.00    -0.318 C  
HETATM    3  N   UNL     1      -9.484  20.093  65.791  1.00  0.00    -0.508 NA 
HETATM    4  H1  UNL     1      -8.572  20.324  65.397  1.00  0.00     0.000 HD 
HETATM    5  H2  UNL     1     -10.087  20.910  65.893  1.00  0.00     0.000 HD 
ENDROOT
BRANCH   2   6
HETATM    6  C   UNL     1      -8.363  18.136  66.836  1.00  0.00    -0.245 C  
HETATM    7  H   UNL     1      -7.187  17.460  65.403  1.00  0.00     0.000 HD 
HETATM    8  O   UNL     1      -7.739  18.219  65.546  1.00  0.00    -0.498 OA 
BRANCH   6   9
HETATM    9  C   UNL     1      -9.104  16.819  66.974  1.00  0.00    -0.239 A  
HETATM   10  C   UNL     1      -9.702  16.193  65.864  1.00  0.00    -0.374 A  
HETATM   11  C   UNL     1     -10.413  15.009  66.035  1.00  0.00    -0.315 A  
HETATM   12  O   UNL     1     -11.023  14.376  64.988  1.00  0.00    -0.345 OA 
HETATM   13  C   UNL     1     -10.531  14.436  67.297  1.00  0.00    -0.269 A  
HETATM   14  H   UNL     1     -11.508  13.568  65.104  1.00  0.00     0.000 HD 
HETATM   15  C   UNL     1      -9.944  15.029  68.403  1.00  0.00    -0.225 A  
HETATM   16  O   UNL     1     -11.238  13.278  67.455  1.00  0.00    -0.262 OA 
HETATM   17  H   UNL     1     -11.319  12.887  68.317  1.00  0.00     0.000 HD 
HETATM   18  C   UNL     1      -9.234  16.222  68.242  1.00  0.00    -0.197 A  
ENDBRANCH   6   9
ENDBRANCH   2   6
TORSDOF 2
ENDMDL
MODEL      137
REMARK 921   NORMALIZED FREE ENERGY PREDICTED BY IDOCK:   -3.59 KCAL/MOL
REMARK 922        TOTAL FREE ENERGY PREDICTED BY IDOCK:   -4.22 KCAL/MOL
REMARK 923 INTER-LIGAND FREE ENERGY PREDICTED BY IDOCK:   -4.18 KCAL/MOL
REMARK 924 INTRA-LIGAND FREE ENERGY PREDICTED BY IDOCK:   -0.04 KCAL/MOL
REMARK 927      BINDING AFFINITY PREDICTED BY RF-SCORE:    0.00 PKD
ROOT
HETATM    1  C   UNL     1     -12.326  15.427  70.866  1.00  0.00    -0.452 C  
HETATM    2  C   UNL     1     -12.387  14.268  69.865  1.00  0.00    -0.324 C  
HETATM    3  N   UNL     1     -11.676  13.112  70.450  1.00  0.00    -0.545 NA 
HETATM    4  H1  UNL     1     -11.717  12.341  69.784  1.00  0.00     0.000 HD 
HETATM    5  H2  UNL     1     -12.035  12.855  71.370  1.00  0.00     0.000 HD 
ENDROOT
BRANCH   2   6
HETATM    6  C   UNL     1     -11.772  14.619  68.475  1.00  0.00    -0.316 C  
HETATM    7  H   UNL     1     -10.939  13.636  66.981  1.00  0.00     0.000 HD 
HETATM    8  O   UNL     1     -11.313  13.423  67.827  1.00  0.00    -0.266 OA 
BRANCH   6   9
HETATM    9  C   UNL     1     -10.646  15.634  68.555  1.00  0.00    -0.256 A  
HETATM   10  C   UNL     1     -10.856  16.989  68.238  1.00  0.00    -0.341 A  
HETATM   11  C   UNL     1      -9.791  17.884  68.279  1.00  0.00    -0.348 A  
HETATM   12  O   UNL     1      -9.947  19.205  67.964  1.00  0.00    -0.335 OA 
HETATM   13  C   UNL     1      -8.520  17.448  68.637  1.00  0.00    -0.257 A  
HETATM   14  H   UNL     1      -9.220  19.816  67.992  1.00  0.00     0.000 HD 
HETATM   15  C   UNL     1      -8.291  16.120  68.961  1.00  0.00    -0.247 A  
HETATM   16  O   UNL     1      -7.480  18.333  68.666  1.00  0.00    -0.281 OA 
HETATM   17  H   UNL     1      -6.612  18.035  68.910  1.00  0.00     0.000 HD 
HETATM   18  C   UNL     1      -9.353  15.213  68.917  1.00  0.00    -0.207 A  
ENDBRANCH   6   9
ENDBRANCH   2   6
TORSDOF 2
ENDMDL
MODEL      138
REMARK 921   NORMALIZED FREE ENERGY PREDICTED BY IDOCK:   -3.59 KCAL/MOL
REMARK 922        TOTAL FREE ENERGY PREDICTED BY IDOCK:   -4.21 KCAL/MOL
REMARK 923 INTER-LIGAND FREE ENERGY PREDICTED BY IDOCK:   -4.26 KCAL/MOL
REMARK 924 INTRA-LIGAND FREE ENERGY PREDICTED BY IDOCK:    0.04 KCAL/MOL
REMARK 927      BINDING AFFINITY PREDICTED BY RF-SCORE:    0.00 PKD
ROOT
HETATM    1  C   UNL     1     -11.723   6.513  72.064  1.00  0.00    -0.367 C  
HETATM    2  C   UNL     1     -10.396   6.783  72.780  1.00  0.00    -0.209 C  
HETATM    3  N   UNL     1     -10.695   7.326  74.122  1.00  0.00    -0.511 NA 
HETATM    4  H1  UNL     1      -9.811   7.506  74.598  1.00  0.00     0.000 HD 
HETATM    5  H2  UNL     1     -11.316   6.723  74.660  1.00  0.00     0.000 HD 
ENDROOT
BRANCH   2   6
HETATM    6  C   UNL     1      -9.464   7.765  72.007  1.00  0.00    -0.163 C  
HETATM    7  H   UNL     1      -8.192   9.202  72.463  1.00  0.00     0.000 HD 
HETATM    8  O   UNL     1      -8.759   8.604  72.934  1.00  0.00    -0.384 OA 
BRANCH   6   9
HETATM    9  C   UNL     1     -10.201   8.616  70.988  1.00  0.00    -0.278 A  
HETATM   10  C   UNL     1     -10.001   8.444  69.606  1.00  0.00    -0.193 A  
HETATM   11  C   UNL     1     -10.659   9.272  68.702  1.00  0.00    -0.187 A  
HETATM   12  O   UNL     1     -10.482   9.151  67.352  1.00  0.00    -0.249 OA 
HETATM   13  C   UNL     1     -11.520  10.266  69.157  1.00  0.00    -0.147 A  
HETATM   14  H   UNL     1     -10.932   9.716  66.735  1.00  0.00     0.000 HD 
HETATM   15  C   UNL     1     -11.739  10.449  70.513  1.00  0.00    -0.434 A  
HETATM   16  O   UNL     1     -12.154  11.079  68.261  1.00  0.00    -0.737 OA 
HETATM   17  H   UNL     1     -12.742  11.758  68.572  1.00  0.00     0.000 HD 
HETATM   18  C   UNL     1     -11.077   9.626  71.428  1.00  0.00    -0.397 A  
ENDBRANCH   6   9
ENDBRANCH   2   6
TORSDOF 2
ENDMDL
MODEL      139
REMARK 921   NORMALIZED FREE ENERGY PREDICTED BY IDOCK:   -3.58 KCAL/MOL
REMARK 922        TOTAL FREE ENERGY PREDICTED BY IDOCK:   -4.21 KCAL/MOL
REMARK 923 INTER-LIGAND FREE ENERGY PREDICTED BY IDOCK:   -4.04 KCAL/MOL
REMARK 924 INTRA-LIGAND FREE ENERGY PREDICTED BY IDOCK:   -0.17 KCAL/MOL
REMARK 927      BINDING AFFINITY PREDICTED BY RF-SCORE:    0.00 PKD
ROOT
HETATM    1  C   UNL     1     -12.139  13.102  63.305  1.00  0.00    -0.460 C  
HETATM    2  C   UNL     1     -10.896  13.134  64.201  1.00  0.00    -0.380 C  
HETATM    3  N   UNL     1      -9.743  12.651  63.412  1.00  0.00    -0.576 NA 
HETATM    4  H1  UNL     1      -8.916  12.673  64.008  1.00  0.00     0.000 HD 
HETATM    5  H2  UNL     1      -9.616  13.172  62.544  1.00  0.00     0.000 HD 
ENDROOT
BRANCH   2   6
HETATM    6  C   UNL     1     -11.045  12.279  65.497  1.00  0.00    -0.307 C  
HETATM    7  H   UNL     1     -12.485  11.836  66.771  1.00  0.00     0.000 HD 
HETATM    8  O   UNL     1     -12.394  12.356  65.982  1.00  0.00    -0.627 OA 
BRANCH   6   9
HETATM    9  C   UNL     1     -10.073  12.675  66.593  1.00  0.00    -0.248 A  
HETATM   10  C   UNL     1      -9.644  11.751  67.563  1.00  0.00    -0.179 A  
HETATM   11  C   UNL     1      -8.787  12.160  68.580  1.00  0.00    -0.079 A  
HETATM   12  O   UNL     1      -8.359  11.300  69.552  1.00  0.00    -0.345 OA 
HETATM   13  C   UNL     1      -8.345  13.478  68.640  1.00  0.00    -0.024 A  
HETATM   14  H   UNL     1      -7.773  11.579  70.246  1.00  0.00     0.000 HD 
HETATM   15  C   UNL     1      -8.748  14.404  67.691  1.00  0.00    -0.191 A  
HETATM   16  O   UNL     1      -7.511  13.872  69.647  1.00  0.00    -0.327 OA 
HETATM   17  H   UNL     1      -7.210  14.771  69.688  1.00  0.00     0.000 HD 
HETATM   18  C   UNL     1      -9.613  14.004  66.669  1.00  0.00    -0.299 A  
ENDBRANCH   6   9
ENDBRANCH   2   6
TORSDOF 2
ENDMDL
MODEL      140
REMARK 921   NORMALIZED FREE ENERGY PREDICTED BY IDOCK:   -3.58 KCAL/MOL
REMARK 922        TOTAL FREE ENERGY PREDICTED BY IDOCK:   -4.21 KCAL/MOL
REMARK 923 INTER-LIGAND FREE ENERGY PREDICTED BY IDOCK:   -4.15 KCAL/MOL
REMARK 924 INTRA-LIGAND FREE ENERGY PREDICTED BY IDOCK:   -0.06 KCAL/MOL
REMARK 927      BINDING AFFINITY PREDICTED BY RF-SCORE:    0.00 PKD
ROOT
HETATM    1  C   UNL     1     -11.958  14.795  64.391  1.00  0.00    -0.433 C  
HETATM    2  C   UNL     1     -11.422  13.361  64.348  1.00  0.00    -0.384 C  
HETATM    3  N   UNL     1     -11.884  12.730  63.093  1.00  0.00    -0.815 NA 
HETATM    4  H1  UNL     1     -11.527  11.775  63.065  1.00  0.00     0.000 HD 
HETATM    5  H2  UNL     1     -11.630  13.270  62.266  1.00  0.00     0.000 HD 
ENDROOT
BRANCH   2   6
HETATM    6  C   UNL     1     -11.866  12.497  65.568  1.00  0.00    -0.439 C  
HETATM    7  H   UNL     1     -12.386  12.817  67.444  1.00  0.00     0.000 HD 
HETATM    8  O   UNL     1     -12.115  13.343  66.701  1.00  0.00    -0.391 OA 
BRANCH   6   9
HETATM    9  C   UNL     1     -10.867  11.415  65.934  1.00  0.00    -0.292 A  
HETATM   10  C   UNL     1      -9.768  11.121  65.106  1.00  0.00    -0.296 A  
HETATM   11  C   UNL     1      -8.897  10.091  65.450  1.00  0.00    -0.173 A  
HETATM   12  O   UNL     1      -7.826   9.761  64.667  1.00  0.00    -0.123 OA 
HETATM   13  C   UNL     1      -9.102   9.355  66.612  1.00  0.00    -0.149 A  
HETATM   14  H   UNL     1      -7.231   9.058  64.902  1.00  0.00     0.000 HD 
HETATM   15  C   UNL     1     -10.173   9.632  67.447  1.00  0.00    -0.283 A  
HETATM   16  O   UNL     1      -8.246   8.341  66.936  1.00  0.00    -0.102 OA 
HETATM   17  H   UNL     1      -8.387   7.838  67.729  1.00  0.00     0.000 HD 
HETATM   18  C   UNL     1     -11.056  10.660  67.107  1.00  0.00    -0.267 A  
ENDBRANCH   6   9
ENDBRANCH   2   6
TORSDOF 2
ENDMDL
MODEL      141
REMARK 921   NORMALIZED FREE ENERGY PREDICTED BY IDOCK:   -3.57 KCAL/MOL
REMARK 922        TOTAL FREE ENERGY PREDICTED BY IDOCK:   -4.19 KCAL/MOL
REMARK 923 INTER-LIGAND FREE ENERGY PREDICTED BY IDOCK:   -3.95 KCAL/MOL
REMARK 924 INTRA-LIGAND FREE ENERGY PREDICTED BY IDOCK:   -0.24 KCAL/MOL
REMARK 927      BINDING AFFINITY PREDICTED BY RF-SCORE:    0.00 PKD
ROOT
HETATM    1  C   UNL     1     -10.505   5.741  71.865  1.00  0.00    -0.272 C  
HETATM    2  C   UNL     1      -9.765   6.850  72.619  1.00  0.00    -0.149 C  
HETATM    3  N   UNL     1      -9.537   6.396  74.007  1.00  0.00    -0.183 NA 
HETATM    4  H1  UNL     1      -9.044   7.135  74.508  1.00  0.00     0.000 HD 
HETATM    5  H2  UNL     1      -9.052   5.499  74.052  1.00  0.00     0.000 HD 
ENDROOT
BRANCH   2   6
HETATM    6  C   UNL     1     -10.528   8.210  72.626  1.00  0.00    -0.330 C  
HETATM    7  H   UNL     1     -12.396   8.810  72.831  1.00  0.00     0.000 HD 
HETATM    8  O   UNL     1     -11.931   7.983  72.826  1.00  0.00    -0.337 OA 
BRANCH   6   9
HETATM    9  C   UNL     1     -10.307   9.030  71.368  1.00  0.00    -0.396 A  
HETATM   10  C   UNL     1     -11.385   9.580  70.650  1.00  0.00    -0.364 A  
HETATM   11  C   UNL     1     -11.147  10.289  69.477  1.00  0.00    -0.262 A  
HETATM   12  O   UNL     1     -12.166  10.826  68.740  1.00  0.00    -0.783 OA 
HETATM   13  C   UNL     1      -9.848  10.462  69.011  1.00  0.00    -0.212 A  
HETATM   14  H   UNL     1     -12.004  11.310  67.939  1.00  0.00     0.000 HD 
HETATM   15  C   UNL     1      -8.770   9.937  69.705  1.00  0.00    -0.218 A  
HETATM   16  O   UNL     1      -9.627  11.152  67.853  1.00  0.00    -0.167 OA 
HETATM   17  H   UNL     1      -8.740  11.270  67.535  1.00  0.00     0.000 HD 
HETATM   18  C   UNL     1      -8.999   9.218  70.881  1.00  0.00    -0.273 A  
ENDBRANCH   6   9
ENDBRANCH   2   6
TORSDOF 2
ENDMDL
MODEL      142
REMARK 921   NORMALIZED FREE ENERGY PREDICTED BY IDOCK:   -3.56 KCAL/MOL
REMARK 922        TOTAL FREE ENERGY PREDICTED BY IDOCK:   -4.18 KCAL/MOL
REMARK 923 INTER-LIGAND FREE ENERGY PREDICTED BY IDOCK:   -4.64 KCAL/MOL
REMARK 924 INTRA-LIGAND FREE ENERGY PREDICTED BY IDOCK:    0.46 KCAL/MOL
REMARK 927      BINDING AFFINITY PREDICTED BY RF-SCORE:    0.00 PKD
ROOT
HETATM    1  C   UNL     1     -12.000  13.684  64.304  1.00  0.00    -0.488 C  
HETATM    2  C   UNL     1     -10.723  14.465  64.630  1.00  0.00    -0.336 C  
HETATM    3  N   UNL     1      -9.828  13.586  65.411  1.00  0.00    -0.518 NA 
HETATM    4  H1  UNL     1      -8.978  14.106  65.628  1.00  0.00     0.000 HD 
HETATM    5  H2  UNL     1      -9.638  12.701  64.940  1.00  0.00     0.000 HD 
ENDROOT
BRANCH   2   6
HETATM    6  C   UNL     1     -10.989  15.784  65.419  1.00  0.00    -0.309 C  
HETATM    7  H   UNL     1     -11.187  17.700  64.993  1.00  0.00     0.000 HD 
HETATM    8  O   UNL     1     -11.025  16.898  64.513  1.00  0.00    -0.989 OA 
BRANCH   6   9
HETATM    9  C   UNL     1      -9.977  16.040  66.521  1.00  0.00    -0.293 A  
HETATM   10  C   UNL     1      -9.929  15.235  67.674  1.00  0.00    -0.222 A  
HETATM   11  C   UNL     1      -9.018  15.526  68.685  1.00  0.00    -0.194 A  
HETATM   12  O   UNL     1      -8.947  14.781  69.829  1.00  0.00    -0.415 OA 
HETATM   13  C   UNL     1      -8.149  16.605  68.559  1.00  0.00    -0.226 A  
HETATM   14  H   UNL     1      -8.325  14.979  70.519  1.00  0.00     0.000 HD 
HETATM   15  C   UNL     1      -8.172  17.407  67.429  1.00  0.00    -0.212 A  
HETATM   16  O   UNL     1      -7.264  16.887  69.561  1.00  0.00    -0.160 OA 
HETATM   17  H   UNL     1      -6.671  17.624  69.475  1.00  0.00     0.000 HD 
HETATM   18  C   UNL     1      -9.088  17.126  66.411  1.00  0.00    -0.285 A  
ENDBRANCH   6   9
ENDBRANCH   2   6
TORSDOF 2
ENDMDL
MODEL      143
REMARK 921   NORMALIZED FREE ENERGY PREDICTED BY IDOCK:   -3.54 KCAL/MOL
REMARK 922        TOTAL FREE ENERGY PREDICTED BY IDOCK:   -4.16 KCAL/MOL
REMARK 923 INTER-LIGAND FREE ENERGY PREDICTED BY IDOCK:   -3.98 KCAL/MOL
REMARK 924 INTRA-LIGAND FREE ENERGY PREDICTED BY IDOCK:   -0.19 KCAL/MOL
REMARK 927      BINDING AFFINITY PREDICTED BY RF-SCORE:    0.00 PKD
ROOT
HETATM    1  C   UNL     1      -9.508  10.811  68.296  1.00  0.00    -0.164 C  
HETATM    2  C   UNL     1     -10.187   9.519  68.763  1.00  0.00    -0.198 C  
HETATM    3  N   UNL     1     -10.806   8.870  67.589  1.00  0.00    -0.487 NA 
HETATM    4  H1  UNL     1     -11.258   8.010  67.900  1.00  0.00     0.000 HD 
HETATM    5  H2  UNL     1     -10.142   8.713  66.831  1.00  0.00     0.000 HD 
ENDROOT
BRANCH   2   6
HETATM    6  C   UNL     1     -11.262   9.750  69.869  1.00  0.00    -0.229 C  
HETATM    7  H   UNL     1     -11.776  11.207  71.095  1.00  0.00     0.000 HD 
HETATM    8  O   UNL     1     -11.121  11.066  70.423  1.00  0.00    -0.165 OA 
BRANCH   6   9
HETATM    9  C   UNL     1     -11.220   8.711  70.974  1.00  0.00    -0.321 A  
HETATM   10  C   UNL     1     -10.261   8.771  72.002  1.00  0.00    -0.401 A  
HETATM   11  C   UNL     1     -10.223   7.776  72.974  1.00  0.00    -0.330 A  
HETATM   12  O   UNL     1      -9.297   7.787  73.981  1.00  0.00    -0.384 OA 
HETATM   13  C   UNL     1     -11.132   6.724  72.941  1.00  0.00    -0.243 A  
HETATM   14  H   UNL     1      -9.271   7.108  74.645  1.00  0.00     0.000 HD 
HETATM   15  C   UNL     1     -12.091   6.648  71.943  1.00  0.00    -0.385 A  
HETATM   16  O   UNL     1     -11.081   5.749  73.895  1.00  0.00    -0.386 OA 
HETATM   17  H   UNL     1     -11.701   5.030  73.871  1.00  0.00     0.000 HD 
HETATM   18  C   UNL     1     -12.133   7.639  70.958  1.00  0.00    -0.282 A  
ENDBRANCH   6   9
ENDBRANCH   2   6
TORSDOF 2
ENDMDL
MODEL      144
REMARK 921   NORMALIZED FREE ENERGY PREDICTED BY IDOCK:   -3.54 KCAL/MOL
REMARK 922        TOTAL FREE ENERGY PREDICTED BY IDOCK:   -4.16 KCAL/MOL
REMARK 923 INTER-LIGAND FREE ENERGY PREDICTED BY IDOCK:   -3.96 KCAL/MOL
REMARK 924 INTRA-LIGAND FREE ENERGY PREDICTED BY IDOCK:   -0.20 KCAL/MOL
REMARK 927      BINDING AFFINITY PREDICTED BY RF-SCORE:    0.00 PKD
ROOT
HETATM    1  C   UNL     1     -11.212   7.377  72.982  1.00  0.00    -0.345 C  
HETATM    2  C   UNL     1     -11.912   7.452  71.621  1.00  0.00    -0.307 C  
HETATM    3  N   UNL     1     -13.364   7.276  71.836  1.00  0.00    -0.529 NA 
HETATM    4  H1  UNL     1     -13.829   7.326  70.930  1.00  0.00     0.000 HD 
HETATM    5  H2  UNL     1     -13.744   7.939  72.511  1.00  0.00     0.000 HD 
ENDROOT
BRANCH   2   6
HETATM    6  C   UNL     1     -11.396   6.392  70.600  1.00  0.00    -0.357 C  
HETATM    7  H   UNL     1     -10.004   4.995  70.556  1.00  0.00     0.000 HD 
HETATM    8  O   UNL     1     -10.318   5.641  71.178  1.00  0.00    -0.213 OA 
BRANCH   6   9
HETATM    9  C   UNL     1     -10.962   6.995  69.276  1.00  0.00    -0.211 A  
HETATM   10  C   UNL     1     -10.707   8.372  69.145  1.00  0.00    -0.123 A  
HETATM   11  C   UNL     1     -10.355   8.897  67.905  1.00  0.00    -0.230 A  
HETATM   12  O   UNL     1     -10.114  10.231  67.729  1.00  0.00    -0.167 OA 
HETATM   13  C   UNL     1     -10.248   8.067  66.794  1.00  0.00    -0.297 A  
HETATM   14  H   UNL     1      -9.874  10.590  66.882  1.00  0.00     0.000 HD 
HETATM   15  C   UNL     1     -10.486   6.705  66.901  1.00  0.00    -0.349 A  
HETATM   16  O   UNL     1      -9.910   8.593  65.580  1.00  0.00    -0.443 OA 
HETATM   17  H   UNL     1      -9.837   8.026  64.822  1.00  0.00     0.000 HD 
HETATM   18  C   UNL     1     -10.846   6.170  68.141  1.00  0.00    -0.389 A  
ENDBRANCH   6   9
ENDBRANCH   2   6
TORSDOF 2
ENDMDL
MODEL      145
REMARK 921   NORMALIZED FREE ENERGY PREDICTED BY IDOCK:   -3.53 KCAL/MOL
REMARK 922        TOTAL FREE ENERGY PREDICTED BY IDOCK:   -4.16 KCAL/MOL
REMARK 923 INTER-LIGAND FREE ENERGY PREDICTED BY IDOCK:   -3.92 KCAL/MOL
REMARK 924 INTRA-LIGAND FREE ENERGY PREDICTED BY IDOCK:   -0.23 KCAL/MOL
REMARK 927      BINDING AFFINITY PREDICTED BY RF-SCORE:    0.00 PKD
ROOT
HETATM    1  C   UNL     1      -9.208  12.436  67.779  1.00  0.00    -0.193 C  
HETATM    2  C   UNL     1      -9.945  11.232  67.183  1.00  0.00    -0.192 C  
HETATM    3  N   UNL     1     -10.107  11.459  65.731  1.00  0.00    -0.235 NA 
HETATM    4  H1  UNL     1     -10.598  10.658  65.335  1.00  0.00     0.000 HD 
HETATM    5  H2  UNL     1      -9.222  11.650  65.262  1.00  0.00     0.000 HD 
ENDROOT
BRANCH   2   6
HETATM    6  C   UNL     1     -11.337  10.972  67.836  1.00  0.00    -0.311 C  
HETATM    7  H   UNL     1     -12.885  12.055  68.404  1.00  0.00     0.000 HD 
HETATM    8  O   UNL     1     -12.037  12.213  68.007  1.00  0.00    -0.478 OA 
BRANCH   6   9
HETATM    9  C   UNL     1     -11.251  10.235  69.161  1.00  0.00    -0.268 A  
HETATM   10  C   UNL     1     -10.387   9.138  69.335  1.00  0.00    -0.220 A  
HETATM   11  C   UNL     1     -10.367   8.458  70.549  1.00  0.00    -0.199 A  
HETATM   12  O   UNL     1      -9.556   7.377  70.757  1.00  0.00    -0.170 OA 
HETATM   13  C   UNL     1     -11.192   8.860  71.595  1.00  0.00    -0.345 A  
HETATM   14  H   UNL     1      -9.542   6.913  71.586  1.00  0.00     0.000 HD 
HETATM   15  C   UNL     1     -12.044   9.943  71.449  1.00  0.00    -0.501 A  
HETATM   16  O   UNL     1     -11.171   8.181  72.779  1.00  0.00    -0.389 OA 
HETATM   17  H   UNL     1     -11.734   8.455  73.493  1.00  0.00     0.000 HD 
HETATM   18  C   UNL     1     -12.076  10.628  70.231  1.00  0.00    -0.423 A  
ENDBRANCH   6   9
ENDBRANCH   2   6
TORSDOF 2
ENDMDL
MODEL      146
REMARK 921   NORMALIZED FREE ENERGY PREDICTED BY IDOCK:   -3.49 KCAL/MOL
REMARK 922        TOTAL FREE ENERGY PREDICTED BY IDOCK:   -4.11 KCAL/MOL
REMARK 923 INTER-LIGAND FREE ENERGY PREDICTED BY IDOCK:   -4.17 KCAL/MOL
REMARK 924 INTRA-LIGAND FREE ENERGY PREDICTED BY IDOCK:    0.06 KCAL/MOL
REMARK 927      BINDING AFFINITY PREDICTED BY RF-SCORE:    0.00 PKD
ROOT
HETATM    1  C   UNL     1      -8.289   8.991  66.377  1.00  0.00    -0.117 C  
HETATM    2  C   UNL     1      -8.788  10.176  65.545  1.00  0.00    -0.169 C  
HETATM    3  N   UNL     1      -8.137  11.404  66.049  1.00  0.00    -0.371 NA 
HETATM    4  H1  UNL     1      -8.469  12.193  65.495  1.00  0.00     0.000 HD 
HETATM    5  H2  UNL     1      -7.119  11.332  66.060  1.00  0.00     0.000 HD 
ENDROOT
BRANCH   2   6
HETATM    6  C   UNL     1     -10.338  10.348  65.578  1.00  0.00    -0.195 C  
HETATM    7  H   UNL     1     -11.718  11.188  64.446  1.00  0.00     0.000 HD 
HETATM    8  O   UNL     1     -10.774  11.083  64.426  1.00  0.00    -0.351 OA 
BRANCH   6   9
HETATM    9  C   UNL     1     -10.841  11.015  66.845  1.00  0.00    -0.324 A  
HETATM   10  C   UNL     1     -11.334  12.333  66.835  1.00  0.00    -0.392 A  
HETATM   11  C   UNL     1     -11.745  12.929  68.023  1.00  0.00    -0.356 A  
HETATM   12  O   UNL     1     -12.216  14.212  68.061  1.00  0.00    -0.541 OA 
HETATM   13  C   UNL     1     -11.677  12.228  69.222  1.00  0.00    -0.330 A  
HETATM   14  H   UNL     1     -12.497  14.619  68.872  1.00  0.00     0.000 HD 
HETATM   15  C   UNL     1     -11.202  10.926  69.256  1.00  0.00    -0.327 A  
HETATM   16  O   UNL     1     -12.075  12.825  70.384  1.00  0.00    -0.399 OA 
HETATM   17  H   UNL     1     -12.028  12.346  71.203  1.00  0.00     0.000 HD 
HETATM   18  C   UNL     1     -10.781  10.321  68.069  1.00  0.00    -0.299 A  
ENDBRANCH   6   9
ENDBRANCH   2   6
TORSDOF 2
ENDMDL
MODEL      147
REMARK 921   NORMALIZED FREE ENERGY PREDICTED BY IDOCK:   -3.47 KCAL/MOL
REMARK 922        TOTAL FREE ENERGY PREDICTED BY IDOCK:   -4.09 KCAL/MOL
REMARK 923 INTER-LIGAND FREE ENERGY PREDICTED BY IDOCK:   -3.88 KCAL/MOL
REMARK 924 INTRA-LIGAND FREE ENERGY PREDICTED BY IDOCK:   -0.21 KCAL/MOL
REMARK 927      BINDING AFFINITY PREDICTED BY RF-SCORE:    0.00 PKD
ROOT
HETATM    1  C   UNL     1     -11.034  14.495  64.856  1.00  0.00    -0.421 C  
HETATM    2  C   UNL     1     -10.608  13.025  64.805  1.00  0.00    -0.362 C  
HETATM    3  N   UNL     1     -10.744  12.551  63.411  1.00  0.00    -0.547 NA 
HETATM    4  H1  UNL     1     -10.460  11.572  63.377  1.00  0.00     0.000 HD 
HETATM    5  H2  UNL     1     -10.232  13.132  62.747  1.00  0.00     0.000 HD 
ENDROOT
BRANCH   2   6
HETATM    6  C   UNL     1     -11.433  12.107  65.758  1.00  0.00    -0.361 C  
HETATM    7  H   UNL     1     -13.102  12.246  66.801  1.00  0.00     0.000 HD 
HETATM    8  O   UNL     1     -12.600  12.805  66.221  1.00  0.00    -0.375 OA 
BRANCH   6   9
HETATM    9  C   UNL     1     -10.631  11.591  66.939  1.00  0.00    -0.284 A  
HETATM   10  C   UNL     1      -9.249  11.832  67.049  1.00  0.00    -0.187 A  
HETATM   11  C   UNL     1      -8.537  11.306  68.122  1.00  0.00    -0.150 A  
HETATM   12  O   UNL     1      -7.191  11.501  68.260  1.00  0.00    -0.074 OA 
HETATM   13  C   UNL     1      -9.184  10.547  69.092  1.00  0.00    -0.171 A  
HETATM   14  H   UNL     1      -6.704  11.142  68.992  1.00  0.00     0.000 HD 
HETATM   15  C   UNL     1     -10.546  10.303  69.009  1.00  0.00    -0.247 A  
HETATM   16  O   UNL     1      -8.474  10.027  70.136  1.00  0.00    -0.312 OA 
HETATM   17  H   UNL     1      -8.916   9.509  70.798  1.00  0.00     0.000 HD 
HETATM   18  C   UNL     1     -11.269  10.823  67.931  1.00  0.00    -0.386 A  
ENDBRANCH   6   9
ENDBRANCH   2   6
TORSDOF 2
ENDMDL
MODEL      148
REMARK 921   NORMALIZED FREE ENERGY PREDICTED BY IDOCK:   -3.45 KCAL/MOL
REMARK 922        TOTAL FREE ENERGY PREDICTED BY IDOCK:   -4.07 KCAL/MOL
REMARK 923 INTER-LIGAND FREE ENERGY PREDICTED BY IDOCK:   -4.11 KCAL/MOL
REMARK 924 INTRA-LIGAND FREE ENERGY PREDICTED BY IDOCK:    0.04 KCAL/MOL
REMARK 927      BINDING AFFINITY PREDICTED BY RF-SCORE:    0.00 PKD
ROOT
HETATM    1  C   UNL     1      -8.832  13.951  67.907  1.00  0.00    -0.184 C  
HETATM    2  C   UNL     1     -10.098  14.599  67.336  1.00  0.00    -0.232 C  
HETATM    3  N   UNL     1     -10.666  15.493  68.367  1.00  0.00    -0.254 NA 
HETATM    4  H1  UNL     1     -11.509  15.924  67.987  1.00  0.00     0.000 HD 
HETATM    5  H2  UNL     1      -9.992  16.179  68.706  1.00  0.00     0.000 HD 
ENDROOT
BRANCH   2   6
HETATM    6  C   UNL     1     -11.172  13.564  66.883  1.00  0.00    -0.311 C  
HETATM    7  H   UNL     1     -13.093  13.586  66.434  1.00  0.00     0.000 HD 
HETATM    8  O   UNL     1     -12.439  14.216  66.710  1.00  0.00    -0.396 OA 
BRANCH   6   9
HETATM    9  C   UNL     1     -11.314  12.390  67.834  1.00  0.00    -0.344 A  
HETATM   10  C   UNL     1     -10.971  11.082  67.443  1.00  0.00    -0.349 A  
HETATM   11  C   UNL     1     -11.157  10.023  68.326  1.00  0.00    -0.190 A  
HETATM   12  O   UNL     1     -10.852   8.735  67.982  1.00  0.00    -0.454 OA 
HETATM   13  C   UNL     1     -11.675  10.249  69.597  1.00  0.00    -0.160 A  
HETATM   14  H   UNL     1     -10.979   8.012  68.585  1.00  0.00     0.000 HD 
HETATM   15  C   UNL     1     -12.012  11.530  70.007  1.00  0.00    -0.435 A  
HETATM   16  O   UNL     1     -11.861   9.202  70.453  1.00  0.00    -0.450 OA 
HETATM   17  H   UNL     1     -12.215   9.356  71.321  1.00  0.00     0.000 HD 
HETATM   18  C   UNL     1     -11.835  12.599  69.125  1.00  0.00    -0.349 A  
ENDBRANCH   6   9
ENDBRANCH   2   6
TORSDOF 2
ENDMDL
MODEL      149
REMARK 921   NORMALIZED FREE ENERGY PREDICTED BY IDOCK:   -3.45 KCAL/MOL
REMARK 922        TOTAL FREE ENERGY PREDICTED BY IDOCK:   -4.06 KCAL/MOL
REMARK 923 INTER-LIGAND FREE ENERGY PREDICTED BY IDOCK:   -4.23 KCAL/MOL
REMARK 924 INTRA-LIGAND FREE ENERGY PREDICTED BY IDOCK:    0.17 KCAL/MOL
REMARK 927      BINDING AFFINITY PREDICTED BY RF-SCORE:    0.00 PKD
ROOT
HETATM    1  C   UNL     1      -8.677  18.425  68.058  1.00  0.00    -0.302 C  
HETATM    2  C   UNL     1      -9.880  17.602  67.585  1.00  0.00    -0.294 C  
HETATM    3  N   UNL     1     -10.204  16.610  68.633  1.00  0.00    -0.266 NA 
HETATM    4  H1  UNL     1     -11.004  16.063  68.317  1.00  0.00     0.000 HD 
HETATM    5  H2  UNL     1     -10.356  17.039  69.546  1.00  0.00     0.000 HD 
ENDROOT
BRANCH   2   6
HETATM    6  C   UNL     1      -9.637  16.876  66.227  1.00  0.00    -0.276 C  
HETATM    7  H   UNL     1     -10.274  17.050  64.368  1.00  0.00     0.000 HD 
HETATM    8  O   UNL     1     -10.422  17.492  65.195  1.00  0.00    -0.573 OA 
BRANCH   6   9
HETATM    9  C   UNL     1      -9.923  15.386  66.282  1.00  0.00    -0.308 A  
HETATM   10  C   UNL     1     -11.179  14.866  65.921  1.00  0.00    -0.328 A  
HETATM   11  C   UNL     1     -11.420  13.500  66.027  1.00  0.00    -0.325 A  
HETATM   12  O   UNL     1     -12.631  12.954  65.702  1.00  0.00    -0.555 OA 
HETATM   13  C   UNL     1     -10.424  12.643  66.482  1.00  0.00    -0.247 A  
HETATM   14  H   UNL     1     -12.796  12.021  65.774  1.00  0.00     0.000 HD 
HETATM   15  C   UNL     1      -9.176  13.131  66.836  1.00  0.00    -0.236 A  
HETATM   16  O   UNL     1     -10.674  11.304  66.590  1.00  0.00    -0.252 OA 
HETATM   17  H   UNL     1      -9.994  10.719  66.901  1.00  0.00     0.000 HD 
HETATM   18  C   UNL     1      -8.927  14.503  66.739  1.00  0.00    -0.270 A  
ENDBRANCH   6   9
ENDBRANCH   2   6
TORSDOF 2
ENDMDL
MODEL      150
REMARK 921   NORMALIZED FREE ENERGY PREDICTED BY IDOCK:   -3.44 KCAL/MOL
REMARK 922        TOTAL FREE ENERGY PREDICTED BY IDOCK:   -4.05 KCAL/MOL
REMARK 923 INTER-LIGAND FREE ENERGY PREDICTED BY IDOCK:   -3.84 KCAL/MOL
REMARK 924 INTRA-LIGAND FREE ENERGY PREDICTED BY IDOCK:   -0.21 KCAL/MOL
REMARK 927      BINDING AFFINITY PREDICTED BY RF-SCORE:    0.00 PKD
ROOT
HETATM    1  C   UNL     1     -10.337   7.405  67.548  1.00  0.00    -0.320 C  
HETATM    2  C   UNL     1      -9.504   8.676  67.737  1.00  0.00    -0.142 C  
HETATM    3  N   UNL     1      -8.111   8.279  68.029  1.00  0.00    -0.126 NA 
HETATM    4  H1  UNL     1      -7.556   9.126  68.155  1.00  0.00     0.000 HD 
HETATM    5  H2  UNL     1      -7.723   7.657  67.320  1.00  0.00     0.000 HD 
ENDROOT
BRANCH   2   6
HETATM    6  C   UNL     1     -10.039   9.604  68.871  1.00  0.00    -0.187 C  
HETATM    7  H   UNL     1     -11.265   9.439  70.407  1.00  0.00     0.000 HD 
HETATM    8  O   UNL     1     -10.940   8.874  69.717  1.00  0.00    -0.230 OA 
BRANCH   6   9
HETATM    9  C   UNL     1     -10.713  10.861  68.351  1.00  0.00    -0.240 A  
HETATM   10  C   UNL     1     -10.741  11.164  66.977  1.00  0.00    -0.316 A  
HETATM   11  C   UNL     1     -11.328  12.348  66.540  1.00  0.00    -0.340 A  
HETATM   12  O   UNL     1     -11.364  12.690  65.217  1.00  0.00    -0.297 OA 
HETATM   13  C   UNL     1     -11.894  13.231  67.454  1.00  0.00    -0.366 A  
HETATM   14  H   UNL     1     -11.765  13.498  64.919  1.00  0.00     0.000 HD 
HETATM   15  C   UNL     1     -11.885  12.950  68.811  1.00  0.00    -0.353 A  
HETATM   16  O   UNL     1     -12.460  14.394  67.016  1.00  0.00    -0.579 OA 
HETATM   17  H   UNL     1     -12.845  14.998  67.639  1.00  0.00     0.000 HD 
HETATM   18  C   UNL     1     -11.292  11.767  69.259  1.00  0.00    -0.348 A  
ENDBRANCH   6   9
ENDBRANCH   2   6
TORSDOF 2
ENDMDL
MODEL      151
REMARK 921   NORMALIZED FREE ENERGY PREDICTED BY IDOCK:   -3.44 KCAL/MOL
REMARK 922        TOTAL FREE ENERGY PREDICTED BY IDOCK:   -4.05 KCAL/MOL
REMARK 923 INTER-LIGAND FREE ENERGY PREDICTED BY IDOCK:   -4.13 KCAL/MOL
REMARK 924 INTRA-LIGAND FREE ENERGY PREDICTED BY IDOCK:    0.08 KCAL/MOL
REMARK 927      BINDING AFFINITY PREDICTED BY RF-SCORE:    0.00 PKD
ROOT
HETATM    1  C   UNL     1      -8.358  15.979  66.403  1.00  0.00    -0.344 C  
HETATM    2  C   UNL     1      -8.964  15.633  67.766  1.00  0.00    -0.176 C  
HETATM    3  N   UNL     1      -8.451  14.309  68.179  1.00  0.00    -0.158 NA 
HETATM    4  H1  UNL     1      -8.854  14.078  69.087  1.00  0.00     0.000 HD 
HETATM    5  H2  UNL     1      -7.432  14.265  68.178  1.00  0.00     0.000 HD 
ENDROOT
BRANCH   2   6
HETATM    6  C   UNL     1     -10.523  15.619  67.766  1.00  0.00    -0.273 C  
HETATM    7  H   UNL     1     -11.974  16.928  68.039  1.00  0.00     0.000 HD 
HETATM    8  O   UNL     1     -11.024  16.936  68.039  1.00  0.00    -0.354 OA 
BRANCH   6   9
HETATM    9  C   UNL     1     -11.116  14.621  68.744  1.00  0.00    -0.274 A  
HETATM   10  C   UNL     1     -11.423  13.304  68.354  1.00  0.00    -0.349 A  
HETATM   11  C   UNL     1     -12.007  12.430  69.265  1.00  0.00    -0.253 A  
HETATM   12  O   UNL     1     -12.336  11.147  68.924  1.00  0.00    -0.597 OA 
HETATM   13  C   UNL     1     -12.284  12.847  70.563  1.00  0.00    -0.314 A  
HETATM   14  H   UNL     1     -12.735  10.550  69.546  1.00  0.00     0.000 HD 
HETATM   15  C   UNL     1     -11.983  14.137  70.972  1.00  0.00    -0.351 A  
HETATM   16  O   UNL     1     -12.865  11.984  71.447  1.00  0.00    -0.381 OA 
HETATM   17  H   UNL     1     -13.055  12.269  72.332  1.00  0.00     0.000 HD 
HETATM   18  C   UNL     1     -11.402  15.024  70.062  1.00  0.00    -0.305 A  
ENDBRANCH   6   9
ENDBRANCH   2   6
TORSDOF 2
ENDMDL
MODEL      152
REMARK 921   NORMALIZED FREE ENERGY PREDICTED BY IDOCK:   -3.40 KCAL/MOL
REMARK 922        TOTAL FREE ENERGY PREDICTED BY IDOCK:   -4.01 KCAL/MOL
REMARK 923 INTER-LIGAND FREE ENERGY PREDICTED BY IDOCK:   -4.11 KCAL/MOL
REMARK 924 INTRA-LIGAND FREE ENERGY PREDICTED BY IDOCK:    0.11 KCAL/MOL
REMARK 927      BINDING AFFINITY PREDICTED BY RF-SCORE:    0.00 PKD
ROOT
HETATM    1  C   UNL     1      -8.045  16.789  66.350  1.00  0.00    -0.355 C  
HETATM    2  C   UNL     1      -8.579  17.268  67.703  1.00  0.00    -0.217 C  
HETATM    3  N   UNL     1      -7.964  16.443  68.764  1.00  0.00    -0.220 NA 
HETATM    4  H1  UNL     1      -8.319  16.763  69.664  1.00  0.00     0.000 HD 
HETATM    5  H2  UNL     1      -6.944  16.444  68.721  1.00  0.00     0.000 HD 
ENDROOT
BRANCH   2   6
HETATM    6  C   UNL     1     -10.133  17.200  67.815  1.00  0.00    -0.306 C  
HETATM    7  H   UNL     1     -11.515  17.832  69.072  1.00  0.00     0.000 HD 
HETATM    8  O   UNL     1     -10.569  17.874  69.005  1.00  0.00    -0.204 OA 
BRANCH   6   9
HETATM    9  C   UNL     1     -10.675  15.783  67.789  1.00  0.00    -0.307 A  
HETATM   10  C   UNL     1     -11.121  15.189  66.593  1.00  0.00    -0.308 A  
HETATM   11  C   UNL     1     -11.654  13.904  66.614  1.00  0.00    -0.374 A  
HETATM   12  O   UNL     1     -12.114  13.295  65.479  1.00  0.00    -0.384 OA 
HETATM   13  C   UNL     1     -11.744  13.199  67.810  1.00  0.00    -0.358 A  
HETATM   14  H   UNL     1     -12.478  12.418  65.493  1.00  0.00     0.000 HD 
HETATM   15  C   UNL     1     -11.304  13.760  68.998  1.00  0.00    -0.333 A  
HETATM   16  O   UNL     1     -12.277  11.941  67.820  1.00  0.00    -0.508 OA 
HETATM   17  H   UNL     1     -12.338  11.460  68.637  1.00  0.00     0.000 HD 
HETATM   18  C   UNL     1     -10.773  15.052  68.988  1.00  0.00    -0.239 A  
ENDBRANCH   6   9
ENDBRANCH   2   6
TORSDOF 2
ENDMDL
MODEL      153
REMARK 921   NORMALIZED FREE ENERGY PREDICTED BY IDOCK:   -3.40 KCAL/MOL
REMARK 922        TOTAL FREE ENERGY PREDICTED BY IDOCK:   -4.00 KCAL/MOL
REMARK 923 INTER-LIGAND FREE ENERGY PREDICTED BY IDOCK:   -4.09 KCAL/MOL
REMARK 924 INTRA-LIGAND FREE ENERGY PREDICTED BY IDOCK:    0.09 KCAL/MOL
REMARK 927      BINDING AFFINITY PREDICTED BY RF-SCORE:    0.00 PKD
ROOT
HETATM    1  C   UNL     1     -12.738  15.551  70.788  1.00  0.00    -0.511 C  
HETATM    2  C   UNL     1     -11.718  15.741  69.661  1.00  0.00    -0.355 C  
HETATM    3  N   UNL     1     -12.402  15.511  68.371  1.00  0.00    -0.373 NA 
HETATM    4  H1  UNL     1     -11.722  15.638  67.622  1.00  0.00     0.000 HD 
HETATM    5  H2  UNL     1     -13.229  16.098  68.256  1.00  0.00     0.000 HD 
ENDROOT
BRANCH   2   6
HETATM    6  C   UNL     1     -10.482  14.797  69.780  1.00  0.00    -0.065 C  
HETATM    7  H   UNL     1      -8.590  14.826  69.221  1.00  0.00     0.000 HD 
HETATM    8  O   UNL     1      -9.342  15.400  69.149  1.00  0.00    -0.213 OA 
BRANCH   6   9
HETATM    9  C   UNL     1     -10.725  13.414  69.205  1.00  0.00    -0.097 A  
HETATM   10  C   UNL     1     -11.702  12.555  69.745  1.00  0.00    -0.355 A  
HETATM   11  C   UNL     1     -11.867  11.277  69.221  1.00  0.00    -0.354 A  
HETATM   12  O   UNL     1     -12.791  10.405  69.725  1.00  0.00    -0.579 OA 
HETATM   13  C   UNL     1     -11.076  10.843  68.162  1.00  0.00    -0.280 A  
HETATM   14  H   UNL     1     -12.904   9.532  69.368  1.00  0.00     0.000 HD 
HETATM   15  C   UNL     1     -10.114  11.673  67.609  1.00  0.00    -0.204 A  
HETATM   16  O   UNL     1     -11.241   9.583  67.661  1.00  0.00    -0.472 OA 
HETATM   17  H   UNL     1     -10.701   9.287  66.938  1.00  0.00     0.000 HD 
HETATM   18  C   UNL     1      -9.937  12.957  68.132  1.00  0.00    -0.234 A  
ENDBRANCH   6   9
ENDBRANCH   2   6
TORSDOF 2
ENDMDL
MODEL      154
REMARK 921   NORMALIZED FREE ENERGY PREDICTED BY IDOCK:   -3.37 KCAL/MOL
REMARK 922        TOTAL FREE ENERGY PREDICTED BY IDOCK:   -3.97 KCAL/MOL
REMARK 923 INTER-LIGAND FREE ENERGY PREDICTED BY IDOCK:   -3.94 KCAL/MOL
REMARK 924 INTRA-LIGAND FREE ENERGY PREDICTED BY IDOCK:   -0.03 KCAL/MOL
REMARK 927      BINDING AFFINITY PREDICTED BY RF-SCORE:    0.00 PKD
ROOT
HETATM    1  C   UNL     1      -9.463  15.486  69.601  1.00  0.00    -0.244 C  
HETATM    2  C   UNL     1      -8.365  14.638  68.951  1.00  0.00    -0.142 C  
HETATM    3  N   UNL     1      -7.184  14.647  69.840  1.00  0.00    -0.375 NA 
HETATM    4  H1  UNL     1      -6.454  14.082  69.407  1.00  0.00     0.000 HD 
HETATM    5  H2  UNL     1      -7.405  14.344  70.789  1.00  0.00     0.000 HD 
ENDROOT
BRANCH   2   6
HETATM    6  C   UNL     1      -7.960  15.134  67.529  1.00  0.00    -0.174 C  
HETATM    7  H   UNL     1      -6.309  15.226  66.453  1.00  0.00     0.000 HD 
HETATM    8  O   UNL     1      -6.556  14.924  67.319  1.00  0.00    -0.297 OA 
BRANCH   6   9
HETATM    9  C   UNL     1      -8.314  16.588  67.276  1.00  0.00    -0.197 A  
HETATM   10  C   UNL     1      -9.431  16.948  66.500  1.00  0.00    -0.296 A  
HETATM   11  C   UNL     1      -9.700  18.290  66.252  1.00  0.00    -0.291 A  
HETATM   12  O   UNL     1     -10.765  18.683  65.489  1.00  0.00    -0.577 OA 
HETATM   13  C   UNL     1      -8.874  19.281  66.772  1.00  0.00    -0.317 A  
HETATM   14  H   UNL     1     -10.949  19.600  65.320  1.00  0.00     0.000 HD 
HETATM   15  C   UNL     1      -7.773  18.951  67.546  1.00  0.00    -0.251 A  
HETATM   16  O   UNL     1      -9.142  20.595  66.515  1.00  0.00    -0.575 OA 
HETATM   17  H   UNL     1      -8.578  21.272  66.870  1.00  0.00     0.000 HD 
HETATM   18  C   UNL     1      -7.491  17.605  67.796  1.00  0.00    -0.205 A  
ENDBRANCH   6   9
ENDBRANCH   2   6
TORSDOF 2
ENDMDL
MODEL      155
REMARK 921   NORMALIZED FREE ENERGY PREDICTED BY IDOCK:   -3.35 KCAL/MOL
REMARK 922        TOTAL FREE ENERGY PREDICTED BY IDOCK:   -3.96 KCAL/MOL
REMARK 923 INTER-LIGAND FREE ENERGY PREDICTED BY IDOCK:   -3.95 KCAL/MOL
REMARK 924 INTRA-LIGAND FREE ENERGY PREDICTED BY IDOCK:   -0.01 KCAL/MOL
REMARK 927      BINDING AFFINITY PREDICTED BY RF-SCORE:    0.00 PKD
ROOT
HETATM    1  C   UNL     1     -13.333  13.595  71.825  1.00  0.00    -0.469 C  
HETATM    2  C   UNL     1     -12.611  14.305  70.674  1.00  0.00    -0.355 C  
HETATM    3  N   UNL     1     -13.364  15.532  70.340  1.00  0.00    -0.779 NA 
HETATM    4  H1  UNL     1     -12.883  16.004  69.575  1.00  0.00     0.000 HD 
HETATM    5  H2  UNL     1     -13.506  16.138  71.149  1.00  0.00     0.000 HD 
ENDROOT
BRANCH   2   6
HETATM    6  C   UNL     1     -12.454  13.418  69.402  1.00  0.00     0.093 C  
HETATM    7  H   UNL     1     -11.948  11.554  68.999  1.00  0.00     0.000 HD 
HETATM    8  O   UNL     1     -12.043  12.094  69.774  1.00  0.00    -0.290 OA 
BRANCH   6   9
HETATM    9  C   UNL     1     -11.491  13.996  68.381  1.00  0.00    -0.340 A  
HETATM   10  C   UNL     1     -10.575  15.007  68.727  1.00  0.00    -0.240 A  
HETATM   11  C   UNL     1      -9.738  15.545  67.755  1.00  0.00    -0.211 A  
HETATM   12  O   UNL     1      -8.845  16.540  68.043  1.00  0.00    -0.191 OA 
HETATM   13  C   UNL     1      -9.795  15.085  66.443  1.00  0.00    -0.272 A  
HETATM   14  H   UNL     1      -8.273  16.908  67.380  1.00  0.00     0.000 HD 
HETATM   15  C   UNL     1     -10.683  14.084  66.081  1.00  0.00    -0.289 A  
HETATM   16  O   UNL     1      -8.974  15.627  65.495  1.00  0.00    -0.233 OA 
HETATM   17  H   UNL     1      -9.014  15.313  64.600  1.00  0.00     0.000 HD 
HETATM   18  C   UNL     1     -11.532  13.542  67.049  1.00  0.00    -0.369 A  
ENDBRANCH   6   9
ENDBRANCH   2   6
TORSDOF 2
ENDMDL
MODEL      156
REMARK 921   NORMALIZED FREE ENERGY PREDICTED BY IDOCK:   -3.31 KCAL/MOL
REMARK 922        TOTAL FREE ENERGY PREDICTED BY IDOCK:   -3.90 KCAL/MOL
REMARK 923 INTER-LIGAND FREE ENERGY PREDICTED BY IDOCK:   -3.70 KCAL/MOL
REMARK 924 INTRA-LIGAND FREE ENERGY PREDICTED BY IDOCK:   -0.20 KCAL/MOL
REMARK 927      BINDING AFFINITY PREDICTED BY RF-SCORE:    0.00 PKD
ROOT
HETATM    1  C   UNL     1     -11.268  14.569  67.109  1.00  0.00    -0.341 C  
HETATM    2  C   UNL     1     -10.296  13.686  66.319  1.00  0.00    -0.293 C  
HETATM    3  N   UNL     1      -9.964  14.378  65.055  1.00  0.00    -0.533 NA 
HETATM    4  H1  UNL     1      -9.317  13.790  64.530  1.00  0.00     0.000 HD 
HETATM    5  H2  UNL     1      -9.605  15.321  65.206  1.00  0.00     0.000 HD 
ENDROOT
BRANCH   2   6
HETATM    6  C   UNL     1     -10.860  12.265  66.012  1.00  0.00    -0.275 C  
HETATM    7  H   UNL     1     -12.350  11.140  66.648  1.00  0.00     0.000 HD 
HETATM    8  O   UNL     1     -12.007  12.005  66.835  1.00  0.00    -0.612 OA 
BRANCH   6   9
HETATM    9  C   UNL     1      -9.832  11.161  66.184  1.00  0.00    -0.265 A  
HETATM   10  C   UNL     1     -10.123   9.828  65.840  1.00  0.00    -0.314 A  
HETATM   11  C   UNL     1      -9.172   8.834  66.052  1.00  0.00    -0.222 A  
HETATM   12  O   UNL     1      -9.418   7.524  65.748  1.00  0.00    -0.402 OA 
HETATM   13  C   UNL     1      -7.933   9.151  66.598  1.00  0.00    -0.104 A  
HETATM   14  H   UNL     1      -8.770   6.846  65.893  1.00  0.00     0.000 HD 
HETATM   15  C   UNL     1      -7.621  10.459  66.937  1.00  0.00    -0.107 A  
HETATM   16  O   UNL     1      -7.010   8.167  66.811  1.00  0.00    -0.070 OA 
HETATM   17  H   UNL     1      -6.164   8.384  67.183  1.00  0.00     0.000 HD 
HETATM   18  C   UNL     1      -8.572  11.462  66.733  1.00  0.00    -0.166 A  
ENDBRANCH   6   9
ENDBRANCH   2   6
TORSDOF 2
ENDMDL
MODEL      157
REMARK 921   NORMALIZED FREE ENERGY PREDICTED BY IDOCK:   -3.30 KCAL/MOL
REMARK 922        TOTAL FREE ENERGY PREDICTED BY IDOCK:   -3.89 KCAL/MOL
REMARK 923 INTER-LIGAND FREE ENERGY PREDICTED BY IDOCK:   -3.73 KCAL/MOL
REMARK 924 INTRA-LIGAND FREE ENERGY PREDICTED BY IDOCK:   -0.16 KCAL/MOL
REMARK 927      BINDING AFFINITY PREDICTED BY RF-SCORE:    0.00 PKD
ROOT
HETATM    1  C   UNL     1      -8.935   8.611  71.882  1.00  0.00    -0.301 C  
HETATM    2  C   UNL     1      -9.051   9.070  70.425  1.00  0.00    -0.210 C  
HETATM    3  N   UNL     1      -8.209  10.272  70.250  1.00  0.00    -0.387 NA 
HETATM    4  H1  UNL     1      -8.286  10.578  69.279  1.00  0.00     0.000 HD 
HETATM    5  H2  UNL     1      -7.242  10.120  70.538  1.00  0.00     0.000 HD 
ENDROOT
BRANCH   2   6
HETATM    6  C   UNL     1     -10.515   9.382  69.989  1.00  0.00    -0.234 C  
HETATM    7  H   UNL     1     -12.215   8.391  69.840  1.00  0.00     0.000 HD 
HETATM    8  O   UNL     1     -11.323   8.201  70.106  1.00  0.00    -0.200 OA 
BRANCH   6   9
HETATM    9  C   UNL     1     -10.616   9.947  68.584  1.00  0.00    -0.244 A  
HETATM   10  C   UNL     1     -10.083   9.261  67.476  1.00  0.00    -0.273 A  
HETATM   11  C   UNL     1     -10.154   9.829  66.209  1.00  0.00    -0.243 A  
HETATM   12  O   UNL     1      -9.635   9.205  65.108  1.00  0.00    -0.456 OA 
HETATM   13  C   UNL     1     -10.754  11.071  66.027  1.00  0.00    -0.177 A  
HETATM   14  H   UNL     1      -9.683   9.593  64.242  1.00  0.00     0.000 HD 
HETATM   15  C   UNL     1     -11.293  11.762  67.101  1.00  0.00    -0.387 A  
HETATM   16  O   UNL     1     -10.811  11.624  64.780  1.00  0.00    -0.297 OA 
HETATM   17  H   UNL     1     -11.220  12.472  64.656  1.00  0.00     0.000 HD 
HETATM   18  C   UNL     1     -11.221  11.201  68.379  1.00  0.00    -0.325 A  
ENDBRANCH   6   9
ENDBRANCH   2   6
TORSDOF 2
ENDMDL
MODEL      158
REMARK 921   NORMALIZED FREE ENERGY PREDICTED BY IDOCK:   -3.25 KCAL/MOL
REMARK 922        TOTAL FREE ENERGY PREDICTED BY IDOCK:   -3.84 KCAL/MOL
REMARK 923 INTER-LIGAND FREE ENERGY PREDICTED BY IDOCK:   -3.99 KCAL/MOL
REMARK 924 INTRA-LIGAND FREE ENERGY PREDICTED BY IDOCK:    0.14 KCAL/MOL
REMARK 927      BINDING AFFINITY PREDICTED BY RF-SCORE:    0.00 PKD
ROOT
HETATM    1  C   UNL     1      -9.779  10.611  63.465  1.00  0.00    -0.389 C  
HETATM    2  C   UNL     1     -10.802  11.730  63.681  1.00  0.00    -0.440 C  
HETATM    3  N   UNL     1     -10.068  12.999  63.870  1.00  0.00    -0.757 NA 
HETATM    4  H1  UNL     1     -10.749  13.745  64.014  1.00  0.00     0.000 HD 
HETATM    5  H2  UNL     1      -9.424  13.198  63.104  1.00  0.00     0.000 HD 
ENDROOT
BRANCH   2   6
HETATM    6  C   UNL     1     -11.746  11.480  64.897  1.00  0.00     0.091 C  
HETATM    7  H   UNL     1     -13.254  12.410  65.764  1.00  0.00     0.000 HD 
HETATM    8  O   UNL     1     -12.679  12.563  65.024  1.00  0.00    -0.649 OA 
BRANCH   6   9
HETATM    9  C   UNL     1     -11.001  11.275  66.204  1.00  0.00    -0.252 A  
HETATM   10  C   UNL     1     -10.391  10.046  66.517  1.00  0.00    -0.268 A  
HETATM   11  C   UNL     1      -9.756   9.881  67.744  1.00  0.00    -0.150 A  
HETATM   12  O   UNL     1      -9.165   8.699  68.096  1.00  0.00    -0.137 OA 
HETATM   13  C   UNL     1      -9.714  10.925  68.661  1.00  0.00    -0.185 A  
HETATM   14  H   UNL     1      -8.731   8.585  68.933  1.00  0.00     0.000 HD 
HETATM   15  C   UNL     1     -10.301  12.147  68.372  1.00  0.00    -0.236 A  
HETATM   16  O   UNL     1      -9.095  10.749  69.866  1.00  0.00    -0.306 OA 
HETATM   17  H   UNL     1      -9.067  11.462  70.493  1.00  0.00     0.000 HD 
HETATM   18  C   UNL     1     -10.947  12.321  67.145  1.00  0.00    -0.308 A  
ENDBRANCH   6   9
ENDBRANCH   2   6
TORSDOF 2
ENDMDL
MODEL      159
REMARK 921   NORMALIZED FREE ENERGY PREDICTED BY IDOCK:   -3.25 KCAL/MOL
REMARK 922        TOTAL FREE ENERGY PREDICTED BY IDOCK:   -3.84 KCAL/MOL
REMARK 923 INTER-LIGAND FREE ENERGY PREDICTED BY IDOCK:   -3.73 KCAL/MOL
REMARK 924 INTRA-LIGAND FREE ENERGY PREDICTED BY IDOCK:   -0.11 KCAL/MOL
REMARK 927      BINDING AFFINITY PREDICTED BY RF-SCORE:    0.00 PKD
ROOT
HETATM    1  C   UNL     1      -7.467  15.050  69.425  1.00  0.00    -0.196 C  
HETATM    2  C   UNL     1      -6.541  15.354  68.243  1.00  0.00    -0.121 C  
HETATM    3  N   UNL     1      -5.377  14.447  68.320  1.00  0.00    -0.107 NA 
HETATM    4  H1  UNL     1      -4.761  14.650  67.533  1.00  0.00     0.000 HD 
HETATM    5  H2  UNL     1      -5.647  13.465  68.365  1.00  0.00     0.000 HD 
ENDROOT
BRANCH   2   6
HETATM    6  C   UNL     1      -6.056  16.836  68.201  1.00  0.00    -0.129 C  
HETATM    7  H   UNL     1      -5.440  18.185  69.502  1.00  0.00     0.000 HD 
HETATM    8  O   UNL     1      -5.736  17.284  69.527  1.00  0.00    -0.188 OA 
BRANCH   6   9
HETATM    9  C   UNL     1      -7.057  17.779  67.559  1.00  0.00    -0.198 A  
HETATM   10  C   UNL     1      -6.905  19.176  67.638  1.00  0.00    -0.234 A  
HETATM   11  C   UNL     1      -7.867  20.010  67.076  1.00  0.00    -0.310 A  
HETATM   12  O   UNL     1      -7.767  21.372  67.143  1.00  0.00    -0.767 OA 
HETATM   13  C   UNL     1      -8.975  19.472  66.431  1.00  0.00    -0.370 A  
HETATM   14  H   UNL     1      -8.423  21.942  66.759  1.00  0.00     0.000 HD 
HETATM   15  C   UNL     1      -9.142  18.099  66.333  1.00  0.00    -0.255 A  
HETATM   16  O   UNL     1      -9.917  20.300  65.890  1.00  0.00    -0.601 OA 
HETATM   17  H   UNL     1     -10.674  19.932  65.450  1.00  0.00     0.000 HD 
HETATM   18  C   UNL     1      -8.185  17.253  66.900  1.00  0.00    -0.256 A  
ENDBRANCH   6   9
ENDBRANCH   2   6
TORSDOF 2
ENDMDL
MODEL      160
REMARK 921   NORMALIZED FREE ENERGY PREDICTED BY IDOCK:   -3.22 KCAL/MOL
REMARK 922        TOTAL FREE ENERGY PREDICTED BY IDOCK:   -3.81 KCAL/MOL
REMARK 923 INTER-LIGAND FREE ENERGY PREDICTED BY IDOCK:   -3.93 KCAL/MOL
REMARK 924 INTRA-LIGAND FREE ENERGY PREDICTED BY IDOCK:    0.13 KCAL/MOL
REMARK 927      BINDING AFFINITY PREDICTED BY RF-SCORE:    0.00 PKD
ROOT
HETATM    1  C   UNL     1      -9.926  19.923  66.433  1.00  0.00    -0.593 C  
HETATM    2  C   UNL     1     -10.769  18.644  66.465  1.00  0.00    -0.238 C  
HETATM    3  N   UNL     1     -10.738  18.103  67.840  1.00  0.00    -0.370 NA 
HETATM    4  H1  UNL     1     -11.299  17.251  67.861  1.00  0.00     0.000 HD 
HETATM    5  H2  UNL     1     -11.033  18.786  68.538  1.00  0.00     0.000 HD 
ENDROOT
BRANCH   2   6
HETATM    6  C   UNL     1     -10.284  17.558  65.457  1.00  0.00     0.055 C  
HETATM    7  H   UNL     1     -11.100  16.407  64.078  1.00  0.00     0.000 HD 
HETATM    8  O   UNL     1     -11.395  17.069  64.692  1.00  0.00    -0.889 OA 
BRANCH   6   9
HETATM    9  C   UNL     1      -9.559  16.402  66.123  1.00  0.00    -0.356 A  
HETATM   10  C   UNL     1      -8.307  16.578  66.740  1.00  0.00    -0.274 A  
HETATM   11  C   UNL     1      -7.651  15.487  67.301  1.00  0.00    -0.218 A  
HETATM   12  O   UNL     1      -6.426  15.610  67.896  1.00  0.00    -0.123 OA 
HETATM   13  C   UNL     1      -8.228  14.222  67.260  1.00  0.00    -0.192 A  
HETATM   14  H   UNL     1      -5.978  14.865  68.279  1.00  0.00     0.000 HD 
HETATM   15  C   UNL     1      -9.464  14.026  66.665  1.00  0.00    -0.300 A  
HETATM   16  O   UNL     1      -7.571  13.156  67.806  1.00  0.00    -0.124 OA 
HETATM   17  H   UNL     1      -7.965  12.293  67.778  1.00  0.00     0.000 HD 
HETATM   18  C   UNL     1     -10.128  15.115  66.094  1.00  0.00    -0.314 A  
ENDBRANCH   6   9
ENDBRANCH   2   6
TORSDOF 2
ENDMDL
MODEL      161
REMARK 921   NORMALIZED FREE ENERGY PREDICTED BY IDOCK:   -3.20 KCAL/MOL
REMARK 922        TOTAL FREE ENERGY PREDICTED BY IDOCK:   -3.78 KCAL/MOL
REMARK 923 INTER-LIGAND FREE ENERGY PREDICTED BY IDOCK:   -3.56 KCAL/MOL
REMARK 924 INTRA-LIGAND FREE ENERGY PREDICTED BY IDOCK:   -0.22 KCAL/MOL
REMARK 927      BINDING AFFINITY PREDICTED BY RF-SCORE:    0.00 PKD
ROOT
HETATM    1  C   UNL     1      -8.215   9.459  68.268  1.00  0.00    -0.118 C  
HETATM    2  C   UNL     1      -8.267   9.571  69.795  1.00  0.00    -0.151 C  
HETATM    3  N   UNL     1      -7.214  10.514  70.227  1.00  0.00    -0.447 NA 
HETATM    4  H1  UNL     1      -7.248  10.588  71.244  1.00  0.00     0.000 HD 
HETATM    5  H2  UNL     1      -7.284  11.420  69.764  1.00  0.00     0.000 HD 
ENDROOT
BRANCH   2   6
HETATM    6  C   UNL     1      -8.083   8.204  70.522  1.00  0.00    -0.104 C  
HETATM    7  H   UNL     1      -7.305   6.441  70.098  1.00  0.00     0.000 HD 
HETATM    8  O   UNL     1      -7.417   7.274  69.655  1.00  0.00    -0.089 OA 
BRANCH   6   9
HETATM    9  C   UNL     1      -9.387   7.609  71.022  1.00  0.00    -0.156 A  
HETATM   10  C   UNL     1     -10.298   8.369  71.779  1.00  0.00    -0.333 A  
HETATM   11  C   UNL     1     -11.462   7.779  72.260  1.00  0.00    -0.332 A  
HETATM   12  O   UNL     1     -12.366   8.476  73.013  1.00  0.00    -0.553 OA 
HETATM   13  C   UNL     1     -11.736   6.442  71.991  1.00  0.00    -0.329 A  
HETATM   14  H   UNL     1     -13.162   8.073  73.341  1.00  0.00     0.000 HD 
HETATM   15  C   UNL     1     -10.858   5.676  71.241  1.00  0.00    -0.289 A  
HETATM   16  O   UNL     1     -12.878   5.870  72.475  1.00  0.00    -0.459 OA 
HETATM   17  H   UNL     1     -13.064   4.957  72.292  1.00  0.00     0.000 HD 
HETATM   18  C   UNL     1      -9.682   6.258  70.759  1.00  0.00    -0.202 A  
ENDBRANCH   6   9
ENDBRANCH   2   6
TORSDOF 2
ENDMDL
MODEL      162
REMARK 921   NORMALIZED FREE ENERGY PREDICTED BY IDOCK:   -3.17 KCAL/MOL
REMARK 922        TOTAL FREE ENERGY PREDICTED BY IDOCK:   -3.75 KCAL/MOL
REMARK 923 INTER-LIGAND FREE ENERGY PREDICTED BY IDOCK:   -3.51 KCAL/MOL
REMARK 924 INTRA-LIGAND FREE ENERGY PREDICTED BY IDOCK:   -0.23 KCAL/MOL
REMARK 927      BINDING AFFINITY PREDICTED BY RF-SCORE:    0.00 PKD
ROOT
HETATM    1  C   UNL     1     -10.317   8.908  71.988  1.00  0.00    -0.378 C  
HETATM    2  C   UNL     1     -11.535   8.592  71.114  1.00  0.00    -0.280 C  
HETATM    3  N   UNL     1     -12.676   9.396  71.602  1.00  0.00    -0.348 NA 
HETATM    4  H1  UNL     1     -13.487   9.186  71.021  1.00  0.00     0.000 HD 
HETATM    5  H2  UNL     1     -12.466  10.393  71.639  1.00  0.00     0.000 HD 
ENDROOT
BRANCH   2   6
HETATM    6  C   UNL     1     -11.917   7.081  71.108  1.00  0.00    -0.356 C  
HETATM    7  H   UNL     1     -11.953   5.599  72.410  1.00  0.00     0.000 HD 
HETATM    8  O   UNL     1     -11.720   6.520  72.414  1.00  0.00    -0.281 OA 
BRANCH   6   9
HETATM    9  C   UNL     1     -11.156   6.273  70.072  1.00  0.00    -0.455 A  
HETATM   10  C   UNL     1     -10.341   5.187  70.442  1.00  0.00    -0.326 A  
HETATM   11  C   UNL     1      -9.623   4.497  69.471  1.00  0.00    -0.195 A  
HETATM   12  O   UNL     1      -8.806   3.447  69.787  1.00  0.00    -0.075 OA 
HETATM   13  C   UNL     1      -9.710   4.871  68.133  1.00  0.00    -0.148 A  
HETATM   14  H   UNL     1      -8.316   2.976  69.124  1.00  0.00     0.000 HD 
HETATM   15  C   UNL     1     -10.512   5.931  67.744  1.00  0.00    -0.300 A  
HETATM   16  O   UNL     1      -8.993   4.192  67.189  1.00  0.00    -0.114 OA 
HETATM   17  H   UNL     1      -9.053   4.447  66.276  1.00  0.00     0.000 HD 
HETATM   18  C   UNL     1     -11.233   6.634  68.714  1.00  0.00    -0.256 A  
ENDBRANCH   6   9
ENDBRANCH   2   6
TORSDOF 2
ENDMDL
MODEL      163
REMARK 921   NORMALIZED FREE ENERGY PREDICTED BY IDOCK:   -3.16 KCAL/MOL
REMARK 922        TOTAL FREE ENERGY PREDICTED BY IDOCK:   -3.74 KCAL/MOL
REMARK 923 INTER-LIGAND FREE ENERGY PREDICTED BY IDOCK:   -3.77 KCAL/MOL
REMARK 924 INTRA-LIGAND FREE ENERGY PREDICTED BY IDOCK:    0.03 KCAL/MOL
REMARK 927      BINDING AFFINITY PREDICTED BY RF-SCORE:    0.00 PKD
ROOT
HETATM    1  C   UNL     1     -10.134  20.280  66.505  1.00  0.00    -0.518 C  
HETATM    2  C   UNL     1     -10.523  18.810  66.690  1.00  0.00    -0.426 C  
HETATM    3  N   UNL     1     -10.764  18.571  68.129  1.00  0.00    -0.317 NA 
HETATM    4  H1  UNL     1     -11.023  17.592  68.251  1.00  0.00     0.000 HD 
HETATM    5  H2  UNL     1     -11.453  19.212  68.523  1.00  0.00     0.000 HD 
ENDROOT
BRANCH   2   6
HETATM    6  C   UNL     1      -9.445  17.814  66.162  1.00  0.00    -0.159 C  
HETATM    7  H   UNL     1      -9.426  16.079  65.223  1.00  0.00     0.000 HD 
HETATM    8  O   UNL     1     -10.082  16.685  65.545  1.00  0.00    -0.553 OA 
BRANCH   6   9
HETATM    9  C   UNL     1      -8.481  17.347  67.236  1.00  0.00    -0.220 A  
HETATM   10  C   UNL     1      -8.692  16.148  67.943  1.00  0.00    -0.174 A  
HETATM   11  C   UNL     1      -7.811  15.774  68.953  1.00  0.00    -0.190 A  
HETATM   12  O   UNL     1      -7.988  14.626  69.675  1.00  0.00    -0.393 OA 
HETATM   13  C   UNL     1      -6.718  16.575  69.265  1.00  0.00    -0.218 A  
HETATM   14  H   UNL     1      -7.387  14.370  70.364  1.00  0.00     0.000 HD 
HETATM   15  C   UNL     1      -6.484  17.755  68.578  1.00  0.00    -0.209 A  
HETATM   16  O   UNL     1      -5.864  16.202  70.264  1.00  0.00    -0.180 OA 
HETATM   17  H   UNL     1      -5.118  16.749  70.477  1.00  0.00     0.000 HD 
HETATM   18  C   UNL     1      -7.367  18.143  67.566  1.00  0.00    -0.213 A  
ENDBRANCH   6   9
ENDBRANCH   2   6
TORSDOF 2
ENDMDL
MODEL      164
REMARK 921   NORMALIZED FREE ENERGY PREDICTED BY IDOCK:   -3.16 KCAL/MOL
REMARK 922        TOTAL FREE ENERGY PREDICTED BY IDOCK:   -3.74 KCAL/MOL
REMARK 923 INTER-LIGAND FREE ENERGY PREDICTED BY IDOCK:   -3.85 KCAL/MOL
REMARK 924 INTRA-LIGAND FREE ENERGY PREDICTED BY IDOCK:    0.11 KCAL/MOL
REMARK 927      BINDING AFFINITY PREDICTED BY RF-SCORE:    0.00 PKD
ROOT
HETATM    1  C   UNL     1      -7.958  11.385  66.587  1.00  0.00    -0.148 C  
HETATM    2  C   UNL     1      -8.751  12.594  67.094  1.00  0.00    -0.201 C  
HETATM    3  N   UNL     1      -8.459  12.770  68.533  1.00  0.00    -0.323 NA 
HETATM    4  H1  UNL     1      -8.986  13.575  68.870  1.00  0.00     0.000 HD 
HETATM    5  H2  UNL     1      -7.460  12.846  68.724  1.00  0.00     0.000 HD 
ENDROOT
BRANCH   2   6
HETATM    6  C   UNL     1     -10.289  12.460  66.879  1.00  0.00    -0.224 C  
HETATM    7  H   UNL     1     -11.721  13.515  66.025  1.00  0.00     0.000 HD 
HETATM    8  O   UNL     1     -10.784  13.597  66.156  1.00  0.00    -0.282 OA 
BRANCH   6   9
HETATM    9  C   UNL     1     -11.064  12.287  68.173  1.00  0.00    -0.285 A  
HETATM   10  C   UNL     1     -11.703  13.374  68.797  1.00  0.00    -0.377 A  
HETATM   11  C   UNL     1     -12.366  13.188  70.006  1.00  0.00    -0.172 A  
HETATM   12  O   UNL     1     -12.987  14.219  70.654  1.00  0.00    -0.338 OA 
HETATM   13  C   UNL     1     -12.407  11.931  70.600  1.00  0.00    -0.313 A  
HETATM   14  H   UNL     1     -13.440  14.092  71.480  1.00  0.00     0.000 HD 
HETATM   15  C   UNL     1     -11.791  10.843  70.000  1.00  0.00    -0.428 A  
HETATM   16  O   UNL     1     -13.053  11.761  71.791  1.00  0.00    -0.463 OA 
HETATM   17  H   UNL     1     -13.080  10.902  72.196  1.00  0.00     0.000 HD 
HETATM   18  C   UNL     1     -11.117  11.022  68.789  1.00  0.00    -0.293 A  
ENDBRANCH   6   9
ENDBRANCH   2   6
TORSDOF 2
ENDMDL
MODEL      165
REMARK 921   NORMALIZED FREE ENERGY PREDICTED BY IDOCK:   -3.15 KCAL/MOL
REMARK 922        TOTAL FREE ENERGY PREDICTED BY IDOCK:   -3.73 KCAL/MOL
REMARK 923 INTER-LIGAND FREE ENERGY PREDICTED BY IDOCK:   -3.52 KCAL/MOL
REMARK 924 INTRA-LIGAND FREE ENERGY PREDICTED BY IDOCK:   -0.21 KCAL/MOL
REMARK 927      BINDING AFFINITY PREDICTED BY RF-SCORE:    0.00 PKD
ROOT
HETATM    1  C   UNL     1      -8.383   9.596  68.737  1.00  0.00    -0.111 C  
HETATM    2  C   UNL     1      -9.832   9.109  68.842  1.00  0.00    -0.174 C  
HETATM    3  N   UNL     1      -9.857   7.914  69.712  1.00  0.00    -0.177 NA 
HETATM    4  H1  UNL     1     -10.822   7.590  69.782  1.00  0.00     0.000 HD 
HETATM    5  H2  UNL     1      -9.433   8.084  70.624  1.00  0.00     0.000 HD 
ENDROOT
BRANCH   2   6
HETATM    6  C   UNL     1     -10.472   8.771  67.461  1.00  0.00    -0.271 C  
HETATM    7  H   UNL     1     -10.305   7.345  66.107  1.00  0.00     0.000 HD 
HETATM    8  O   UNL     1      -9.915   7.551  66.948  1.00  0.00    -0.206 OA 
BRANCH   6   9
HETATM    9  C   UNL     1     -10.322   9.884  66.440  1.00  0.00    -0.246 A  
HETATM   10  C   UNL     1      -9.583   9.700  65.257  1.00  0.00    -0.347 A  
HETATM   11  C   UNL     1      -9.429  10.757  64.365  1.00  0.00    -0.256 A  
HETATM   12  O   UNL     1      -8.706  10.627  63.211  1.00  0.00    -0.176 OA 
HETATM   13  C   UNL     1     -10.006  11.994  64.633  1.00  0.00    -0.214 A  
HETATM   14  H   UNL     1      -8.601  11.348  62.602  1.00  0.00     0.000 HD 
HETATM   15  C   UNL     1     -10.744  12.196  65.788  1.00  0.00    -0.303 A  
HETATM   16  O   UNL     1      -9.841  13.027  63.755  1.00  0.00    -0.730 OA 
HETATM   17  H   UNL     1     -10.234  13.871  63.938  1.00  0.00     0.000 HD 
HETATM   18  C   UNL     1     -10.900  11.142  66.693  1.00  0.00    -0.308 A  
ENDBRANCH   6   9
ENDBRANCH   2   6
TORSDOF 2
ENDMDL
MODEL      166
REMARK 921   NORMALIZED FREE ENERGY PREDICTED BY IDOCK:   -3.15 KCAL/MOL
REMARK 922        TOTAL FREE ENERGY PREDICTED BY IDOCK:   -3.73 KCAL/MOL
REMARK 923 INTER-LIGAND FREE ENERGY PREDICTED BY IDOCK:   -3.58 KCAL/MOL
REMARK 924 INTRA-LIGAND FREE ENERGY PREDICTED BY IDOCK:   -0.15 KCAL/MOL
REMARK 927      BINDING AFFINITY PREDICTED BY RF-SCORE:    0.00 PKD
ROOT
HETATM    1  C   UNL     1     -10.876   8.355  70.559  1.00  0.00    -0.250 C  
HETATM    2  C   UNL     1     -10.064   8.818  69.345  1.00  0.00    -0.203 C  
HETATM    3  N   UNL     1      -8.671   8.354  69.514  1.00  0.00    -0.135 NA 
HETATM    4  H1  UNL     1      -8.131   8.662  68.706  1.00  0.00     0.000 HD 
HETATM    5  H2  UNL     1      -8.609   7.347  69.669  1.00  0.00     0.000 HD 
ENDROOT
BRANCH   2   6
HETATM    6  C   UNL     1     -10.085  10.364  69.139  1.00  0.00    -0.222 C  
HETATM    7  H   UNL     1     -11.287  11.860  69.595  1.00  0.00     0.000 HD 
HETATM    8  O   UNL     1     -11.274  10.919  69.720  1.00  0.00    -0.252 OA 
BRANCH   6   9
HETATM    9  C   UNL     1      -9.972  10.778  67.684  1.00  0.00    -0.199 A  
HETATM   10  C   UNL     1      -9.834  12.128  67.313  1.00  0.00    -0.202 A  
HETATM   11  C   UNL     1      -9.779  12.475  65.966  1.00  0.00    -0.241 A  
HETATM   12  O   UNL     1      -9.661  13.776  65.561  1.00  0.00    -0.509 OA 
HETATM   13  C   UNL     1      -9.853  11.494  64.983  1.00  0.00    -0.257 A  
HETATM   14  H   UNL     1      -9.623  14.013  64.642  1.00  0.00     0.000 HD 
HETATM   15  C   UNL     1      -9.982  10.157  65.324  1.00  0.00    -0.381 A  
HETATM   16  O   UNL     1      -9.807  11.846  63.664  1.00  0.00    -0.425 OA 
HETATM   17  H   UNL     1      -9.858  11.176  62.993  1.00  0.00     0.000 HD 
HETATM   18  C   UNL     1     -10.044   9.799  66.674  1.00  0.00    -0.303 A  
ENDBRANCH   6   9
ENDBRANCH   2   6
TORSDOF 2
ENDMDL
MODEL      167
REMARK 921   NORMALIZED FREE ENERGY PREDICTED BY IDOCK:   -3.14 KCAL/MOL
REMARK 922        TOTAL FREE ENERGY PREDICTED BY IDOCK:   -3.72 KCAL/MOL
REMARK 923 INTER-LIGAND FREE ENERGY PREDICTED BY IDOCK:   -3.74 KCAL/MOL
REMARK 924 INTRA-LIGAND FREE ENERGY PREDICTED BY IDOCK:    0.02 KCAL/MOL
REMARK 927      BINDING AFFINITY PREDICTED BY RF-SCORE:    0.00 PKD
ROOT
HETATM    1  C   UNL     1     -10.378  12.124  66.951  1.00  0.00    -0.235 C  
HETATM    2  C   UNL     1     -10.548  13.647  66.975  1.00  0.00    -0.274 C  
HETATM    3  N   UNL     1      -9.505  14.243  66.114  1.00  0.00    -0.460 NA 
HETATM    4  H1  UNL     1      -9.618  15.257  66.130  1.00  0.00     0.000 HD 
HETATM    5  H2  UNL     1      -9.510  13.862  65.168  1.00  0.00     0.000 HD 
ENDROOT
BRANCH   2   6
HETATM    6  C   UNL     1     -10.465  14.257  68.407  1.00  0.00    -0.249 C  
HETATM    7  H   UNL     1     -11.720  14.656  69.876  1.00  0.00     0.000 HD 
HETATM    8  O   UNL     1     -11.770  14.285  69.004  1.00  0.00    -0.278 OA 
BRANCH   6   9
HETATM    9  C   UNL     1      -9.849  15.644  68.435  1.00  0.00    -0.206 A  
HETATM   10  C   UNL     1      -8.507  15.844  68.810  1.00  0.00    -0.204 A  
HETATM   11  C   UNL     1      -7.988  17.134  68.867  1.00  0.00    -0.208 A  
HETATM   12  O   UNL     1      -6.696  17.375  69.243  1.00  0.00    -0.241 OA 
HETATM   13  C   UNL     1      -8.786  18.228  68.550  1.00  0.00    -0.304 A  
HETATM   14  H   UNL     1      -6.341  18.255  69.282  1.00  0.00     0.000 HD 
HETATM   15  C   UNL     1     -10.108  18.055  68.169  1.00  0.00    -0.378 A  
HETATM   16  O   UNL     1      -8.269  19.490  68.618  1.00  0.00    -0.354 OA 
HETATM   17  H   UNL     1      -8.814  20.237  68.401  1.00  0.00     0.000 HD 
HETATM   18  C   UNL     1     -10.639  16.764  68.115  1.00  0.00    -0.350 A  
ENDBRANCH   6   9
ENDBRANCH   2   6
TORSDOF 2
ENDMDL
MODEL      168
REMARK 921   NORMALIZED FREE ENERGY PREDICTED BY IDOCK:   -3.14 KCAL/MOL
REMARK 922        TOTAL FREE ENERGY PREDICTED BY IDOCK:   -3.72 KCAL/MOL
REMARK 923 INTER-LIGAND FREE ENERGY PREDICTED BY IDOCK:   -3.62 KCAL/MOL
REMARK 924 INTRA-LIGAND FREE ENERGY PREDICTED BY IDOCK:   -0.09 KCAL/MOL
REMARK 927      BINDING AFFINITY PREDICTED BY RF-SCORE:    0.00 PKD
ROOT
HETATM    1  C   UNL     1     -10.934  16.956  68.106  1.00  0.00    -0.290 C  
HETATM    2  C   UNL     1     -11.256  15.516  67.697  1.00  0.00    -0.291 C  
HETATM    3  N   UNL     1     -12.207  14.956  68.680  1.00  0.00    -0.591 NA 
HETATM    4  H1  UNL     1     -12.421  13.996  68.407  1.00  0.00     0.000 HD 
HETATM    5  H2  UNL     1     -13.044  15.530  68.787  1.00  0.00     0.000 HD 
ENDROOT
BRANCH   2   6
HETATM    6  C   UNL     1      -9.995  14.603  67.603  1.00  0.00    -0.227 C  
HETATM    7  H   UNL     1      -8.492  14.349  66.350  1.00  0.00     0.000 HD 
HETATM    8  O   UNL     1      -9.260  14.904  66.407  1.00  0.00    -0.275 OA 
BRANCH   6   9
HETATM    9  C   UNL     1     -10.320  13.121  67.656  1.00  0.00    -0.223 A  
HETATM   10  C   UNL     1      -9.943  12.326  68.754  1.00  0.00    -0.048 A  
HETATM   11  C   UNL     1     -10.218  10.962  68.749  1.00  0.00    -0.196 A  
HETATM   12  O   UNL     1      -9.856  10.149  69.787  1.00  0.00    -0.241 OA 
HETATM   13  C   UNL     1     -10.870  10.380  67.667  1.00  0.00    -0.306 A  
HETATM   14  H   UNL     1     -10.044   9.218  69.784  1.00  0.00     0.000 HD 
HETATM   15  C   UNL     1     -11.258  11.144  66.578  1.00  0.00    -0.151 A  
HETATM   16  O   UNL     1     -11.127   9.038  67.668  1.00  0.00    -0.484 OA 
HETATM   17  H   UNL     1     -11.572   8.641  66.929  1.00  0.00     0.000 HD 
HETATM   18  C   UNL     1     -10.980  12.514  66.571  1.00  0.00    -0.303 A  
ENDBRANCH   6   9
ENDBRANCH   2   6
TORSDOF 2
ENDMDL
MODEL      169
REMARK 921   NORMALIZED FREE ENERGY PREDICTED BY IDOCK:   -3.14 KCAL/MOL
REMARK 922        TOTAL FREE ENERGY PREDICTED BY IDOCK:   -3.72 KCAL/MOL
REMARK 923 INTER-LIGAND FREE ENERGY PREDICTED BY IDOCK:   -3.73 KCAL/MOL
REMARK 924 INTRA-LIGAND FREE ENERGY PREDICTED BY IDOCK:    0.02 KCAL/MOL
REMARK 927      BINDING AFFINITY PREDICTED BY RF-SCORE:    0.00 PKD
ROOT
HETATM    1  C   UNL     1     -10.756  18.418  68.037  1.00  0.00    -0.277 C  
HETATM    2  C   UNL     1     -10.430  19.228  66.778  1.00  0.00    -0.448 C  
HETATM    3  N   UNL     1     -10.568  18.338  65.606  1.00  0.00    -0.590 NA 
HETATM    4  H1  UNL     1     -10.351  18.877  64.768  1.00  0.00     0.000 HD 
HETATM    5  H2  UNL     1     -11.483  17.889  65.559  1.00  0.00     0.000 HD 
ENDROOT
BRANCH   2   6
HETATM    6  C   UNL     1      -9.004  19.858  66.799  1.00  0.00    -0.360 C  
HETATM    7  H   UNL     1      -7.704  20.523  65.472  1.00  0.00     0.000 HD 
HETATM    8  O   UNL     1      -8.573  20.139  65.459  1.00  0.00    -0.121 OA 
BRANCH   6   9
HETATM    9  C   UNL     1      -7.976  18.995  67.508  1.00  0.00    -0.276 A  
HETATM   10  C   UNL     1      -7.561  17.760  66.975  1.00  0.00    -0.228 A  
HETATM   11  C   UNL     1      -6.651  16.974  67.674  1.00  0.00    -0.144 A  
HETATM   12  O   UNL     1      -6.233  15.761  67.202  1.00  0.00    -0.309 OA 
HETATM   13  C   UNL     1      -6.143  17.404  68.896  1.00  0.00    -0.189 A  
HETATM   14  H   UNL     1      -5.611  15.224  67.679  1.00  0.00     0.000 HD 
HETATM   15  C   UNL     1      -6.530  18.620  69.436  1.00  0.00    -0.269 A  
HETATM   16  O   UNL     1      -5.256  16.621  69.578  1.00  0.00    -0.128 OA 
HETATM   17  H   UNL     1      -4.910  16.914  70.413  1.00  0.00     0.000 HD 
HETATM   18  C   UNL     1      -7.449  19.413  68.744  1.00  0.00    -0.393 A  
ENDBRANCH   6   9
ENDBRANCH   2   6
TORSDOF 2
ENDMDL
MODEL      170
REMARK 921   NORMALIZED FREE ENERGY PREDICTED BY IDOCK:   -3.13 KCAL/MOL
REMARK 922        TOTAL FREE ENERGY PREDICTED BY IDOCK:   -3.70 KCAL/MOL
REMARK 923 INTER-LIGAND FREE ENERGY PREDICTED BY IDOCK:   -4.13 KCAL/MOL
REMARK 924 INTRA-LIGAND FREE ENERGY PREDICTED BY IDOCK:    0.43 KCAL/MOL
REMARK 927      BINDING AFFINITY PREDICTED BY RF-SCORE:    0.00 PKD
ROOT
HETATM    1  C   UNL     1      -5.857  17.905  70.079  1.00  0.00    -0.217 C  
HETATM    2  C   UNL     1      -6.609  17.723  68.756  1.00  0.00    -0.227 C  
HETATM    3  N   UNL     1      -6.866  19.060  68.181  1.00  0.00    -0.239 NA 
HETATM    4  H1  UNL     1      -7.366  18.939  67.301  1.00  0.00     0.000 HD 
HETATM    5  H2  UNL     1      -6.014  19.613  68.076  1.00  0.00     0.000 HD 
ENDROOT
BRANCH   2   6
HETATM    6  C   UNL     1      -7.952  16.947  68.910  1.00  0.00    -0.224 C  
HETATM    7  H   UNL     1      -8.518  15.153  69.507  1.00  0.00     0.000 HD 
HETATM    8  O   UNL     1      -7.700  15.626  69.413  1.00  0.00    -0.211 OA 
BRANCH   6   9
HETATM    9  C   UNL     1      -8.753  16.871  67.623  1.00  0.00    -0.212 A  
HETATM   10  C   UNL     1      -9.262  18.029  67.006  1.00  0.00    -0.265 A  
HETATM   11  C   UNL     1     -10.030  17.918  65.851  1.00  0.00    -0.111 A  
HETATM   12  O   UNL     1     -10.557  19.015  65.228  1.00  0.00    -0.421 OA 
HETATM   13  C   UNL     1     -10.294  16.669  65.299  1.00  0.00    -0.092 A  
HETATM   14  H   UNL     1     -11.082  18.940  64.439  1.00  0.00     0.000 HD 
HETATM   15  C   UNL     1      -9.797  15.516  65.884  1.00  0.00    -0.385 A  
HETATM   16  O   UNL     1     -11.057  16.571  64.170  1.00  0.00    -1.280 OA 
HETATM   17  H   UNL     1     -11.237  15.718  63.793  1.00  0.00     0.000 HD 
HETATM   18  C   UNL     1      -9.030  15.616  67.048  1.00  0.00    -0.244 A  
ENDBRANCH   6   9
ENDBRANCH   2   6
TORSDOF 2
ENDMDL
MODEL      171
REMARK 921   NORMALIZED FREE ENERGY PREDICTED BY IDOCK:   -3.13 KCAL/MOL
REMARK 922        TOTAL FREE ENERGY PREDICTED BY IDOCK:   -3.70 KCAL/MOL
REMARK 923 INTER-LIGAND FREE ENERGY PREDICTED BY IDOCK:   -3.49 KCAL/MOL
REMARK 924 INTRA-LIGAND FREE ENERGY PREDICTED BY IDOCK:   -0.21 KCAL/MOL
REMARK 927      BINDING AFFINITY PREDICTED BY RF-SCORE:    0.00 PKD
ROOT
HETATM    1  C   UNL     1      -9.230   5.495  65.995  1.00  0.00    -0.168 C  
HETATM    2  C   UNL     1      -8.768   6.804  66.642  1.00  0.00    -0.127 C  
HETATM    3  N   UNL     1      -7.819   6.476  67.726  1.00  0.00    -0.109 NA 
HETATM    4  H1  UNL     1      -7.511   7.348  68.157  1.00  0.00     0.000 HD 
HETATM    5  H2  UNL     1      -7.040   5.901  67.405  1.00  0.00     0.000 HD 
ENDROOT
BRANCH   2   6
HETATM    6  C   UNL     1      -9.941   7.662  67.208  1.00  0.00    -0.208 C  
HETATM    7  H   UNL     1     -11.899   7.489  67.380  1.00  0.00     0.000 HD 
HETATM    8  O   UNL     1     -11.185   6.967  67.035  1.00  0.00    -0.369 OA 
BRANCH   6   9
HETATM    9  C   UNL     1     -10.026   9.046  66.590  1.00  0.00    -0.349 A  
HETATM   10  C   UNL     1     -10.893  10.028  67.104  1.00  0.00    -0.240 A  
HETATM   11  C   UNL     1     -10.978  11.271  66.485  1.00  0.00    -0.245 A  
HETATM   12  O   UNL     1     -11.819  12.248  66.941  1.00  0.00    -0.524 OA 
HETATM   13  C   UNL     1     -10.206  11.552  65.362  1.00  0.00    -0.264 A  
HETATM   14  H   UNL     1     -11.878  13.096  66.518  1.00  0.00     0.000 HD 
HETATM   15  C   UNL     1      -9.339  10.603  64.843  1.00  0.00    -0.271 A  
HETATM   16  O   UNL     1     -10.304  12.772  64.757  1.00  0.00    -0.310 OA 
HETATM   17  H   UNL     1      -9.777  12.963  63.990  1.00  0.00     0.000 HD 
HETATM   18  C   UNL     1      -9.252   9.350  65.455  1.00  0.00    -0.305 A  
ENDBRANCH   6   9
ENDBRANCH   2   6
TORSDOF 2
ENDMDL
MODEL      172
REMARK 921   NORMALIZED FREE ENERGY PREDICTED BY IDOCK:   -3.12 KCAL/MOL
REMARK 922        TOTAL FREE ENERGY PREDICTED BY IDOCK:   -3.70 KCAL/MOL
REMARK 923 INTER-LIGAND FREE ENERGY PREDICTED BY IDOCK:   -3.49 KCAL/MOL
REMARK 924 INTRA-LIGAND FREE ENERGY PREDICTED BY IDOCK:   -0.21 KCAL/MOL
REMARK 927      BINDING AFFINITY PREDICTED BY RF-SCORE:    0.00 PKD
ROOT
HETATM    1  C   UNL     1     -12.783   9.528  71.981  1.00  0.00    -0.479 C  
HETATM    2  C   UNL     1     -12.745   8.203  71.213  1.00  0.00    -0.206 C  
HETATM    3  N   UNL     1     -14.125   7.685  71.112  1.00  0.00    -0.661 NA 
HETATM    4  H1  UNL     1     -14.100   6.803  70.601  1.00  0.00     0.000 HD 
HETATM    5  H2  UNL     1     -14.769   8.361  70.699  1.00  0.00     0.000 HD 
ENDROOT
BRANCH   2   6
HETATM    6  C   UNL     1     -11.825   7.131  71.873  1.00  0.00    -0.300 C  
HETATM    7  H   UNL     1     -10.711   6.993  73.496  1.00  0.00     0.000 HD 
HETATM    8  O   UNL     1     -11.271   7.646  73.094  1.00  0.00    -0.391 OA 
BRANCH   6   9
HETATM    9  C   UNL     1     -10.714   6.648  70.959  1.00  0.00    -0.278 A  
HETATM   10  C   UNL     1     -10.932   6.441  69.585  1.00  0.00    -0.420 A  
HETATM   11  C   UNL     1      -9.902   5.953  68.785  1.00  0.00    -0.140 A  
HETATM   12  O   UNL     1     -10.075   5.722  67.449  1.00  0.00    -0.143 OA 
HETATM   13  C   UNL     1      -8.656   5.675  69.335  1.00  0.00    -0.106 A  
HETATM   14  H   UNL     1      -9.372   5.390  66.902  1.00  0.00     0.000 HD 
HETATM   15  C   UNL     1      -8.415   5.879  70.685  1.00  0.00    -0.129 A  
HETATM   16  O   UNL     1      -7.655   5.189  68.543  1.00  0.00    -0.077 OA 
HETATM   17  H   UNL     1      -6.804   4.999  68.919  1.00  0.00     0.000 HD 
HETATM   18  C   UNL     1      -9.445   6.362  71.497  1.00  0.00    -0.162 A  
ENDBRANCH   6   9
ENDBRANCH   2   6
TORSDOF 2
ENDMDL
MODEL      173
REMARK 921   NORMALIZED FREE ENERGY PREDICTED BY IDOCK:   -3.12 KCAL/MOL
REMARK 922        TOTAL FREE ENERGY PREDICTED BY IDOCK:   -3.70 KCAL/MOL
REMARK 923 INTER-LIGAND FREE ENERGY PREDICTED BY IDOCK:   -3.62 KCAL/MOL
REMARK 924 INTRA-LIGAND FREE ENERGY PREDICTED BY IDOCK:   -0.07 KCAL/MOL
REMARK 927      BINDING AFFINITY PREDICTED BY RF-SCORE:    0.00 PKD
ROOT
HETATM    1  C   UNL     1     -12.055  15.889  71.687  1.00  0.00    -0.554 C  
HETATM    2  C   UNL     1     -11.499  15.401  70.346  1.00  0.00    -0.330 C  
HETATM    3  N   UNL     1     -11.322  16.573  69.463  1.00  0.00    -0.307 NA 
HETATM    4  H1  UNL     1     -10.951  16.248  68.570  1.00  0.00     0.000 HD 
HETATM    5  H2  UNL     1     -10.745  17.300  69.887  1.00  0.00     0.000 HD 
ENDROOT
BRANCH   2   6
HETATM    6  C   UNL     1     -12.408  14.345  69.646  1.00  0.00    -0.255 C  
HETATM    7  H   UNL     1     -13.688  12.951  70.205  1.00  0.00     0.000 HD 
HETATM    8  O   UNL     1     -13.134  13.594  70.631  1.00  0.00    -0.135 OA 
BRANCH   6   9
HETATM    9  C   UNL     1     -11.644  13.405  68.732  1.00  0.00    -0.363 A  
HETATM   10  C   UNL     1     -11.324  12.093  69.129  1.00  0.00    -0.333 A  
HETATM   11  C   UNL     1     -10.583  11.274  68.282  1.00  0.00    -0.197 A  
HETATM   12  O   UNL     1     -10.236   9.999  68.634  1.00  0.00    -0.166 OA 
HETATM   13  C   UNL     1     -10.160  11.742  67.043  1.00  0.00    -0.209 A  
HETATM   14  H   UNL     1      -9.730   9.440  68.057  1.00  0.00     0.000 HD 
HETATM   15  C   UNL     1     -10.470  13.028  66.627  1.00  0.00    -0.271 A  
HETATM   16  O   UNL     1      -9.426  10.933  66.223  1.00  0.00    -0.183 OA 
HETATM   17  H   UNL     1      -9.138  11.253  65.377  1.00  0.00     0.000 HD 
HETATM   18  C   UNL     1     -11.209  13.859  67.473  1.00  0.00    -0.323 A  
ENDBRANCH   6   9
ENDBRANCH   2   6
TORSDOF 2
ENDMDL
MODEL      174
REMARK 921   NORMALIZED FREE ENERGY PREDICTED BY IDOCK:   -3.12 KCAL/MOL
REMARK 922        TOTAL FREE ENERGY PREDICTED BY IDOCK:   -3.70 KCAL/MOL
REMARK 923 INTER-LIGAND FREE ENERGY PREDICTED BY IDOCK:   -3.52 KCAL/MOL
REMARK 924 INTRA-LIGAND FREE ENERGY PREDICTED BY IDOCK:   -0.18 KCAL/MOL
REMARK 927      BINDING AFFINITY PREDICTED BY RF-SCORE:    0.00 PKD
ROOT
HETATM    1  C   UNL     1     -10.779  18.990  67.167  1.00  0.00    -0.541 C  
HETATM    2  C   UNL     1     -10.154  17.701  67.711  1.00  0.00    -0.338 C  
HETATM    3  N   UNL     1      -9.338  18.045  68.895  1.00  0.00    -0.213 NA 
HETATM    4  H1  UNL     1      -8.923  17.187  69.257  1.00  0.00     0.000 HD 
HETATM    5  H2  UNL     1      -9.868  18.555  69.602  1.00  0.00     0.000 HD 
ENDROOT
BRANCH   2   6
HETATM    6  C   UNL     1      -9.276  16.949  66.664  1.00  0.00    -0.256 C  
HETATM    7  H   UNL     1      -9.530  16.162  64.873  1.00  0.00     0.000 HD 
HETATM    8  O   UNL     1     -10.064  16.620  65.511  1.00  0.00    -0.553 OA 
BRANCH   6   9
HETATM    9  C   UNL     1      -8.617  15.700  67.220  1.00  0.00    -0.213 A  
HETATM   10  C   UNL     1      -9.379  14.612  67.686  1.00  0.00    -0.200 A  
HETATM   11  C   UNL     1      -8.742  13.502  68.231  1.00  0.00    -0.172 A  
HETATM   12  O   UNL     1      -9.444  12.431  68.710  1.00  0.00    -0.398 OA 
HETATM   13  C   UNL     1      -7.354  13.457  68.312  1.00  0.00    -0.113 A  
HETATM   14  H   UNL     1      -9.009  11.672  69.081  1.00  0.00     0.000 HD 
HETATM   15  C   UNL     1      -6.582  14.512  67.852  1.00  0.00    -0.178 A  
HETATM   16  O   UNL     1      -6.739  12.365  68.856  1.00  0.00    -0.087 OA 
HETATM   17  H   UNL     1      -5.792  12.335  68.912  1.00  0.00     0.000 HD 
HETATM   18  C   UNL     1      -7.214  15.634  67.309  1.00  0.00    -0.252 A  
ENDBRANCH   6   9
ENDBRANCH   2   6
TORSDOF 2
ENDMDL
MODEL      175
REMARK 921   NORMALIZED FREE ENERGY PREDICTED BY IDOCK:   -3.11 KCAL/MOL
REMARK 922        TOTAL FREE ENERGY PREDICTED BY IDOCK:   -3.69 KCAL/MOL
REMARK 923 INTER-LIGAND FREE ENERGY PREDICTED BY IDOCK:   -3.66 KCAL/MOL
REMARK 924 INTRA-LIGAND FREE ENERGY PREDICTED BY IDOCK:   -0.03 KCAL/MOL
REMARK 927      BINDING AFFINITY PREDICTED BY RF-SCORE:    0.00 PKD
ROOT
HETATM    1  C   UNL     1     -11.367  16.272  69.406  1.00  0.00    -0.284 C  
HETATM    2  C   UNL     1      -9.840  16.373  69.476  1.00  0.00    -0.119 C  
HETATM    3  N   UNL     1      -9.419  17.573  68.721  1.00  0.00    -0.273 NA 
HETATM    4  H1  UNL     1      -8.403  17.640  68.768  1.00  0.00     0.000 HD 
HETATM    5  H2  UNL     1      -9.884  18.422  69.043  1.00  0.00     0.000 HD 
ENDROOT
BRANCH   2   6
HETATM    6  C   UNL     1      -9.110  15.114  68.916  1.00  0.00    -0.206 C  
HETATM    7  H   UNL     1      -7.307  14.674  68.245  1.00  0.00     0.000 HD 
HETATM    8  O   UNL     1      -7.752  15.441  68.586  1.00  0.00    -0.129 OA 
BRANCH   6   9
HETATM    9  C   UNL     1      -9.806  14.501  67.714  1.00  0.00    -0.220 A  
HETATM   10  C   UNL     1     -10.656  13.387  67.847  1.00  0.00    -0.253 A  
HETATM   11  C   UNL     1     -11.242  12.823  66.718  1.00  0.00    -0.295 A  
HETATM   12  O   UNL     1     -12.061  11.732  66.800  1.00  0.00    -0.547 OA 
HETATM   13  C   UNL     1     -10.997  13.358  65.457  1.00  0.00    -0.283 A  
HETATM   14  H   UNL     1     -12.461  11.347  66.029  1.00  0.00     0.000 HD 
HETATM   15  C   UNL     1     -10.170  14.459  65.303  1.00  0.00    -0.416 A  
HETATM   16  O   UNL     1     -11.571  12.791  64.355  1.00  0.00    -0.324 OA 
HETATM   17  H   UNL     1     -11.403  13.156  63.494  1.00  0.00     0.000 HD 
HETATM   18  C   UNL     1      -9.573  15.028  66.430  1.00  0.00    -0.314 A  
ENDBRANCH   6   9
ENDBRANCH   2   6
TORSDOF 2
ENDMDL
MODEL      176
REMARK 921   NORMALIZED FREE ENERGY PREDICTED BY IDOCK:   -3.10 KCAL/MOL
REMARK 922        TOTAL FREE ENERGY PREDICTED BY IDOCK:   -3.67 KCAL/MOL
REMARK 923 INTER-LIGAND FREE ENERGY PREDICTED BY IDOCK:   -3.48 KCAL/MOL
REMARK 924 INTRA-LIGAND FREE ENERGY PREDICTED BY IDOCK:   -0.19 KCAL/MOL
REMARK 927      BINDING AFFINITY PREDICTED BY RF-SCORE:    0.00 PKD
ROOT
HETATM    1  C   UNL     1      -7.951  10.389  65.250  1.00  0.00    -0.143 C  
HETATM    2  C   UNL     1      -8.754   9.113  65.521  1.00  0.00    -0.181 C  
HETATM    3  N   UNL     1      -8.875   8.363  64.253  1.00  0.00    -0.382 NA 
HETATM    4  H1  UNL     1      -9.410   7.514  64.434  1.00  0.00     0.000 HD 
HETATM    5  H2  UNL     1      -7.971   8.174  63.821  1.00  0.00     0.000 HD 
ENDROOT
BRANCH   2   6
HETATM    6  C   UNL     1     -10.172   9.388  66.110  1.00  0.00    -0.194 C  
HETATM    7  H   UNL     1     -11.170  10.947  66.793  1.00  0.00     0.000 HD 
HETATM    8  O   UNL     1     -10.307  10.780  66.434  1.00  0.00    -0.239 OA 
BRANCH   6   9
HETATM    9  C   UNL     1     -10.493   8.535  67.324  1.00  0.00    -0.366 A  
HETATM   10  C   UNL     1     -10.467   9.071  68.625  1.00  0.00    -0.229 A  
HETATM   11  C   UNL     1     -10.723   8.249  69.719  1.00  0.00    -0.221 A  
HETATM   12  O   UNL     1     -10.691   8.724  71.000  1.00  0.00    -0.204 OA 
HETATM   13  C   UNL     1     -11.011   6.901  69.533  1.00  0.00    -0.250 A  
HETATM   14  H   UNL     1     -10.866   8.164  71.747  1.00  0.00     0.000 HD 
HETATM   15  C   UNL     1     -11.051   6.353  68.261  1.00  0.00    -0.359 A  
HETATM   16  O   UNL     1     -11.252   6.102  70.614  1.00  0.00    -0.310 OA 
HETATM   17  H   UNL     1     -11.449   5.181  70.487  1.00  0.00     0.000 HD 
HETATM   18  C   UNL     1     -10.789   7.170  67.157  1.00  0.00    -0.403 A  
ENDBRANCH   6   9
ENDBRANCH   2   6
TORSDOF 2
ENDMDL
MODEL      177
REMARK 921   NORMALIZED FREE ENERGY PREDICTED BY IDOCK:   -3.08 KCAL/MOL
REMARK 922        TOTAL FREE ENERGY PREDICTED BY IDOCK:   -3.65 KCAL/MOL
REMARK 923 INTER-LIGAND FREE ENERGY PREDICTED BY IDOCK:   -3.43 KCAL/MOL
REMARK 924 INTRA-LIGAND FREE ENERGY PREDICTED BY IDOCK:   -0.22 KCAL/MOL
REMARK 927      BINDING AFFINITY PREDICTED BY RF-SCORE:    0.00 PKD
ROOT
HETATM    1  C   UNL     1      -9.417   8.601  66.000  1.00  0.00    -0.278 C  
HETATM    2  C   UNL     1      -8.861   7.777  67.166  1.00  0.00    -0.125 C  
HETATM    3  N   UNL     1      -7.660   7.057  66.693  1.00  0.00    -0.088 NA 
HETATM    4  H1  UNL     1      -7.289   6.509  67.470  1.00  0.00     0.000 HD 
HETATM    5  H2  UNL     1      -6.963   7.681  66.285  1.00  0.00     0.000 HD 
ENDROOT
BRANCH   2   6
HETATM    6  C   UNL     1      -9.889   6.762  67.753  1.00  0.00    -0.126 C  
HETATM    7  H   UNL     1     -11.611   5.975  67.199  1.00  0.00     0.000 HD 
HETATM    8  O   UNL     1     -10.985   6.593  66.841  1.00  0.00    -0.376 OA 
BRANCH   6   9
HETATM    9  C   UNL     1     -10.406   7.156  69.124  1.00  0.00    -0.205 A  
HETATM   10  C   UNL     1      -9.668   8.003  69.972  1.00  0.00    -0.173 A  
HETATM   11  C   UNL     1     -10.152   8.307  71.240  1.00  0.00    -0.198 A  
HETATM   12  O   UNL     1      -9.461   9.113  72.102  1.00  0.00    -0.291 OA 
HETATM   13  C   UNL     1     -11.366   7.784  71.675  1.00  0.00    -0.253 A  
HETATM   14  H   UNL     1      -9.791   9.320  72.968  1.00  0.00     0.000 HD 
HETATM   15  C   UNL     1     -12.114   6.954  70.854  1.00  0.00    -0.424 A  
HETATM   16  O   UNL     1     -11.827   8.081  72.925  1.00  0.00    -0.589 OA 
HETATM   17  H   UNL     1     -12.656   7.724  73.221  1.00  0.00     0.000 HD 
HETATM   18  C   UNL     1     -11.633   6.638  69.581  1.00  0.00    -0.305 A  
ENDBRANCH   6   9
ENDBRANCH   2   6
TORSDOF 2
ENDMDL
MODEL      178
REMARK 921   NORMALIZED FREE ENERGY PREDICTED BY IDOCK:   -3.06 KCAL/MOL
REMARK 922        TOTAL FREE ENERGY PREDICTED BY IDOCK:   -3.63 KCAL/MOL
REMARK 923 INTER-LIGAND FREE ENERGY PREDICTED BY IDOCK:   -3.70 KCAL/MOL
REMARK 924 INTRA-LIGAND FREE ENERGY PREDICTED BY IDOCK:    0.07 KCAL/MOL
REMARK 927      BINDING AFFINITY PREDICTED BY RF-SCORE:    0.00 PKD
ROOT
HETATM    1  C   UNL     1     -10.742  17.481  67.913  1.00  0.00    -0.340 C  
HETATM    2  C   UNL     1     -10.199  18.452  66.860  1.00  0.00    -0.380 C  
HETATM    3  N   UNL     1     -10.602  17.961  65.525  1.00  0.00    -0.611 NA 
HETATM    4  H1  UNL     1     -10.240  18.608  64.824  1.00  0.00     0.000 HD 
HETATM    5  H2  UNL     1     -11.609  17.819  65.446  1.00  0.00     0.000 HD 
ENDROOT
BRANCH   2   6
HETATM    6  C   UNL     1      -8.650  18.622  66.916  1.00  0.00    -0.281 C  
HETATM    7  H   UNL     1      -7.192  18.963  65.631  1.00  0.00     0.000 HD 
HETATM    8  O   UNL     1      -8.136  18.859  65.597  1.00  0.00    -0.419 OA 
BRANCH   6   9
HETATM    9  C   UNL     1      -7.938  17.441  67.550  1.00  0.00    -0.205 A  
HETATM   10  C   UNL     1      -7.949  16.169  66.949  1.00  0.00    -0.279 A  
HETATM   11  C   UNL     1      -7.323  15.099  67.582  1.00  0.00    -0.183 A  
HETATM   12  O   UNL     1      -7.323  13.842  67.042  1.00  0.00    -0.321 OA 
HETATM   13  C   UNL     1      -6.682  15.280  68.802  1.00  0.00    -0.103 A  
HETATM   14  H   UNL     1      -6.896  13.112  67.473  1.00  0.00     0.000 HD 
HETATM   15  C   UNL     1      -6.651  16.526  69.409  1.00  0.00    -0.213 A  
HETATM   16  O   UNL     1      -6.078  14.221  69.419  1.00  0.00    -0.097 OA 
HETATM   17  H   UNL     1      -5.641  14.345  70.252  1.00  0.00     0.000 HD 
HETATM   18  C   UNL     1      -7.282  17.605  68.784  1.00  0.00    -0.268 A  
ENDBRANCH   6   9
ENDBRANCH   2   6
TORSDOF 2
ENDMDL
MODEL      179
REMARK 921   NORMALIZED FREE ENERGY PREDICTED BY IDOCK:   -3.05 KCAL/MOL
REMARK 922        TOTAL FREE ENERGY PREDICTED BY IDOCK:   -3.62 KCAL/MOL
REMARK 923 INTER-LIGAND FREE ENERGY PREDICTED BY IDOCK:   -3.51 KCAL/MOL
REMARK 924 INTRA-LIGAND FREE ENERGY PREDICTED BY IDOCK:   -0.11 KCAL/MOL
REMARK 927      BINDING AFFINITY PREDICTED BY RF-SCORE:    0.00 PKD
ROOT
HETATM    1  C   UNL     1     -11.935  15.895  71.566  1.00  0.00    -0.537 C  
HETATM    2  C   UNL     1     -10.911  15.961  70.429  1.00  0.00    -0.313 C  
HETATM    3  N   UNL     1     -10.939  17.324  69.858  1.00  0.00    -0.151 NA 
HETATM    4  H1  UNL     1     -10.257  17.368  69.101  1.00  0.00     0.000 HD 
HETATM    5  H2  UNL     1     -10.793  18.048  70.562  1.00  0.00     0.000 HD 
ENDROOT
BRANCH   2   6
HETATM    6  C   UNL     1     -11.165  14.911  69.304  1.00  0.00    -0.284 C  
HETATM    7  H   UNL     1     -12.086  13.174  69.139  1.00  0.00     0.000 HD 
HETATM    8  O   UNL     1     -11.930  13.813  69.824  1.00  0.00    -0.305 OA 
BRANCH   6   9
HETATM    9  C   UNL     1      -9.890  14.400  68.659  1.00  0.00    -0.231 A  
HETATM   10  C   UNL     1      -9.914  13.372  67.699  1.00  0.00    -0.229 A  
HETATM   11  C   UNL     1      -8.721  12.897  67.162  1.00  0.00    -0.205 A  
HETATM   12  O   UNL     1      -8.697  11.889  66.239  1.00  0.00    -0.321 OA 
HETATM   13  C   UNL     1      -7.504  13.438  67.563  1.00  0.00    -0.162 A  
HETATM   14  H   UNL     1      -7.883  11.565  65.872  1.00  0.00     0.000 HD 
HETATM   15  C   UNL     1      -7.457  14.458  68.501  1.00  0.00    -0.122 A  
HETATM   16  O   UNL     1      -6.339  12.960  67.036  1.00  0.00    -0.477 OA 
HETATM   17  H   UNL     1      -5.508  13.329  67.310  1.00  0.00     0.000 HD 
HETATM   18  C   UNL     1      -8.649  14.936  69.051  1.00  0.00    -0.170 A  
ENDBRANCH   6   9
ENDBRANCH   2   6
TORSDOF 2
ENDMDL
MODEL      180
REMARK 921   NORMALIZED FREE ENERGY PREDICTED BY IDOCK:   -3.04 KCAL/MOL
REMARK 922        TOTAL FREE ENERGY PREDICTED BY IDOCK:   -3.61 KCAL/MOL
REMARK 923 INTER-LIGAND FREE ENERGY PREDICTED BY IDOCK:   -3.36 KCAL/MOL
REMARK 924 INTRA-LIGAND FREE ENERGY PREDICTED BY IDOCK:   -0.25 KCAL/MOL
REMARK 927      BINDING AFFINITY PREDICTED BY RF-SCORE:    0.00 PKD
ROOT
HETATM    1  C   UNL     1      -9.823   4.891  70.667  1.00  0.00    -0.289 C  
HETATM    2  C   UNL     1      -8.701   5.930  70.770  1.00  0.00    -0.134 C  
HETATM    3  N   UNL     1      -7.431   5.217  71.024  1.00  0.00    -0.076 NA 
HETATM    4  H1  UNL     1      -6.685   5.908  71.092  1.00  0.00     0.000 HD 
HETATM    5  H2  UNL     1      -7.239   4.498  70.326  1.00  0.00     0.000 HD 
ENDROOT
BRANCH   2   6
HETATM    6  C   UNL     1      -8.943   6.993  71.885  1.00  0.00    -0.132 C  
HETATM    7  H   UNL     1      -9.125   7.003  73.849  1.00  0.00     0.000 HD 
HETATM    8  O   UNL     1      -8.979   6.356  73.170  1.00  0.00    -0.130 OA 
BRANCH   6   9
HETATM    9  C   UNL     1     -10.203   7.811  71.672  1.00  0.00    -0.225 A  
HETATM   10  C   UNL     1     -10.381   8.599  70.519  1.00  0.00    -0.234 A  
HETATM   11  C   UNL     1     -11.530   9.371  70.378  1.00  0.00    -0.223 A  
HETATM   12  O   UNL     1     -11.736  10.163  69.282  1.00  0.00    -0.468 OA 
HETATM   13  C   UNL     1     -12.507   9.366  71.368  1.00  0.00    -0.352 A  
HETATM   14  H   UNL     1     -12.521  10.690  69.186  1.00  0.00     0.000 HD 
HETATM   15  C   UNL     1     -12.357   8.592  72.508  1.00  0.00    -0.378 A  
HETATM   16  O   UNL     1     -13.627  10.135  71.223  1.00  0.00    -0.280 OA 
HETATM   17  H   UNL     1     -14.294  10.131  71.899  1.00  0.00     0.000 HD 
HETATM   18  C   UNL     1     -11.204   7.818  72.661  1.00  0.00    -0.438 A  
ENDBRANCH   6   9
ENDBRANCH   2   6
TORSDOF 2
ENDMDL
MODEL      181
REMARK 921   NORMALIZED FREE ENERGY PREDICTED BY IDOCK:   -3.02 KCAL/MOL
REMARK 922        TOTAL FREE ENERGY PREDICTED BY IDOCK:   -3.59 KCAL/MOL
REMARK 923 INTER-LIGAND FREE ENERGY PREDICTED BY IDOCK:   -3.42 KCAL/MOL
REMARK 924 INTRA-LIGAND FREE ENERGY PREDICTED BY IDOCK:   -0.17 KCAL/MOL
REMARK 927      BINDING AFFINITY PREDICTED BY RF-SCORE:    0.00 PKD
ROOT
HETATM    1  C   UNL     1      -6.131  14.162  70.488  1.00  0.00    -0.174 C  
HETATM    2  C   UNL     1      -6.884  13.898  69.180  1.00  0.00    -0.108 C  
HETATM    3  N   UNL     1      -5.935  13.317  68.207  1.00  0.00    -0.080 NA 
HETATM    4  H1  UNL     1      -6.437  13.141  67.336  1.00  0.00     0.000 HD 
HETATM    5  H2  UNL     1      -5.466  12.484  68.565  1.00  0.00     0.000 HD 
ENDROOT
BRANCH   2   6
HETATM    6  C   UNL     1      -7.543  15.176  68.577  1.00  0.00    -0.120 C  
HETATM    7  H   UNL     1      -8.010  16.988  69.204  1.00  0.00     0.000 HD 
HETATM    8  O   UNL     1      -7.609  16.209  69.571  1.00  0.00    -0.207 OA 
BRANCH   6   9
HETATM    9  C   UNL     1      -8.921  14.924  67.994  1.00  0.00    -0.172 A  
HETATM   10  C   UNL     1     -10.091  15.231  68.714  1.00  0.00    -0.219 A  
HETATM   11  C   UNL     1     -11.337  14.944  68.167  1.00  0.00    -0.312 A  
HETATM   12  O   UNL     1     -12.498  15.210  68.838  1.00  0.00    -0.588 OA 
HETATM   13  C   UNL     1     -11.436  14.361  66.908  1.00  0.00    -0.366 A  
HETATM   14  H   UNL     1     -13.349  15.015  68.465  1.00  0.00     0.000 HD 
HETATM   15  C   UNL     1     -10.298  14.057  66.176  1.00  0.00    -0.301 A  
HETATM   16  O   UNL     1     -12.664  14.076  66.383  1.00  0.00    -0.501 OA 
HETATM   17  H   UNL     1     -12.731  13.678  65.524  1.00  0.00     0.000 HD 
HETATM   18  C   UNL     1      -9.042  14.336  66.720  1.00  0.00    -0.269 A  
ENDBRANCH   6   9
ENDBRANCH   2   6
TORSDOF 2
ENDMDL
MODEL      182
REMARK 921   NORMALIZED FREE ENERGY PREDICTED BY IDOCK:   -3.01 KCAL/MOL
REMARK 922        TOTAL FREE ENERGY PREDICTED BY IDOCK:   -3.57 KCAL/MOL
REMARK 923 INTER-LIGAND FREE ENERGY PREDICTED BY IDOCK:   -3.37 KCAL/MOL
REMARK 924 INTRA-LIGAND FREE ENERGY PREDICTED BY IDOCK:   -0.20 KCAL/MOL
REMARK 927      BINDING AFFINITY PREDICTED BY RF-SCORE:    0.00 PKD
ROOT
HETATM    1  C   UNL     1     -10.646  12.790  66.576  1.00  0.00    -0.270 C  
HETATM    2  C   UNL     1     -10.008  13.639  67.680  1.00  0.00    -0.239 C  
HETATM    3  N   UNL     1     -10.473  13.127  68.986  1.00  0.00    -0.432 NA 
HETATM    4  H1  UNL     1     -10.048  13.692  69.721  1.00  0.00     0.000 HD 
HETATM    5  H2  UNL     1     -10.294  12.130  69.104  1.00  0.00     0.000 HD 
ENDROOT
BRANCH   2   6
HETATM    6  C   UNL     1     -10.336  15.158  67.560  1.00  0.00    -0.242 C  
HETATM    7  H   UNL     1     -11.340  16.321  66.322  1.00  0.00     0.000 HD 
HETATM    8  O   UNL     1     -11.141  15.395  66.395  1.00  0.00    -0.313 OA 
BRANCH   6   9
HETATM    9  C   UNL     1      -9.100  16.039  67.529  1.00  0.00    -0.203 A  
HETATM   10  C   UNL     1      -8.323  16.256  68.682  1.00  0.00    -0.220 A  
HETATM   11  C   UNL     1      -7.222  17.105  68.627  1.00  0.00    -0.229 A  
HETATM   12  O   UNL     1      -6.450  17.357  69.727  1.00  0.00    -0.215 OA 
HETATM   13  C   UNL     1      -6.881  17.738  67.437  1.00  0.00    -0.168 A  
HETATM   14  H   UNL     1      -5.699  17.936  69.690  1.00  0.00     0.000 HD 
HETATM   15  C   UNL     1      -7.626  17.533  66.286  1.00  0.00    -0.343 A  
HETATM   16  O   UNL     1      -5.803  18.576  67.396  1.00  0.00    -0.154 OA 
HETATM   17  H   UNL     1      -5.570  19.008  66.583  1.00  0.00     0.000 HD 
HETATM   18  C   UNL     1      -8.737  16.687  66.333  1.00  0.00    -0.345 A  
ENDBRANCH   6   9
ENDBRANCH   2   6
TORSDOF 2
ENDMDL
MODEL      183
REMARK 921   NORMALIZED FREE ENERGY PREDICTED BY IDOCK:   -2.98 KCAL/MOL
REMARK 922        TOTAL FREE ENERGY PREDICTED BY IDOCK:   -3.54 KCAL/MOL
REMARK 923 INTER-LIGAND FREE ENERGY PREDICTED BY IDOCK:   -3.36 KCAL/MOL
REMARK 924 INTRA-LIGAND FREE ENERGY PREDICTED BY IDOCK:   -0.19 KCAL/MOL
REMARK 927      BINDING AFFINITY PREDICTED BY RF-SCORE:    0.00 PKD
ROOT
HETATM    1  C   UNL     1      -9.461   3.586  68.012  1.00  0.00    -0.217 C  
HETATM    2  C   UNL     1      -9.607   5.111  68.028  1.00  0.00    -0.136 C  
HETATM    3  N   UNL     1      -9.140   5.636  66.728  1.00  0.00    -0.118 NA 
HETATM    4  H1  UNL     1      -9.238   6.651  66.739  1.00  0.00     0.000 HD 
HETATM    5  H2  UNL     1      -9.617   5.204  65.936  1.00  0.00     0.000 HD 
ENDROOT
BRANCH   2   6
HETATM    6  C   UNL     1      -8.820   5.795  69.188  1.00  0.00    -0.112 C  
HETATM    7  H   UNL     1      -7.443   5.270  70.499  1.00  0.00     0.000 HD 
HETATM    8  O   UNL     1      -7.922   4.854  69.793  1.00  0.00    -0.068 OA 
BRANCH   6   9
HETATM    9  C   UNL     1      -9.721   6.411  70.243  1.00  0.00    -0.186 A  
HETATM   10  C   UNL     1     -10.528   5.613  71.076  1.00  0.00    -0.316 A  
HETATM   11  C   UNL     1     -11.375   6.214  72.002  1.00  0.00    -0.297 A  
HETATM   12  O   UNL     1     -12.188   5.478  72.819  1.00  0.00    -0.497 OA 
HETATM   13  C   UNL     1     -11.425   7.600  72.115  1.00  0.00    -0.298 A  
HETATM   14  H   UNL     1     -12.766   5.888  73.452  1.00  0.00     0.000 HD 
HETATM   15  C   UNL     1     -10.633   8.405  71.311  1.00  0.00    -0.279 A  
HETATM   16  O   UNL     1     -12.266   8.179  73.021  1.00  0.00    -0.655 OA 
HETATM   17  H   UNL     1     -12.300   9.125  73.098  1.00  0.00     0.000 HD 
HETATM   18  C   UNL     1      -9.784   7.811  70.374  1.00  0.00    -0.179 A  
ENDBRANCH   6   9
ENDBRANCH   2   6
TORSDOF 2
ENDMDL
MODEL      184
REMARK 921   NORMALIZED FREE ENERGY PREDICTED BY IDOCK:   -2.98 KCAL/MOL
REMARK 922        TOTAL FREE ENERGY PREDICTED BY IDOCK:   -3.54 KCAL/MOL
REMARK 923 INTER-LIGAND FREE ENERGY PREDICTED BY IDOCK:   -3.30 KCAL/MOL
REMARK 924 INTRA-LIGAND FREE ENERGY PREDICTED BY IDOCK:   -0.24 KCAL/MOL
REMARK 927      BINDING AFFINITY PREDICTED BY RF-SCORE:    0.00 PKD
ROOT
HETATM    1  C   UNL     1     -11.661   5.319  72.760  1.00  0.00    -0.214 C  
HETATM    2  C   UNL     1     -10.160   5.404  72.467  1.00  0.00    -0.175 C  
HETATM    3  N   UNL     1      -9.457   5.703  73.733  1.00  0.00    -0.137 NA 
HETATM    4  H1  UNL     1      -8.457   5.760  73.538  1.00  0.00     0.000 HD 
HETATM    5  H2  UNL     1      -9.676   5.035  74.471  1.00  0.00     0.000 HD 
ENDROOT
BRANCH   2   6
HETATM    6  C   UNL     1      -9.798   6.476  71.395  1.00  0.00    -0.176 C  
HETATM    7  H   UNL     1     -10.385   8.301  70.928  1.00  0.00     0.000 HD 
HETATM    8  O   UNL     1     -10.606   7.648  71.581  1.00  0.00    -0.202 OA 
BRANCH   6   9
HETATM    9  C   UNL     1      -9.933   5.971  69.970  1.00  0.00    -0.227 A  
HETATM   10  C   UNL     1     -10.703   6.661  69.015  1.00  0.00    -0.299 A  
HETATM   11  C   UNL     1     -10.841   6.144  67.731  1.00  0.00    -0.325 A  
HETATM   12  O   UNL     1     -11.593   6.773  66.778  1.00  0.00    -0.655 OA 
HETATM   13  C   UNL     1     -10.217   4.951  67.382  1.00  0.00    -0.118 A  
HETATM   14  H   UNL     1     -11.687   6.421  65.901  1.00  0.00     0.000 HD 
HETATM   15  C   UNL     1      -9.447   4.258  68.302  1.00  0.00    -0.212 A  
HETATM   16  O   UNL     1     -10.366   4.448  66.121  1.00  0.00    -0.363 OA 
HETATM   17  H   UNL     1      -9.940   3.634  65.882  1.00  0.00     0.000 HD 
HETATM   18  C   UNL     1      -9.307   4.766  69.597  1.00  0.00    -0.198 A  
ENDBRANCH   6   9
ENDBRANCH   2   6
TORSDOF 2
ENDMDL
MODEL      185
REMARK 921   NORMALIZED FREE ENERGY PREDICTED BY IDOCK:   -2.98 KCAL/MOL
REMARK 922        TOTAL FREE ENERGY PREDICTED BY IDOCK:   -3.54 KCAL/MOL
REMARK 923 INTER-LIGAND FREE ENERGY PREDICTED BY IDOCK:   -3.58 KCAL/MOL
REMARK 924 INTRA-LIGAND FREE ENERGY PREDICTED BY IDOCK:    0.04 KCAL/MOL
REMARK 927      BINDING AFFINITY PREDICTED BY RF-SCORE:    0.00 PKD
ROOT
HETATM    1  C   UNL     1     -12.724  12.118  63.873  1.00  0.00    -0.487 C  
HETATM    2  C   UNL     1     -11.195  12.211  63.858  1.00  0.00    -0.415 C  
HETATM    3  N   UNL     1     -10.662  10.996  63.206  1.00  0.00    -0.752 NA 
HETATM    4  H1  UNL     1      -9.644  11.058  63.197  1.00  0.00     0.000 HD 
HETATM    5  H2  UNL     1     -11.056  10.844  62.277  1.00  0.00     0.000 HD 
ENDROOT
BRANCH   2   6
HETATM    6  C   UNL     1     -10.571  12.366  65.279  1.00  0.00    -0.290 C  
HETATM    7  H   UNL     1      -9.166  13.465  66.122  1.00  0.00     0.000 HD 
HETATM    8  O   UNL     1      -9.546  13.370  65.257  1.00  0.00    -0.024 OA 
BRANCH   6   9
HETATM    9  C   UNL     1     -10.017  11.067  65.837  1.00  0.00    -0.289 A  
HETATM   10  C   UNL     1     -10.824  10.182  66.575  1.00  0.00    -0.043 A  
HETATM   11  C   UNL     1     -10.272   9.022  67.110  1.00  0.00    -0.265 A  
HETATM   12  O   UNL     1     -11.015   8.143  67.847  1.00  0.00    -0.480 OA 
HETATM   13  C   UNL     1      -8.926   8.728  66.914  1.00  0.00    -0.132 A  
HETATM   14  H   UNL     1     -10.638   7.351  68.212  1.00  0.00     0.000 HD 
HETATM   15  C   UNL     1      -8.114   9.581  66.183  1.00  0.00    -0.111 A  
HETATM   16  O   UNL     1      -8.392   7.592  67.450  1.00  0.00    -0.111 OA 
HETATM   17  H   UNL     1      -7.474   7.391  67.316  1.00  0.00     0.000 HD 
HETATM   18  C   UNL     1      -8.659  10.751  65.647  1.00  0.00    -0.185 A  
ENDBRANCH   6   9
ENDBRANCH   2   6
TORSDOF 2
ENDMDL
MODEL      186
REMARK 921   NORMALIZED FREE ENERGY PREDICTED BY IDOCK:   -2.96 KCAL/MOL
REMARK 922        TOTAL FREE ENERGY PREDICTED BY IDOCK:   -3.52 KCAL/MOL
REMARK 923 INTER-LIGAND FREE ENERGY PREDICTED BY IDOCK:   -3.31 KCAL/MOL
REMARK 924 INTRA-LIGAND FREE ENERGY PREDICTED BY IDOCK:   -0.21 KCAL/MOL
REMARK 927      BINDING AFFINITY PREDICTED BY RF-SCORE:    0.00 PKD
ROOT
HETATM    1  C   UNL     1     -10.797  14.513  69.009  1.00  0.00    -0.265 C  
HETATM    2  C   UNL     1     -11.248  13.600  67.864  1.00  0.00    -0.274 C  
HETATM    3  N   UNL     1     -12.295  14.304  67.095  1.00  0.00    -0.586 NA 
HETATM    4  H1  UNL     1     -12.595  13.696  66.332  1.00  0.00     0.000 HD 
HETATM    5  H2  UNL     1     -11.993  15.222  66.769  1.00  0.00     0.000 HD 
ENDROOT
BRANCH   2   6
HETATM    6  C   UNL     1     -11.786  12.219  68.349  1.00  0.00    -0.337 C  
HETATM    7  H   UNL     1     -12.485  11.456  70.028  1.00  0.00     0.000 HD 
HETATM    8  O   UNL     1     -12.157  12.296  69.733  1.00  0.00    -0.287 OA 
BRANCH   6   9
HETATM    9  C   UNL     1     -10.803  11.082  68.135  1.00  0.00    -0.274 A  
HETATM   10  C   UNL     1     -10.070  10.534  69.203  1.00  0.00    -0.240 A  
HETATM   11  C   UNL     1      -9.145   9.523  68.963  1.00  0.00    -0.144 A  
HETATM   12  O   UNL     1      -8.399   8.974  69.969  1.00  0.00    -0.118 OA 
HETATM   13  C   UNL     1      -8.944   9.046  67.672  1.00  0.00    -0.123 A  
HETATM   14  H   UNL     1      -7.768   8.283  69.805  1.00  0.00     0.000 HD 
HETATM   15  C   UNL     1      -9.660   9.564  66.605  1.00  0.00    -0.243 A  
HETATM   16  O   UNL     1      -8.027   8.059  67.446  1.00  0.00    -0.117 OA 
HETATM   17  H   UNL     1      -7.890   7.733  66.564  1.00  0.00     0.000 HD 
HETATM   18  C   UNL     1     -10.587  10.584  66.836  1.00  0.00    -0.303 A  
ENDBRANCH   6   9
ENDBRANCH   2   6
TORSDOF 2
ENDMDL
MODEL      187
REMARK 921   NORMALIZED FREE ENERGY PREDICTED BY IDOCK:   -2.95 KCAL/MOL
REMARK 922        TOTAL FREE ENERGY PREDICTED BY IDOCK:   -3.51 KCAL/MOL
REMARK 923 INTER-LIGAND FREE ENERGY PREDICTED BY IDOCK:   -3.30 KCAL/MOL
REMARK 924 INTRA-LIGAND FREE ENERGY PREDICTED BY IDOCK:   -0.21 KCAL/MOL
REMARK 927      BINDING AFFINITY PREDICTED BY RF-SCORE:    0.00 PKD
ROOT
HETATM    1  C   UNL     1      -9.744   4.973  65.628  1.00  0.00    -0.124 C  
HETATM    2  C   UNL     1      -9.052   6.150  66.322  1.00  0.00    -0.154 C  
HETATM    3  N   UNL     1      -8.069   5.608  67.283  1.00  0.00    -0.102 NA 
HETATM    4  H1  UNL     1      -7.608   6.392  67.745  1.00  0.00     0.000 HD 
HETATM    5  H2  UNL     1      -7.408   4.965  66.848  1.00  0.00     0.000 HD 
ENDROOT
BRANCH   2   6
HETATM    6  C   UNL     1     -10.042   7.104  67.059  1.00  0.00    -0.238 C  
HETATM    7  H   UNL     1     -11.995   7.246  67.296  1.00  0.00     0.000 HD 
HETATM    8  O   UNL     1     -11.392   6.666  66.848  1.00  0.00    -0.333 OA 
BRANCH   6   9
HETATM    9  C   UNL     1      -9.894   8.557  66.648  1.00  0.00    -0.342 A  
HETATM   10  C   UNL     1      -8.954   8.955  65.679  1.00  0.00    -0.249 A  
HETATM   11  C   UNL     1      -8.814  10.302  65.359  1.00  0.00    -0.172 A  
HETATM   12  O   UNL     1      -7.903  10.733  64.436  1.00  0.00    -0.358 OA 
HETATM   13  C   UNL     1      -9.603  11.259  65.988  1.00  0.00    -0.218 A  
HETATM   14  H   UNL     1      -7.808  11.653  64.218  1.00  0.00     0.000 HD 
HETATM   15  C   UNL     1     -10.542  10.891  66.940  1.00  0.00    -0.312 A  
HETATM   16  O   UNL     1      -9.453  12.580  65.673  1.00  0.00    -0.428 OA 
HETATM   17  H   UNL     1      -9.991  13.233  66.103  1.00  0.00     0.000 HD 
HETATM   18  C   UNL     1     -10.684   9.541  67.271  1.00  0.00    -0.269 A  
ENDBRANCH   6   9
ENDBRANCH   2   6
TORSDOF 2
ENDMDL
MODEL      188
REMARK 921   NORMALIZED FREE ENERGY PREDICTED BY IDOCK:   -2.93 KCAL/MOL
REMARK 922        TOTAL FREE ENERGY PREDICTED BY IDOCK:   -3.48 KCAL/MOL
REMARK 923 INTER-LIGAND FREE ENERGY PREDICTED BY IDOCK:   -3.56 KCAL/MOL
REMARK 924 INTRA-LIGAND FREE ENERGY PREDICTED BY IDOCK:    0.08 KCAL/MOL
REMARK 927      BINDING AFFINITY PREDICTED BY RF-SCORE:    0.00 PKD
ROOT
HETATM    1  C   UNL     1     -10.338   9.246  69.101  1.00  0.00    -0.222 C  
HETATM    2  C   UNL     1     -10.801   9.220  67.641  1.00  0.00    -0.119 C  
HETATM    3  N   UNL     1     -10.690   7.833  67.144  1.00  0.00    -0.479 NA 
HETATM    4  H1  UNL     1     -10.999   7.816  66.172  1.00  0.00     0.000 HD 
HETATM    5  H2  UNL     1     -11.194   7.165  67.728  1.00  0.00     0.000 HD 
ENDROOT
BRANCH   2   6
HETATM    6  C   UNL     1      -9.990  10.179  66.717  1.00  0.00    -0.211 C  
HETATM    7  H   UNL     1      -8.089  10.544  66.336  1.00  0.00     0.000 HD 
HETATM    8  O   UNL     1      -8.583   9.961  66.898  1.00  0.00    -0.127 OA 
BRANCH   6   9
HETATM    9  C   UNL     1     -10.323  11.645  66.932  1.00  0.00    -0.253 A  
HETATM   10  C   UNL     1      -9.950  12.317  68.110  1.00  0.00    -0.210 A  
HETATM   11  C   UNL     1     -10.311  13.648  68.293  1.00  0.00    -0.251 A  
HETATM   12  O   UNL     1      -9.984  14.335  69.429  1.00  0.00    -0.421 OA 
HETATM   13  C   UNL     1     -11.034  14.322  67.313  1.00  0.00    -0.297 A  
HETATM   14  H   UNL     1     -10.230  15.244  69.553  1.00  0.00     0.000 HD 
HETATM   15  C   UNL     1     -11.405  13.683  66.141  1.00  0.00    -0.324 A  
HETATM   16  O   UNL     1     -11.391  15.626  67.506  1.00  0.00    -0.300 OA 
HETATM   17  H   UNL     1     -11.884  16.085  66.838  1.00  0.00     0.000 HD 
HETATM   18  C   UNL     1     -11.052  12.344  65.952  1.00  0.00    -0.349 A  
ENDBRANCH   6   9
ENDBRANCH   2   6
TORSDOF 2
ENDMDL
MODEL      189
REMARK 921   NORMALIZED FREE ENERGY PREDICTED BY IDOCK:   -2.93 KCAL/MOL
REMARK 922        TOTAL FREE ENERGY PREDICTED BY IDOCK:   -3.48 KCAL/MOL
REMARK 923 INTER-LIGAND FREE ENERGY PREDICTED BY IDOCK:   -3.64 KCAL/MOL
REMARK 924 INTRA-LIGAND FREE ENERGY PREDICTED BY IDOCK:    0.16 KCAL/MOL
REMARK 927      BINDING AFFINITY PREDICTED BY RF-SCORE:    0.00 PKD
ROOT
HETATM    1  C   UNL     1     -11.982  13.551  69.427  1.00  0.00    -0.383 C  
HETATM    2  C   UNL     1     -11.640  12.306  68.603  1.00  0.00    -0.323 C  
HETATM    3  N   UNL     1     -10.531  11.596  69.274  1.00  0.00    -0.427 NA 
HETATM    4  H1  UNL     1     -10.303  10.767  68.725  1.00  0.00     0.000 HD 
HETATM    5  H2  UNL     1     -10.737  11.378  70.249  1.00  0.00     0.000 HD 
ENDROOT
BRANCH   2   6
HETATM    6  C   UNL     1     -11.246  12.628  67.129  1.00  0.00    -0.300 C  
HETATM    7  H   UNL     1     -12.154  12.695  65.378  1.00  0.00     0.000 HD 
HETATM    8  O   UNL     1     -12.393  12.498  66.276  1.00  0.00    -0.570 OA 
BRANCH   6   9
HETATM    9  C   UNL     1     -10.109  11.768  66.609  1.00  0.00    -0.231 A  
HETATM   10  C   UNL     1      -8.764  12.112  66.838  1.00  0.00    -0.194 A  
HETATM   11  C   UNL     1      -7.746  11.325  66.308  1.00  0.00    -0.053 A  
HETATM   12  O   UNL     1      -6.427  11.631  66.493  1.00  0.00    -0.313 OA 
HETATM   13  C   UNL     1      -8.051  10.194  65.557  1.00  0.00    -0.147 A  
HETATM   14  H   UNL     1      -5.732  11.093  66.131  1.00  0.00     0.000 HD 
HETATM   15  C   UNL     1      -9.368   9.831  65.325  1.00  0.00    -0.315 A  
HETATM   16  O   UNL     1      -7.045   9.433  65.034  1.00  0.00    -0.095 OA 
HETATM   17  H   UNL     1      -7.253   8.661  64.521  1.00  0.00     0.000 HD 
HETATM   18  C   UNL     1     -10.396  10.619  65.848  1.00  0.00    -0.291 A  
ENDBRANCH   6   9
ENDBRANCH   2   6
TORSDOF 2
ENDMDL
MODEL      190
REMARK 921   NORMALIZED FREE ENERGY PREDICTED BY IDOCK:   -2.89 KCAL/MOL
REMARK 922        TOTAL FREE ENERGY PREDICTED BY IDOCK:   -3.43 KCAL/MOL
REMARK 923 INTER-LIGAND FREE ENERGY PREDICTED BY IDOCK:   -3.49 KCAL/MOL
REMARK 924 INTRA-LIGAND FREE ENERGY PREDICTED BY IDOCK:    0.06 KCAL/MOL
REMARK 927      BINDING AFFINITY PREDICTED BY RF-SCORE:    0.00 PKD
ROOT
HETATM    1  C   UNL     1      -7.735   9.668  70.126  1.00  0.00    -0.179 C  
HETATM    2  C   UNL     1      -8.812   9.852  69.052  1.00  0.00    -0.156 C  
HETATM    3  N   UNL     1      -9.599  11.058  69.386  1.00  0.00    -0.422 NA 
HETATM    4  H1  UNL     1     -10.316  11.181  68.671  1.00  0.00     0.000 HD 
HETATM    5  H2  UNL     1      -9.016  11.887  69.504  1.00  0.00     0.000 HD 
ENDROOT
BRANCH   2   6
HETATM    6  C   UNL     1      -9.763   8.624  68.912  1.00  0.00    -0.170 C  
HETATM    7  H   UNL     1     -11.535   8.257  68.127  1.00  0.00     0.000 HD 
HETATM    8  O   UNL     1     -10.957   9.005  68.213  1.00  0.00    -0.079 OA 
BRANCH   6   9
HETATM    9  C   UNL     1     -10.118   7.984  70.241  1.00  0.00    -0.192 A  
HETATM   10  C   UNL     1     -11.223   8.421  70.995  1.00  0.00    -0.304 A  
HETATM   11  C   UNL     1     -11.492   7.841  72.231  1.00  0.00    -0.332 A  
HETATM   12  O   UNL     1     -12.545   8.246  73.003  1.00  0.00    -0.680 OA 
HETATM   13  C   UNL     1     -10.678   6.827  72.725  1.00  0.00    -0.246 A  
HETATM   14  H   UNL     1     -12.730   7.851  73.847  1.00  0.00     0.000 HD 
HETATM   15  C   UNL     1      -9.589   6.374  71.997  1.00  0.00    -0.157 A  
HETATM   16  O   UNL     1     -10.947   6.271  73.943  1.00  0.00    -0.412 OA 
HETATM   17  H   UNL     1     -10.391   5.579  74.280  1.00  0.00     0.000 HD 
HETATM   18  C   UNL     1      -9.307   6.955  70.757  1.00  0.00    -0.161 A  
ENDBRANCH   6   9
ENDBRANCH   2   6
TORSDOF 2
ENDMDL
MODEL      191
REMARK 921   NORMALIZED FREE ENERGY PREDICTED BY IDOCK:   -2.88 KCAL/MOL
REMARK 922        TOTAL FREE ENERGY PREDICTED BY IDOCK:   -3.43 KCAL/MOL
REMARK 923 INTER-LIGAND FREE ENERGY PREDICTED BY IDOCK:   -3.51 KCAL/MOL
REMARK 924 INTRA-LIGAND FREE ENERGY PREDICTED BY IDOCK:    0.09 KCAL/MOL
REMARK 927      BINDING AFFINITY PREDICTED BY RF-SCORE:    0.00 PKD
ROOT
HETATM    1  C   UNL     1     -12.867   9.945  71.678  1.00  0.00    -0.537 C  
HETATM    2  C   UNL     1     -12.723   8.420  71.706  1.00  0.00    -0.342 C  
HETATM    3  N   UNL     1     -12.242   8.024  73.047  1.00  0.00    -0.645 NA 
HETATM    4  H1  UNL     1     -12.147   7.009  73.066  1.00  0.00     0.000 HD 
HETATM    5  H2  UNL     1     -12.837   8.377  73.797  1.00  0.00     0.000 HD 
ENDROOT
BRANCH   2   6
HETATM    6  C   UNL     1     -11.755   7.869  70.614  1.00  0.00    -0.157 C  
HETATM    7  H   UNL     1     -11.127   6.100  70.007  1.00  0.00     0.000 HD 
HETATM    8  O   UNL     1     -11.716   6.436  70.672  1.00  0.00    -0.373 OA 
BRANCH   6   9
HETATM    9  C   UNL     1     -10.351   8.435  70.715  1.00  0.00    -0.228 A  
HETATM   10  C   UNL     1      -9.977   9.602  70.024  1.00  0.00    -0.288 A  
HETATM   11  C   UNL     1      -8.668  10.067  70.105  1.00  0.00     0.010 A  
HETATM   12  O   UNL     1      -8.258  11.187  69.437  1.00  0.00    -0.376 OA 
HETATM   13  C   UNL     1      -7.726   9.387  70.870  1.00  0.00    -0.054 A  
HETATM   14  H   UNL     1      -7.365  11.505  69.491  1.00  0.00     0.000 HD 
HETATM   15  C   UNL     1      -8.072   8.240  71.566  1.00  0.00    -0.158 A  
HETATM   16  O   UNL     1      -6.442   9.847  70.935  1.00  0.00    -0.200 OA 
HETATM   17  H   UNL     1      -5.799   9.383  71.457  1.00  0.00     0.000 HD 
HETATM   18  C   UNL     1      -9.383   7.762  71.486  1.00  0.00    -0.165 A  
ENDBRANCH   6   9
ENDBRANCH   2   6
TORSDOF 2
ENDMDL
MODEL      192
REMARK 921   NORMALIZED FREE ENERGY PREDICTED BY IDOCK:   -2.87 KCAL/MOL
REMARK 922        TOTAL FREE ENERGY PREDICTED BY IDOCK:   -3.42 KCAL/MOL
REMARK 923 INTER-LIGAND FREE ENERGY PREDICTED BY IDOCK:   -3.34 KCAL/MOL
REMARK 924 INTRA-LIGAND FREE ENERGY PREDICTED BY IDOCK:   -0.08 KCAL/MOL
REMARK 927      BINDING AFFINITY PREDICTED BY RF-SCORE:    0.00 PKD
ROOT
HETATM    1  C   UNL     1      -8.971   6.136  70.320  1.00  0.00    -0.154 C  
HETATM    2  C   UNL     1      -9.238   7.508  69.693  1.00  0.00    -0.146 C  
HETATM    3  N   UNL     1      -7.964   8.257  69.656  1.00  0.00    -0.108 NA 
HETATM    4  H1  UNL     1      -8.142   9.170  69.239  1.00  0.00     0.000 HD 
HETATM    5  H2  UNL     1      -7.222   7.745  69.179  1.00  0.00     0.000 HD 
ENDROOT
BRANCH   2   6
HETATM    6  C   UNL     1     -10.317   8.337  70.456  1.00  0.00    -0.202 C  
HETATM    7  H   UNL     1     -12.087   8.002  71.260  1.00  0.00     0.000 HD 
HETATM    8  O   UNL     1     -11.431   7.498  70.795  1.00  0.00    -0.281 OA 
BRANCH   6   9
HETATM    9  C   UNL     1     -10.795   9.554  69.685  1.00  0.00    -0.255 A  
HETATM   10  C   UNL     1     -10.718   9.611  68.281  1.00  0.00    -0.262 A  
HETATM   11  C   UNL     1     -11.124  10.760  67.611  1.00  0.00    -0.319 A  
HETATM   12  O   UNL     1     -11.051  10.865  66.249  1.00  0.00    -0.128 OA 
HETATM   13  C   UNL     1     -11.613  11.853  68.320  1.00  0.00    -0.327 A  
HETATM   14  H   UNL     1     -11.329  11.649  65.791  1.00  0.00     0.000 HD 
HETATM   15  C   UNL     1     -11.706  11.817  69.702  1.00  0.00    -0.413 A  
HETATM   16  O   UNL     1     -12.001  12.979  67.652  1.00  0.00    -0.353 OA 
HETATM   17  H   UNL     1     -12.335  13.725  68.136  1.00  0.00     0.000 HD 
HETATM   18  C   UNL     1     -11.295  10.669  70.385  1.00  0.00    -0.389 A  
ENDBRANCH   6   9
ENDBRANCH   2   6
TORSDOF 2
ENDMDL
MODEL      193
REMARK 921   NORMALIZED FREE ENERGY PREDICTED BY IDOCK:   -2.85 KCAL/MOL
REMARK 922        TOTAL FREE ENERGY PREDICTED BY IDOCK:   -3.39 KCAL/MOL
REMARK 923 INTER-LIGAND FREE ENERGY PREDICTED BY IDOCK:   -3.20 KCAL/MOL
REMARK 924 INTRA-LIGAND FREE ENERGY PREDICTED BY IDOCK:   -0.19 KCAL/MOL
REMARK 927      BINDING AFFINITY PREDICTED BY RF-SCORE:    0.00 PKD
ROOT
HETATM    1  C   UNL     1     -11.000   6.489  72.102  1.00  0.00    -0.283 C  
HETATM    2  C   UNL     1     -11.543   7.185  70.851  1.00  0.00    -0.311 C  
HETATM    3  N   UNL     1     -13.012   7.294  70.981  1.00  0.00    -0.592 NA 
HETATM    4  H1  UNL     1     -13.373   7.757  70.148  1.00  0.00     0.000 HD 
HETATM    5  H2  UNL     1     -13.296   7.758  71.844  1.00  0.00     0.000 HD 
ENDROOT
BRANCH   2   6
HETATM    6  C   UNL     1     -11.183   6.446  69.526  1.00  0.00    -0.412 C  
HETATM    7  H   UNL     1     -10.422   4.700  69.013  1.00  0.00     0.000 HD 
HETATM    8  O   UNL     1     -10.641   5.150  69.819  1.00  0.00    -0.272 OA 
BRANCH   6   9
HETATM    9  C   UNL     1     -10.225   7.226  68.644  1.00  0.00    -0.191 A  
HETATM   10  C   UNL     1     -10.276   7.131  67.240  1.00  0.00    -0.315 A  
HETATM   11  C   UNL     1      -9.353   7.825  66.465  1.00  0.00    -0.189 A  
HETATM   12  O   UNL     1      -9.356   7.748  65.099  1.00  0.00    -0.154 OA 
HETATM   13  C   UNL     1      -8.383   8.618  67.068  1.00  0.00    -0.106 A  
HETATM   14  H   UNL     1      -8.726   8.223  64.570  1.00  0.00     0.000 HD 
HETATM   15  C   UNL     1      -8.318   8.734  68.447  1.00  0.00    -0.126 A  
HETATM   16  O   UNL     1      -7.476   9.289  66.297  1.00  0.00    -0.094 OA 
HETATM   17  H   UNL     1      -6.813   9.830  66.709  1.00  0.00     0.000 HD 
HETATM   18  C   UNL     1      -9.237   8.035  69.235  1.00  0.00    -0.152 A  
ENDBRANCH   6   9
ENDBRANCH   2   6
TORSDOF 2
ENDMDL
MODEL      194
REMARK 921   NORMALIZED FREE ENERGY PREDICTED BY IDOCK:   -2.84 KCAL/MOL
REMARK 922        TOTAL FREE ENERGY PREDICTED BY IDOCK:   -3.38 KCAL/MOL
REMARK 923 INTER-LIGAND FREE ENERGY PREDICTED BY IDOCK:   -3.54 KCAL/MOL
REMARK 924 INTRA-LIGAND FREE ENERGY PREDICTED BY IDOCK:    0.16 KCAL/MOL
REMARK 927      BINDING AFFINITY PREDICTED BY RF-SCORE:    0.00 PKD
ROOT
HETATM    1  C   UNL     1     -10.402  17.414  68.042  1.00  0.00    -0.362 C  
HETATM    2  C   UNL     1      -9.916  18.349  66.930  1.00  0.00    -0.353 C  
HETATM    3  N   UNL     1     -10.379  17.809  65.634  1.00  0.00    -0.635 NA 
HETATM    4  H1  UNL     1     -10.056  18.432  64.894  1.00  0.00     0.000 HD 
HETATM    5  H2  UNL     1     -11.388  17.660  65.610  1.00  0.00     0.000 HD 
ENDROOT
BRANCH   2   6
HETATM    6  C   UNL     1      -8.367  18.528  66.904  1.00  0.00    -0.263 C  
HETATM    7  H   UNL     1      -6.943  18.548  65.540  1.00  0.00     0.000 HD 
HETATM    8  O   UNL     1      -7.886  18.439  65.555  1.00  0.00    -0.446 OA 
BRANCH   6   9
HETATM    9  C   UNL     1      -7.633  17.537  67.788  1.00  0.00    -0.197 A  
HETATM   10  C   UNL     1      -6.914  17.956  68.923  1.00  0.00    -0.260 A  
HETATM   11  C   UNL     1      -6.215  17.024  69.684  1.00  0.00    -0.232 A  
HETATM   12  O   UNL     1      -5.491  17.390  70.785  1.00  0.00    -0.240 OA 
HETATM   13  C   UNL     1      -6.228  15.678  69.334  1.00  0.00    -0.136 A  
HETATM   14  H   UNL     1      -5.014  16.754  71.305  1.00  0.00     0.000 HD 
HETATM   15  C   UNL     1      -6.935  15.240  68.226  1.00  0.00    -0.119 A  
HETATM   16  O   UNL     1      -5.531  14.773  70.084  1.00  0.00    -0.102 OA 
HETATM   17  H   UNL     1      -5.540  13.854  69.844  1.00  0.00     0.000 HD 
HETATM   18  C   UNL     1      -7.635  16.170  67.451  1.00  0.00    -0.191 A  
ENDBRANCH   6   9
ENDBRANCH   2   6
TORSDOF 2
ENDMDL
MODEL      195
REMARK 921   NORMALIZED FREE ENERGY PREDICTED BY IDOCK:   -2.82 KCAL/MOL
REMARK 922        TOTAL FREE ENERGY PREDICTED BY IDOCK:   -3.36 KCAL/MOL
REMARK 923 INTER-LIGAND FREE ENERGY PREDICTED BY IDOCK:   -3.26 KCAL/MOL
REMARK 924 INTRA-LIGAND FREE ENERGY PREDICTED BY IDOCK:   -0.10 KCAL/MOL
REMARK 927      BINDING AFFINITY PREDICTED BY RF-SCORE:    0.00 PKD
ROOT
HETATM    1  C   UNL     1     -10.682   6.798  73.550  1.00  0.00    -0.319 C  
HETATM    2  C   UNL     1     -11.215   7.775  72.497  1.00  0.00    -0.363 C  
HETATM    3  N   UNL     1     -12.582   8.180  72.890  1.00  0.00    -0.632 NA 
HETATM    4  H1  UNL     1     -12.937   8.830  72.189  1.00  0.00     0.000 HD 
HETATM    5  H2  UNL     1     -12.621   8.561  73.836  1.00  0.00     0.000 HD 
ENDROOT
BRANCH   2   6
HETATM    6  C   UNL     1     -11.234   7.182  71.055  1.00  0.00    -0.269 C  
HETATM    7  H   UNL     1     -10.404   5.659  70.114  1.00  0.00     0.000 HD 
HETATM    8  O   UNL     1     -10.392   6.021  70.992  1.00  0.00    -0.201 OA 
BRANCH   6   9
HETATM    9  C   UNL     1     -10.826   8.181  69.988  1.00  0.00    -0.233 A  
HETATM   10  C   UNL     1      -9.866   7.861  69.011  1.00  0.00    -0.171 A  
HETATM   11  C   UNL     1      -9.483   8.817  68.076  1.00  0.00    -0.143 A  
HETATM   12  O   UNL     1      -8.542   8.554  67.119  1.00  0.00    -0.120 OA 
HETATM   13  C   UNL     1     -10.048  10.088  68.097  1.00  0.00    -0.159 A  
HETATM   14  H   UNL     1      -8.280   9.207  66.480  1.00  0.00     0.000 HD 
HETATM   15  C   UNL     1     -11.001  10.424  69.045  1.00  0.00    -0.282 A  
HETATM   16  O   UNL     1      -9.658  11.022  67.180  1.00  0.00    -0.167 OA 
HETATM   17  H   UNL     1     -10.044  11.890  67.195  1.00  0.00     0.000 HD 
HETATM   18  C   UNL     1     -11.388   9.472  69.992  1.00  0.00    -0.204 A  
ENDBRANCH   6   9
ENDBRANCH   2   6
TORSDOF 2
ENDMDL
MODEL      196
REMARK 921   NORMALIZED FREE ENERGY PREDICTED BY IDOCK:   -2.82 KCAL/MOL
REMARK 922        TOTAL FREE ENERGY PREDICTED BY IDOCK:   -3.36 KCAL/MOL
REMARK 923 INTER-LIGAND FREE ENERGY PREDICTED BY IDOCK:   -3.43 KCAL/MOL
REMARK 924 INTRA-LIGAND FREE ENERGY PREDICTED BY IDOCK:    0.07 KCAL/MOL
REMARK 927      BINDING AFFINITY PREDICTED BY RF-SCORE:    0.00 PKD
ROOT
HETATM    1  C   UNL     1     -11.622  15.927  68.701  1.00  0.00    -0.383 C  
HETATM    2  C   UNL     1     -11.556  15.332  67.290  1.00  0.00    -0.157 C  
HETATM    3  N   UNL     1     -11.564  13.859  67.407  1.00  0.00    -0.347 NA 
HETATM    4  H1  UNL     1     -11.520  13.463  66.468  1.00  0.00     0.000 HD 
HETATM    5  H2  UNL     1     -12.360  13.512  67.943  1.00  0.00     0.000 HD 
ENDROOT
BRANCH   2   6
HETATM    6  C   UNL     1     -10.303  15.791  66.483  1.00  0.00    -0.294 C  
HETATM    7  H   UNL     1      -8.930  14.941  65.350  1.00  0.00     0.000 HD 
HETATM    8  O   UNL     1      -9.692  14.662  65.842  1.00  0.00    -0.312 OA 
BRANCH   6   9
HETATM    9  C   UNL     1      -9.281  16.529  67.328  1.00  0.00    -0.224 A  
HETATM   10  C   UNL     1      -9.366  17.918  67.538  1.00  0.00    -0.253 A  
HETATM   11  C   UNL     1      -8.386  18.568  68.281  1.00  0.00    -0.322 A  
HETATM   12  O   UNL     1      -8.421  19.918  68.496  1.00  0.00    -0.260 OA 
HETATM   13  C   UNL     1      -7.324  17.852  68.824  1.00  0.00    -0.270 A  
HETATM   14  H   UNL     1      -7.752  20.362  69.003  1.00  0.00     0.000 HD 
HETATM   15  C   UNL     1      -7.224  16.483  68.638  1.00  0.00    -0.186 A  
HETATM   16  O   UNL     1      -6.363  18.502  69.545  1.00  0.00    -0.268 OA 
HETATM   17  H   UNL     1      -5.638  18.013  69.916  1.00  0.00     0.000 HD 
HETATM   18  C   UNL     1      -8.200  15.822  67.888  1.00  0.00    -0.151 A  
ENDBRANCH   6   9
ENDBRANCH   2   6
TORSDOF 2
ENDMDL
MODEL      197
REMARK 921   NORMALIZED FREE ENERGY PREDICTED BY IDOCK:   -2.81 KCAL/MOL
REMARK 922        TOTAL FREE ENERGY PREDICTED BY IDOCK:   -3.35 KCAL/MOL
REMARK 923 INTER-LIGAND FREE ENERGY PREDICTED BY IDOCK:   -3.15 KCAL/MOL
REMARK 924 INTRA-LIGAND FREE ENERGY PREDICTED BY IDOCK:   -0.20 KCAL/MOL
REMARK 927      BINDING AFFINITY PREDICTED BY RF-SCORE:    0.00 PKD
ROOT
HETATM    1  C   UNL     1      -9.828   5.493  66.371  1.00  0.00    -0.192 C  
HETATM    2  C   UNL     1      -9.738   7.005  66.600  1.00  0.00    -0.166 C  
HETATM    3  N   UNL     1      -8.991   7.601  65.472  1.00  0.00    -0.378 NA 
HETATM    4  H1  UNL     1      -8.932   8.608  65.625  1.00  0.00     0.000 HD 
HETATM    5  H2  UNL     1      -9.394   7.364  64.566  1.00  0.00     0.000 HD 
ENDROOT
BRANCH   2   6
HETATM    6  C   UNL     1      -9.054   7.387  67.948  1.00  0.00    -0.129 C  
HETATM    7  H   UNL     1      -8.075   6.450  69.382  1.00  0.00     0.000 HD 
HETATM    8  O   UNL     1      -8.492   6.217  68.561  1.00  0.00    -0.115 OA 
BRANCH   6   9
HETATM    9  C   UNL     1      -9.987   8.088  68.918  1.00  0.00    -0.199 A  
HETATM   10  C   UNL     1     -10.304   9.452  68.777  1.00  0.00    -0.230 A  
HETATM   11  C   UNL     1     -11.128  10.072  69.711  1.00  0.00    -0.274 A  
HETATM   12  O   UNL     1     -11.448  11.399  69.621  1.00  0.00    -0.269 OA 
HETATM   13  C   UNL     1     -11.646   9.351  70.781  1.00  0.00    -0.298 A  
HETATM   14  H   UNL     1     -12.011  11.823  70.258  1.00  0.00     0.000 HD 
HETATM   15  C   UNL     1     -11.355   8.005  70.937  1.00  0.00    -0.291 A  
HETATM   16  O   UNL     1     -12.446   9.973  71.697  1.00  0.00    -0.376 OA 
HETATM   17  H   UNL     1     -12.800   9.480  72.428  1.00  0.00     0.000 HD 
HETATM   18  C   UNL     1     -10.523   7.375  70.007  1.00  0.00    -0.233 A  
ENDBRANCH   6   9
ENDBRANCH   2   6
TORSDOF 2
ENDMDL
MODEL      198
REMARK 921   NORMALIZED FREE ENERGY PREDICTED BY IDOCK:   -2.80 KCAL/MOL
REMARK 922        TOTAL FREE ENERGY PREDICTED BY IDOCK:   -3.34 KCAL/MOL
REMARK 923 INTER-LIGAND FREE ENERGY PREDICTED BY IDOCK:   -3.30 KCAL/MOL
REMARK 924 INTRA-LIGAND FREE ENERGY PREDICTED BY IDOCK:   -0.04 KCAL/MOL
REMARK 927      BINDING AFFINITY PREDICTED BY RF-SCORE:    0.00 PKD
ROOT
HETATM    1  C   UNL     1      -9.221   8.549  69.320  1.00  0.00    -0.153 C  
HETATM    2  C   UNL     1     -10.427   8.372  70.248  1.00  0.00    -0.218 C  
HETATM    3  N   UNL     1      -9.931   7.968  71.581  1.00  0.00    -0.177 NA 
HETATM    4  H1  UNL     1     -10.734   7.850  72.199  1.00  0.00     0.000 HD 
HETATM    5  H2  UNL     1      -9.238   8.617  71.955  1.00  0.00     0.000 HD 
ENDROOT
BRANCH   2   6
HETATM    6  C   UNL     1     -11.460   7.325  69.729  1.00  0.00     0.006 C  
HETATM    7  H   UNL     1     -12.797   6.109  70.519  1.00  0.00     0.000 HD 
HETATM    8  O   UNL     1     -12.168   6.746  70.835  1.00  0.00    -0.385 OA 
BRANCH   6   9
HETATM    9  C   UNL     1     -10.834   6.233  68.880  1.00  0.00    -0.396 A  
HETATM   10  C   UNL     1     -10.974   6.221  67.480  1.00  0.00    -0.444 A  
HETATM   11  C   UNL     1     -10.425   5.180  66.738  1.00  0.00    -0.251 A  
HETATM   12  O   UNL     1     -10.551   5.119  65.378  1.00  0.00    -0.440 OA 
HETATM   13  C   UNL     1      -9.731   4.153  67.372  1.00  0.00    -0.154 A  
HETATM   14  H   UNL     1     -10.176   4.408  64.871  1.00  0.00     0.000 HD 
HETATM   15  C   UNL     1      -9.573   4.149  68.748  1.00  0.00    -0.210 A  
HETATM   16  O   UNL     1      -9.204   3.132  66.634  1.00  0.00    -0.159 OA 
HETATM   17  H   UNL     1      -8.731   2.431  67.067  1.00  0.00     0.000 HD 
HETATM   18  C   UNL     1     -10.127   5.187  69.503  1.00  0.00    -0.316 A  
ENDBRANCH   6   9
ENDBRANCH   2   6
TORSDOF 2
ENDMDL
MODEL      199
REMARK 921   NORMALIZED FREE ENERGY PREDICTED BY IDOCK:   -2.78 KCAL/MOL
REMARK 922        TOTAL FREE ENERGY PREDICTED BY IDOCK:   -3.31 KCAL/MOL
REMARK 923 INTER-LIGAND FREE ENERGY PREDICTED BY IDOCK:   -3.11 KCAL/MOL
REMARK 924 INTRA-LIGAND FREE ENERGY PREDICTED BY IDOCK:   -0.20 KCAL/MOL
REMARK 927      BINDING AFFINITY PREDICTED BY RF-SCORE:    0.00 PKD
ROOT
HETATM    1  C   UNL     1      -7.535  11.200  67.406  1.00  0.00    -0.109 C  
HETATM    2  C   UNL     1      -7.832  11.385  68.897  1.00  0.00    -0.096 C  
HETATM    3  N   UNL     1      -7.190  12.639  69.346  1.00  0.00    -0.316 NA 
HETATM    4  H1  UNL     1      -7.388  12.762  70.339  1.00  0.00     0.000 HD 
HETATM    5  H2  UNL     1      -7.470  13.445  68.786  1.00  0.00     0.000 HD 
ENDROOT
BRANCH   2   6
HETATM    6  C   UNL     1      -7.341  10.195  69.779  1.00  0.00    -0.158 C  
HETATM    7  H   UNL     1      -6.333   8.522  69.505  1.00  0.00     0.000 HD 
HETATM    8  O   UNL     1      -6.632   9.246  68.969  1.00  0.00    -0.046 OA 
BRANCH   6   9
HETATM    9  C   UNL     1      -8.463   9.504  70.532  1.00  0.00    -0.213 A  
HETATM   10  C   UNL     1      -9.799   9.587  70.100  1.00  0.00    -0.288 A  
HETATM   11  C   UNL     1     -10.807   8.978  70.840  1.00  0.00    -0.258 A  
HETATM   12  O   UNL     1     -12.120   9.048  70.465  1.00  0.00    -0.475 OA 
HETATM   13  C   UNL     1     -10.501   8.281  72.005  1.00  0.00    -0.280 A  
HETATM   14  H   UNL     1     -12.809   8.632  70.971  1.00  0.00     0.000 HD 
HETATM   15  C   UNL     1      -9.192   8.178  72.446  1.00  0.00    -0.292 A  
HETATM   16  O   UNL     1     -11.499   7.694  72.729  1.00  0.00    -0.441 OA 
HETATM   17  H   UNL     1     -11.291   7.218  73.524  1.00  0.00     0.000 HD 
HETATM   18  C   UNL     1      -8.173   8.792  71.712  1.00  0.00    -0.144 A  
ENDBRANCH   6   9
ENDBRANCH   2   6
TORSDOF 2
ENDMDL
MODEL      200
REMARK 921   NORMALIZED FREE ENERGY PREDICTED BY IDOCK:   -2.78 KCAL/MOL
REMARK 922        TOTAL FREE ENERGY PREDICTED BY IDOCK:   -3.31 KCAL/MOL
REMARK 923 INTER-LIGAND FREE ENERGY PREDICTED BY IDOCK:   -3.12 KCAL/MOL
REMARK 924 INTRA-LIGAND FREE ENERGY PREDICTED BY IDOCK:   -0.20 KCAL/MOL
REMARK 927      BINDING AFFINITY PREDICTED BY RF-SCORE:    0.00 PKD
ROOT
HETATM    1  C   UNL     1      -9.241   3.856  66.543  1.00  0.00    -0.175 C  
HETATM    2  C   UNL     1     -10.191   5.034  66.781  1.00  0.00    -0.248 C  
HETATM    3  N   UNL     1     -11.238   5.004  65.738  1.00  0.00    -0.867 NA 
HETATM    4  H1  UNL     1     -11.870   5.788  65.897  1.00  0.00     0.000 HD 
HETATM    5  H2  UNL     1     -11.725   4.109  65.696  1.00  0.00     0.000 HD 
ENDROOT
BRANCH   2   6
HETATM    6  C   UNL     1      -9.475   6.419  66.772  1.00  0.00    -0.150 C  
HETATM    7  H   UNL     1      -7.673   7.105  66.352  1.00  0.00     0.000 HD 
HETATM    8  O   UNL     1      -8.110   6.262  66.358  1.00  0.00    -0.107 OA 
BRANCH   6   9
HETATM    9  C   UNL     1      -9.535   7.136  68.109  1.00  0.00    -0.132 A  
HETATM   10  C   UNL     1      -9.596   8.539  68.188  1.00  0.00    -0.158 A  
HETATM   11  C   UNL     1      -9.605   9.164  69.431  1.00  0.00    -0.165 A  
HETATM   12  O   UNL     1      -9.648  10.525  69.553  1.00  0.00    -0.349 OA 
HETATM   13  C   UNL     1      -9.560   8.409  70.598  1.00  0.00    -0.171 A  
HETATM   14  H   UNL     1      -9.654  10.952  70.402  1.00  0.00     0.000 HD 
HETATM   15  C   UNL     1      -9.508   7.025  70.546  1.00  0.00    -0.166 A  
HETATM   16  O   UNL     1      -9.561   9.033  71.813  1.00  0.00    -0.290 OA 
HETATM   17  H   UNL     1      -9.530   8.518  72.610  1.00  0.00     0.000 HD 
HETATM   18  C   UNL     1      -9.492   6.389  69.302  1.00  0.00    -0.140 A  
ENDBRANCH   6   9
ENDBRANCH   2   6
TORSDOF 2
ENDMDL
MODEL      201
REMARK 921   NORMALIZED FREE ENERGY PREDICTED BY IDOCK:   -2.77 KCAL/MOL
REMARK 922        TOTAL FREE ENERGY PREDICTED BY IDOCK:   -3.30 KCAL/MOL
REMARK 923 INTER-LIGAND FREE ENERGY PREDICTED BY IDOCK:   -3.38 KCAL/MOL
REMARK 924 INTRA-LIGAND FREE ENERGY PREDICTED BY IDOCK:    0.07 KCAL/MOL
REMARK 927      BINDING AFFINITY PREDICTED BY RF-SCORE:    0.00 PKD
ROOT
HETATM    1  C   UNL     1      -9.050   4.290  64.816  1.00  0.00    -0.149 C  
HETATM    2  C   UNL     1      -9.994   4.355  66.021  1.00  0.00    -0.240 C  
HETATM    3  N   UNL     1     -11.313   4.829  65.552  1.00  0.00    -0.947 NA 
HETATM    4  H1  UNL     1     -11.942   4.872  66.354  1.00  0.00     0.000 HD 
HETATM    5  H2  UNL     1     -11.686   4.261  64.790  1.00  0.00     0.000 HD 
ENDROOT
BRANCH   2   6
HETATM    6  C   UNL     1      -9.476   5.281  67.164  1.00  0.00    -0.127 C  
HETATM    7  H   UNL     1      -9.874   5.570  69.074  1.00  0.00     0.000 HD 
HETATM    8  O   UNL     1     -10.190   5.006  68.378  1.00  0.00    -0.146 OA 
BRANCH   6   9
HETATM    9  C   UNL     1      -9.565   6.758  66.828  1.00  0.00    -0.210 A  
HETATM   10  C   UNL     1      -8.724   7.344  65.864  1.00  0.00    -0.161 A  
HETATM   11  C   UNL     1      -8.803   8.711  65.613  1.00  0.00    -0.187 A  
HETATM   12  O   UNL     1      -7.994   9.324  64.697  1.00  0.00    -0.113 OA 
HETATM   13  C   UNL     1      -9.713   9.501  66.306  1.00  0.00    -0.245 A  
HETATM   14  H   UNL     1      -8.048  10.257  64.526  1.00  0.00     0.000 HD 
HETATM   15  C   UNL     1     -10.558   8.945  67.254  1.00  0.00    -0.304 A  
HETATM   16  O   UNL     1      -9.777  10.843  66.059  1.00  0.00    -0.206 OA 
HETATM   17  H   UNL     1     -10.398  11.383  66.533  1.00  0.00     0.000 HD 
HETATM   18  C   UNL     1     -10.481   7.575  67.517  1.00  0.00    -0.341 A  
ENDBRANCH   6   9
ENDBRANCH   2   6
TORSDOF 2
ENDMDL
MODEL      202
REMARK 921   NORMALIZED FREE ENERGY PREDICTED BY IDOCK:   -2.74 KCAL/MOL
REMARK 922        TOTAL FREE ENERGY PREDICTED BY IDOCK:   -3.27 KCAL/MOL
REMARK 923 INTER-LIGAND FREE ENERGY PREDICTED BY IDOCK:   -3.25 KCAL/MOL
REMARK 924 INTRA-LIGAND FREE ENERGY PREDICTED BY IDOCK:   -0.02 KCAL/MOL
REMARK 927      BINDING AFFINITY PREDICTED BY RF-SCORE:    0.00 PKD
ROOT
HETATM    1  C   UNL     1      -9.105   8.582  66.256  1.00  0.00    -0.232 C  
HETATM    2  C   UNL     1      -9.715   7.764  67.399  1.00  0.00    -0.163 C  
HETATM    3  N   UNL     1     -10.992   7.190  66.928  1.00  0.00    -0.602 NA 
HETATM    4  H1  UNL     1     -11.398   6.645  67.689  1.00  0.00     0.000 HD 
HETATM    5  H2  UNL     1     -10.886   6.648  66.070  1.00  0.00     0.000 HD 
ENDROOT
BRANCH   2   6
HETATM    6  C   UNL     1      -9.956   8.597  68.696  1.00  0.00    -0.183 C  
HETATM    7  H   UNL     1     -11.272   8.624  70.165  1.00  0.00     0.000 HD 
HETATM    8  O   UNL     1     -11.126   8.117  69.375  1.00  0.00    -0.074 OA 
BRANCH   6   9
HETATM    9  C   UNL     1     -10.075  10.088  68.439  1.00  0.00    -0.186 A  
HETATM   10  C   UNL     1      -9.041  10.978  68.787  1.00  0.00    -0.161 A  
HETATM   11  C   UNL     1      -9.203  12.344  68.578  1.00  0.00    -0.076 A  
HETATM   12  O   UNL     1      -8.232  13.245  68.916  1.00  0.00    -0.348 OA 
HETATM   13  C   UNL     1     -10.379  12.836  68.022  1.00  0.00    -0.229 A  
HETATM   14  H   UNL     1      -8.343  14.178  68.774  1.00  0.00     0.000 HD 
HETATM   15  C   UNL     1     -11.407  11.978  67.663  1.00  0.00    -0.375 A  
HETATM   16  O   UNL     1     -10.531  14.179  67.829  1.00  0.00    -0.242 OA 
HETATM   17  H   UNL     1     -11.334  14.515  67.449  1.00  0.00     0.000 HD 
HETATM   18  C   UNL     1     -11.256  10.605  67.875  1.00  0.00    -0.376 A  
ENDBRANCH   6   9
ENDBRANCH   2   6
TORSDOF 2
ENDMDL
MODEL      203
REMARK 921   NORMALIZED FREE ENERGY PREDICTED BY IDOCK:   -2.74 KCAL/MOL
REMARK 922        TOTAL FREE ENERGY PREDICTED BY IDOCK:   -3.27 KCAL/MOL
REMARK 923 INTER-LIGAND FREE ENERGY PREDICTED BY IDOCK:   -3.06 KCAL/MOL
REMARK 924 INTRA-LIGAND FREE ENERGY PREDICTED BY IDOCK:   -0.21 KCAL/MOL
REMARK 927      BINDING AFFINITY PREDICTED BY RF-SCORE:    0.00 PKD
ROOT
HETATM    1  C   UNL     1      -8.827   5.949  65.929  1.00  0.00    -0.154 C  
HETATM    2  C   UNL     1      -8.657   7.290  65.207  1.00  0.00     0.014 C  
HETATM    3  N   UNL     1      -7.615   7.130  64.171  1.00  0.00    -0.103 NA 
HETATM    4  H1  UNL     1      -7.502   8.022  63.690  1.00  0.00     0.000 HD 
HETATM    5  H2  UNL     1      -7.812   6.360  63.531  1.00  0.00     0.000 HD 
ENDROOT
BRANCH   2   6
HETATM    6  C   UNL     1      -8.279   8.464  66.161  1.00  0.00    -0.113 C  
HETATM    7  H   UNL     1      -7.808   8.676  68.065  1.00  0.00     0.000 HD 
HETATM    8  O   UNL     1      -8.039   7.961  67.484  1.00  0.00    -0.120 OA 
BRANCH   6   9
HETATM    9  C   UNL     1      -9.323   9.565  66.202  1.00  0.00    -0.254 A  
HETATM   10  C   UNL     1      -9.634  10.324  65.059  1.00  0.00    -0.346 A  
HETATM   11  C   UNL     1     -10.564  11.356  65.144  1.00  0.00    -0.293 A  
HETATM   12  O   UNL     1     -10.884  12.129  64.063  1.00  0.00    -0.316 OA 
HETATM   13  C   UNL     1     -11.193  11.638  66.352  1.00  0.00    -0.287 A  
HETATM   14  H   UNL     1     -11.519  12.834  64.121  1.00  0.00     0.000 HD 
HETATM   15  C   UNL     1     -10.909  10.898  67.489  1.00  0.00    -0.324 A  
HETATM   16  O   UNL     1     -12.098  12.659  66.427  1.00  0.00    -0.530 OA 
HETATM   17  H   UNL     1     -12.527  12.851  67.252  1.00  0.00     0.000 HD 
HETATM   18  C   UNL     1      -9.972   9.864  67.415  1.00  0.00    -0.235 A  
ENDBRANCH   6   9
ENDBRANCH   2   6
TORSDOF 2
ENDMDL
MODEL      204
REMARK 921   NORMALIZED FREE ENERGY PREDICTED BY IDOCK:   -2.70 KCAL/MOL
REMARK 922        TOTAL FREE ENERGY PREDICTED BY IDOCK:   -3.22 KCAL/MOL
REMARK 923 INTER-LIGAND FREE ENERGY PREDICTED BY IDOCK:   -3.03 KCAL/MOL
REMARK 924 INTRA-LIGAND FREE ENERGY PREDICTED BY IDOCK:   -0.20 KCAL/MOL
REMARK 927      BINDING AFFINITY PREDICTED BY RF-SCORE:    0.00 PKD
ROOT
HETATM    1  C   UNL     1     -12.049  13.745  68.843  1.00  0.00    -0.348 C  
HETATM    2  C   UNL     1     -10.794  12.883  68.672  1.00  0.00    -0.258 C  
HETATM    3  N   UNL     1      -9.610  13.758  68.800  1.00  0.00    -0.401 NA 
HETATM    4  H1  UNL     1      -8.774  13.184  68.686  1.00  0.00     0.000 HD 
HETATM    5  H2  UNL     1      -9.606  14.289  69.672  1.00  0.00     0.000 HD 
ENDROOT
BRANCH   2   6
HETATM    6  C   UNL     1     -10.746  12.124  67.310  1.00  0.00    -0.229 C  
HETATM    7  H   UNL     1     -12.048  11.452  65.990  1.00  0.00     0.000 HD 
HETATM    8  O   UNL     1     -12.078  11.914  66.819  1.00  0.00    -0.593 OA 
BRANCH   6   9
HETATM    9  C   UNL     1     -10.002  10.803  67.385  1.00  0.00    -0.214 A  
HETATM   10  C   UNL     1      -9.199  10.351  66.321  1.00  0.00    -0.195 A  
HETATM   11  C   UNL     1      -8.568   9.114  66.406  1.00  0.00    -0.125 A  
HETATM   12  O   UNL     1      -7.793   8.629  65.389  1.00  0.00    -0.093 OA 
HETATM   13  C   UNL     1      -8.720   8.323  67.540  1.00  0.00    -0.129 A  
HETATM   14  H   UNL     1      -7.361   7.785  65.447  1.00  0.00     0.000 HD 
HETATM   15  C   UNL     1      -9.498   8.751  68.604  1.00  0.00    -0.143 A  
HETATM   16  O   UNL     1      -8.103   7.107  67.609  1.00  0.00    -0.112 OA 
HETATM   17  H   UNL     1      -8.207   6.567  68.384  1.00  0.00     0.000 HD 
HETATM   18  C   UNL     1     -10.141   9.989  68.525  1.00  0.00    -0.187 A  
ENDBRANCH   6   9
ENDBRANCH   2   6
TORSDOF 2
ENDMDL
MODEL      205
REMARK 921   NORMALIZED FREE ENERGY PREDICTED BY IDOCK:   -2.67 KCAL/MOL
REMARK 922        TOTAL FREE ENERGY PREDICTED BY IDOCK:   -3.19 KCAL/MOL
REMARK 923 INTER-LIGAND FREE ENERGY PREDICTED BY IDOCK:   -3.00 KCAL/MOL
REMARK 924 INTRA-LIGAND FREE ENERGY PREDICTED BY IDOCK:   -0.19 KCAL/MOL
REMARK 927      BINDING AFFINITY PREDICTED BY RF-SCORE:    0.00 PKD
ROOT
HETATM    1  C   UNL     1     -10.691   8.926  71.551  1.00  0.00    -0.398 C  
HETATM    2  C   UNL     1     -10.615   9.797  70.293  1.00  0.00    -0.292 C  
HETATM    3  N   UNL     1     -11.643  10.853  70.398  1.00  0.00    -0.350 NA 
HETATM    4  H1  UNL     1     -11.592  11.433  69.561  1.00  0.00     0.000 HD 
HETATM    5  H2  UNL     1     -11.562  11.396  71.258  1.00  0.00     0.000 HD 
ENDROOT
BRANCH   2   6
HETATM    6  C   UNL     1     -10.814   8.994  68.971  1.00  0.00    -0.067 C  
HETATM    7  H   UNL     1     -10.508   7.147  68.349  1.00  0.00     0.000 HD 
HETATM    8  O   UNL     1     -10.387   7.636  69.154  1.00  0.00    -0.206 OA 
BRANCH   6   9
HETATM    9  C   UNL     1     -10.102   9.610  67.781  1.00  0.00    -0.232 A  
HETATM   10  C   UNL     1     -10.818  10.183  66.713  1.00  0.00    -0.129 A  
HETATM   11  C   UNL     1     -10.133  10.699  65.617  1.00  0.00    -0.272 A  
HETATM   12  O   UNL     1     -10.789  11.249  64.551  1.00  0.00    -0.329 OA 
HETATM   13  C   UNL     1      -8.743  10.657  65.572  1.00  0.00    -0.188 A  
HETATM   14  H   UNL     1     -10.321  11.601  63.802  1.00  0.00     0.000 HD 
HETATM   15  C   UNL     1      -8.017  10.105  66.616  1.00  0.00    -0.116 A  
HETATM   16  O   UNL     1      -8.081  11.158  64.488  1.00  0.00    -0.303 OA 
HETATM   17  H   UNL     1      -7.133  11.129  64.457  1.00  0.00     0.000 HD 
HETATM   18  C   UNL     1      -8.696   9.579  67.718  1.00  0.00    -0.115 A  
ENDBRANCH   6   9
ENDBRANCH   2   6
TORSDOF 2
ENDMDL
MODEL      206
REMARK 921   NORMALIZED FREE ENERGY PREDICTED BY IDOCK:   -2.64 KCAL/MOL
REMARK 922        TOTAL FREE ENERGY PREDICTED BY IDOCK:   -3.16 KCAL/MOL
REMARK 923 INTER-LIGAND FREE ENERGY PREDICTED BY IDOCK:   -3.15 KCAL/MOL
REMARK 924 INTRA-LIGAND FREE ENERGY PREDICTED BY IDOCK:   -0.01 KCAL/MOL
REMARK 927      BINDING AFFINITY PREDICTED BY RF-SCORE:    0.00 PKD
ROOT
HETATM    1  C   UNL     1     -11.351  15.699  69.322  1.00  0.00    -0.348 C  
HETATM    2  C   UNL     1     -12.025  14.923  68.186  1.00  0.00    -0.202 C  
HETATM    3  N   UNL     1     -12.024  13.488  68.539  1.00  0.00    -0.363 NA 
HETATM    4  H1  UNL     1     -12.473  12.972  67.782  1.00  0.00     0.000 HD 
HETATM    5  H2  UNL     1     -12.453  13.307  69.447  1.00  0.00     0.000 HD 
ENDROOT
BRANCH   2   6
HETATM    6  C   UNL     1     -11.334  15.127  66.803  1.00  0.00    -0.248 C  
HETATM    7  H   UNL     1     -11.308  14.208  65.057  1.00  0.00     0.000 HD 
HETATM    8  O   UNL     1     -11.728  14.084  65.900  1.00  0.00    -0.341 OA 
BRANCH   6   9
HETATM    9  C   UNL     1      -9.821  15.198  66.892  1.00  0.00    -0.243 A  
HETATM   10  C   UNL     1      -9.038  14.036  67.018  1.00  0.00    -0.256 A  
HETATM   11  C   UNL     1      -7.656  14.141  67.142  1.00  0.00     0.053 A  
HETATM   12  O   UNL     1      -6.859  13.039  67.284  1.00  0.00    -0.287 OA 
HETATM   13  C   UNL     1      -7.042  15.389  67.136  1.00  0.00    -0.100 A  
HETATM   14  H   UNL     1      -5.915  13.111  67.369  1.00  0.00     0.000 HD 
HETATM   15  C   UNL     1      -7.792  16.547  67.004  1.00  0.00    -0.241 A  
HETATM   16  O   UNL     1      -5.686  15.482  67.267  1.00  0.00    -0.336 OA 
HETATM   17  H   UNL     1      -5.267  16.334  67.263  1.00  0.00     0.000 HD 
HETATM   18  C   UNL     1      -9.181  16.452  66.885  1.00  0.00    -0.237 A  
ENDBRANCH   6   9
ENDBRANCH   2   6
TORSDOF 2
ENDMDL
MODEL      207
REMARK 921   NORMALIZED FREE ENERGY PREDICTED BY IDOCK:   -2.64 KCAL/MOL
REMARK 922        TOTAL FREE ENERGY PREDICTED BY IDOCK:   -3.15 KCAL/MOL
REMARK 923 INTER-LIGAND FREE ENERGY PREDICTED BY IDOCK:   -2.95 KCAL/MOL
REMARK 924 INTRA-LIGAND FREE ENERGY PREDICTED BY IDOCK:   -0.20 KCAL/MOL
REMARK 927      BINDING AFFINITY PREDICTED BY RF-SCORE:    0.00 PKD
ROOT
HETATM    1  C   UNL     1      -8.044   7.128  64.721  1.00  0.00    -0.092 C  
HETATM    2  C   UNL     1      -8.299   8.179  65.807  1.00  0.00    -0.136 C  
HETATM    3  N   UNL     1      -8.571   7.475  67.078  1.00  0.00    -0.120 NA 
HETATM    4  H1  UNL     1      -8.740   8.175  67.801  1.00  0.00     0.000 HD 
HETATM    5  H2  UNL     1      -7.830   6.820  67.331  1.00  0.00     0.000 HD 
ENDROOT
BRANCH   2   6
HETATM    6  C   UNL     1      -9.479   9.141  65.472  1.00  0.00    -0.206 C  
HETATM    7  H   UNL     1     -10.032  10.265  63.948  1.00  0.00     0.000 HD 
HETATM    8  O   UNL     1      -9.313   9.679  64.152  1.00  0.00    -0.236 OA 
BRANCH   6   9
HETATM    9  C   UNL     1      -9.641  10.266  66.478  1.00  0.00    -0.228 A  
HETATM   10  C   UNL     1     -10.860  10.485  67.145  1.00  0.00    -0.319 A  
HETATM   11  C   UNL     1     -10.986  11.554  68.027  1.00  0.00    -0.231 A  
HETATM   12  O   UNL     1     -12.156  11.813  68.684  1.00  0.00    -0.406 OA 
HETATM   13  C   UNL     1      -9.910  12.405  68.259  1.00  0.00    -0.224 A  
HETATM   14  H   UNL     1     -12.242  12.543  69.287  1.00  0.00     0.000 HD 
HETATM   15  C   UNL     1      -8.697  12.205  67.620  1.00  0.00    -0.172 A  
HETATM   16  O   UNL     1     -10.047  13.456  69.120  1.00  0.00    -0.427 OA 
HETATM   17  H   UNL     1      -9.312  14.038  69.278  1.00  0.00     0.000 HD 
HETATM   18  C   UNL     1      -8.563  11.137  66.727  1.00  0.00    -0.157 A  
ENDBRANCH   6   9
ENDBRANCH   2   6
TORSDOF 2
ENDMDL
MODEL      208
REMARK 921   NORMALIZED FREE ENERGY PREDICTED BY IDOCK:   -2.62 KCAL/MOL
REMARK 922        TOTAL FREE ENERGY PREDICTED BY IDOCK:   -3.14 KCAL/MOL
REMARK 923 INTER-LIGAND FREE ENERGY PREDICTED BY IDOCK:   -2.97 KCAL/MOL
REMARK 924 INTRA-LIGAND FREE ENERGY PREDICTED BY IDOCK:   -0.17 KCAL/MOL
REMARK 927      BINDING AFFINITY PREDICTED BY RF-SCORE:    0.00 PKD
ROOT
HETATM    1  C   UNL     1      -7.651   9.786  64.856  1.00  0.00    -0.128 C  
HETATM    2  C   UNL     1      -8.258   8.588  65.592  1.00  0.00    -0.130 C  
HETATM    3  N   UNL     1      -8.415   7.481  64.626  1.00  0.00    -0.369 NA 
HETATM    4  H1  UNL     1      -8.819   6.683  65.117  1.00  0.00     0.000 HD 
HETATM    5  H2  UNL     1      -7.544   7.249  64.149  1.00  0.00     0.000 HD 
ENDROOT
BRANCH   2   6
HETATM    6  C   UNL     1      -9.630   8.903  66.263  1.00  0.00    -0.260 C  
HETATM    7  H   UNL     1     -11.010  10.307  66.126  1.00  0.00     0.000 HD 
HETATM    8  O   UNL     1     -10.175  10.115  65.718  1.00  0.00    -0.263 OA 
BRANCH   6   9
HETATM    9  C   UNL     1      -9.552   9.000  67.775  1.00  0.00    -0.178 A  
HETATM   10  C   UNL     1      -8.682   9.907  68.409  1.00  0.00    -0.120 A  
HETATM   11  C   UNL     1      -8.603   9.937  69.798  1.00  0.00    -0.203 A  
HETATM   12  O   UNL     1      -7.761  10.790  70.454  1.00  0.00    -0.318 OA 
HETATM   13  C   UNL     1      -9.384   9.079  70.566  1.00  0.00    -0.219 A  
HETATM   14  H   UNL     1      -7.707  10.811  71.403  1.00  0.00     0.000 HD 
HETATM   15  C   UNL     1     -10.254   8.183  69.964  1.00  0.00    -0.202 A  
HETATM   16  O   UNL     1      -9.293   9.110  71.928  1.00  0.00    -0.349 OA 
HETATM   17  H   UNL     1      -9.826   8.524  72.452  1.00  0.00     0.000 HD 
HETATM   18  C   UNL     1     -10.335   8.142  68.569  1.00  0.00    -0.230 A  
ENDBRANCH   6   9
ENDBRANCH   2   6
TORSDOF 2
ENDMDL
MODEL      209
REMARK 921   NORMALIZED FREE ENERGY PREDICTED BY IDOCK:   -2.60 KCAL/MOL
REMARK 922        TOTAL FREE ENERGY PREDICTED BY IDOCK:   -3.11 KCAL/MOL
REMARK 923 INTER-LIGAND FREE ENERGY PREDICTED BY IDOCK:   -3.11 KCAL/MOL
REMARK 924 INTRA-LIGAND FREE ENERGY PREDICTED BY IDOCK:   -0.01 KCAL/MOL
REMARK 927      BINDING AFFINITY PREDICTED BY RF-SCORE:    0.00 PKD
ROOT
HETATM    1  C   UNL     1      -9.466  15.107  69.160  1.00  0.00    -0.221 C  
HETATM    2  C   UNL     1     -10.720  15.189  68.284  1.00  0.00    -0.251 C  
HETATM    3  N   UNL     1     -11.891  15.372  69.166  1.00  0.00    -0.415 NA 
HETATM    4  H1  UNL     1     -12.726  15.427  68.583  1.00  0.00     0.000 HD 
HETATM    5  H2  UNL     1     -11.793  16.176  69.787  1.00  0.00     0.000 HD 
ENDROOT
BRANCH   2   6
HETATM    6  C   UNL     1     -10.928  13.933  67.383  1.00  0.00    -0.288 C  
HETATM    7  H   UNL     1     -12.455  12.966  66.592  1.00  0.00     0.000 HD 
HETATM    8  O   UNL     1     -12.328  13.730  67.141  1.00  0.00    -0.357 OA 
BRANCH   6   9
HETATM    9  C   UNL     1     -10.310  12.672  67.959  1.00  0.00    -0.231 A  
HETATM   10  C   UNL     1     -10.968  11.917  68.948  1.00  0.00    -0.285 A  
HETATM   11  C   UNL     1     -10.351  10.791  69.485  1.00  0.00    -0.144 A  
HETATM   12  O   UNL     1     -10.947  10.039  70.459  1.00  0.00    -0.290 OA 
HETATM   13  C   UNL     1      -9.090  10.403  69.046  1.00  0.00    -0.187 A  
HETATM   14  H   UNL     1     -10.527   9.270  70.826  1.00  0.00     0.000 HD 
HETATM   15  C   UNL     1      -8.426  11.125  68.067  1.00  0.00    -0.135 A  
HETATM   16  O   UNL     1      -8.490   9.301  69.586  1.00  0.00    -0.120 OA 
HETATM   17  H   UNL     1      -7.629   9.036  69.286  1.00  0.00     0.000 HD 
HETATM   18  C   UNL     1      -9.035  12.261  67.526  1.00  0.00    -0.180 A  
ENDBRANCH   6   9
ENDBRANCH   2   6
TORSDOF 2
ENDMDL
MODEL      210
REMARK 921   NORMALIZED FREE ENERGY PREDICTED BY IDOCK:   -2.58 KCAL/MOL
REMARK 922        TOTAL FREE ENERGY PREDICTED BY IDOCK:   -3.09 KCAL/MOL
REMARK 923 INTER-LIGAND FREE ENERGY PREDICTED BY IDOCK:   -2.88 KCAL/MOL
REMARK 924 INTRA-LIGAND FREE ENERGY PREDICTED BY IDOCK:   -0.21 KCAL/MOL
REMARK 927      BINDING AFFINITY PREDICTED BY RF-SCORE:    0.00 PKD
ROOT
HETATM    1  C   UNL     1      -9.473   4.598  71.666  1.00  0.00    -0.210 C  
HETATM    2  C   UNL     1      -9.053   5.976  72.187  1.00  0.00    -0.142 C  
HETATM    3  N   UNL     1      -8.415   5.798  73.508  1.00  0.00    -0.114 NA 
HETATM    4  H1  UNL     1      -8.135   6.715  73.854  1.00  0.00     0.000 HD 
HETATM    5  H2  UNL     1      -7.641   5.134  73.484  1.00  0.00     0.000 HD 
ENDROOT
BRANCH   2   6
HETATM    6  C   UNL     1     -10.239   6.982  72.304  1.00  0.00    -0.186 C  
HETATM    7  H   UNL     1     -12.204   6.915  72.139  1.00  0.00     0.000 HD 
HETATM    8  O   UNL     1     -11.482   6.303  72.068  1.00  0.00    -0.282 OA 
BRANCH   6   9
HETATM    9  C   UNL     1     -10.110   8.174  71.373  1.00  0.00    -0.248 A  
HETATM   10  C   UNL     1      -8.854   8.715  71.044  1.00  0.00    -0.235 A  
HETATM   11  C   UNL     1      -8.776   9.836  70.223  1.00  0.00    -0.129 A  
HETATM   12  O   UNL     1      -7.577  10.405  69.891  1.00  0.00    -0.225 OA 
HETATM   13  C   UNL     1      -9.933  10.422  69.720  1.00  0.00    -0.124 A  
HETATM   14  H   UNL     1      -7.524  11.170  69.331  1.00  0.00     0.000 HD 
HETATM   15  C   UNL     1     -11.181   9.901  70.024  1.00  0.00    -0.327 A  
HETATM   16  O   UNL     1      -9.846  11.528  68.923  1.00  0.00    -0.340 OA 
HETATM   17  H   UNL     1     -10.636  11.928  68.580  1.00  0.00     0.000 HD 
HETATM   18  C   UNL     1     -11.269   8.779  70.853  1.00  0.00    -0.320 A  
ENDBRANCH   6   9
ENDBRANCH   2   6
TORSDOF 2
ENDMDL
MODEL      211
REMARK 921   NORMALIZED FREE ENERGY PREDICTED BY IDOCK:   -2.58 KCAL/MOL
REMARK 922        TOTAL FREE ENERGY PREDICTED BY IDOCK:   -3.09 KCAL/MOL
REMARK 923 INTER-LIGAND FREE ENERGY PREDICTED BY IDOCK:   -3.11 KCAL/MOL
REMARK 924 INTRA-LIGAND FREE ENERGY PREDICTED BY IDOCK:    0.02 KCAL/MOL
REMARK 927      BINDING AFFINITY PREDICTED BY RF-SCORE:    0.00 PKD
ROOT
HETATM    1  C   UNL     1      -9.172  20.564  69.761  1.00  0.00     1.288 C  
HETATM    2  C   UNL     1      -9.748  19.800  68.565  1.00  0.00    -0.371 C  
HETATM    3  N   UNL     1     -10.554  18.673  69.079  1.00  0.00    -0.276 NA 
HETATM    4  H1  UNL     1     -10.938  18.165  68.282  1.00  0.00     0.000 HD 
HETATM    5  H2  UNL     1     -11.273  18.972  69.737  1.00  0.00     0.000 HD 
ENDROOT
BRANCH   2   6
HETATM    6  C   UNL     1      -8.657  19.268  67.586  1.00  0.00    -0.296 C  
HETATM    7  H   UNL     1      -7.643  19.965  66.044  1.00  0.00     0.000 HD 
HETATM    8  O   UNL     1      -8.308  20.289  66.640  1.00  0.00    -0.297 OA 
BRANCH   6   9
HETATM    9  C   UNL     1      -9.069  18.001  66.859  1.00  0.00    -0.273 A  
HETATM   10  C   UNL     1     -10.037  18.021  65.838  1.00  0.00    -0.167 A  
HETATM   11  C   UNL     1     -10.422  16.834  65.224  1.00  0.00    -0.131 A  
HETATM   12  O   UNL     1     -11.371  16.806  64.239  1.00  0.00    -1.313 OA 
HETATM   13  C   UNL     1      -9.852  15.625  65.610  1.00  0.00    -0.333 A  
HETATM   14  H   UNL     1     -11.634  15.995  63.820  1.00  0.00     0.000 HD 
HETATM   15  C   UNL     1      -8.891  15.581  66.607  1.00  0.00    -0.325 A  
HETATM   16  O   UNL     1     -10.244  14.464  65.007  1.00  0.00    -0.409 OA 
HETATM   17  H   UNL     1      -9.855  13.639  65.270  1.00  0.00     0.000 HD 
HETATM   18  C   UNL     1      -8.502  16.768  67.234  1.00  0.00    -0.202 A  
ENDBRANCH   6   9
ENDBRANCH   2   6
TORSDOF 2
ENDMDL
MODEL      212
REMARK 921   NORMALIZED FREE ENERGY PREDICTED BY IDOCK:   -2.54 KCAL/MOL
REMARK 922        TOTAL FREE ENERGY PREDICTED BY IDOCK:   -3.05 KCAL/MOL
REMARK 923 INTER-LIGAND FREE ENERGY PREDICTED BY IDOCK:   -3.14 KCAL/MOL
REMARK 924 INTRA-LIGAND FREE ENERGY PREDICTED BY IDOCK:    0.09 KCAL/MOL
REMARK 927      BINDING AFFINITY PREDICTED BY RF-SCORE:    0.00 PKD
ROOT
HETATM    1  C   UNL     1      -9.451   8.387  71.178  1.00  0.00    -0.227 C  
HETATM    2  C   UNL     1     -10.516   8.198  70.093  1.00  0.00    -0.225 C  
HETATM    3  N   UNL     1     -11.457   9.336  70.165  1.00  0.00    -0.423 NA 
HETATM    4  H1  UNL     1     -12.167   9.210  69.443  1.00  0.00     0.000 HD 
HETATM    5  H2  UNL     1     -10.987  10.239  70.101  1.00  0.00     0.000 HD 
ENDROOT
BRANCH   2   6
HETATM    6  C   UNL     1     -11.299   6.855  70.222  1.00  0.00    -0.324 C  
HETATM    7  H   UNL     1     -13.118   6.293  70.740  1.00  0.00     0.000 HD 
HETATM    8  O   UNL     1     -12.641   7.111  70.662  1.00  0.00    -0.222 OA 
BRANCH   6   9
HETATM    9  C   UNL     1     -10.628   5.855  71.145  1.00  0.00    -0.306 A  
HETATM   10  C   UNL     1     -11.112   5.615  72.444  1.00  0.00    -0.324 A  
HETATM   11  C   UNL     1     -10.446   4.723  73.279  1.00  0.00    -0.202 A  
HETATM   12  O   UNL     1     -10.872   4.473  74.554  1.00  0.00    -0.324 OA 
HETATM   13  C   UNL     1      -9.305   4.063  72.835  1.00  0.00    -0.114 A  
HETATM   14  H   UNL     1     -10.417   3.864  75.124  1.00  0.00     0.000 HD 
HETATM   15  C   UNL     1      -8.814   4.276  71.557  1.00  0.00    -0.147 A  
HETATM   16  O   UNL     1      -8.653   3.196  73.666  1.00  0.00    -0.074 OA 
HETATM   17  H   UNL     1      -7.874   2.745  73.363  1.00  0.00     0.000 HD 
HETATM   18  C   UNL     1      -9.474   5.175  70.713  1.00  0.00    -0.224 A  
ENDBRANCH   6   9
ENDBRANCH   2   6
TORSDOF 2
ENDMDL
MODEL      213
REMARK 921   NORMALIZED FREE ENERGY PREDICTED BY IDOCK:   -2.52 KCAL/MOL
REMARK 922        TOTAL FREE ENERGY PREDICTED BY IDOCK:   -3.02 KCAL/MOL
REMARK 923 INTER-LIGAND FREE ENERGY PREDICTED BY IDOCK:   -2.80 KCAL/MOL
REMARK 924 INTRA-LIGAND FREE ENERGY PREDICTED BY IDOCK:   -0.23 KCAL/MOL
REMARK 927      BINDING AFFINITY PREDICTED BY RF-SCORE:    0.00 PKD
ROOT
HETATM    1  C   UNL     1      -9.106  10.307  68.965  1.00  0.00    -0.187 C  
HETATM    2  C   UNL     1      -9.173  10.074  67.452  1.00  0.00    -0.137 C  
HETATM    3  N   UNL     1      -8.281   8.944  67.117  1.00  0.00    -0.103 NA 
HETATM    4  H1  UNL     1      -8.326   8.789  66.109  1.00  0.00     0.000 HD 
HETATM    5  H2  UNL     1      -8.495   8.103  67.654  1.00  0.00     0.000 HD 
ENDROOT
BRANCH   2   6
HETATM    6  C   UNL     1      -8.775  11.328  66.614  1.00  0.00    -0.174 C  
HETATM    7  H   UNL     1      -7.117  12.314  66.199  1.00  0.00     0.000 HD 
HETATM    8  O   UNL     1      -7.360  11.551  66.709  1.00  0.00    -0.141 OA 
BRANCH   6   9
HETATM    9  C   UNL     1      -9.529  12.583  67.015  1.00  0.00    -0.217 A  
HETATM   10  C   UNL     1     -10.926  12.678  66.868  1.00  0.00    -0.297 A  
HETATM   11  C   UNL     1     -11.579  13.860  67.204  1.00  0.00    -0.364 A  
HETATM   12  O   UNL     1     -12.931  14.001  67.062  1.00  0.00    -0.197 OA 
HETATM   13  C   UNL     1     -10.860  14.947  67.690  1.00  0.00    -0.286 A  
HETATM   14  H   UNL     1     -13.377  14.808  67.291  1.00  0.00     0.000 HD 
HETATM   15  C   UNL     1      -9.486  14.874  67.850  1.00  0.00    -0.200 A  
HETATM   16  O   UNL     1     -11.510  16.106  68.008  1.00  0.00    -0.289 OA 
HETATM   17  H   UNL     1     -11.019  16.848  68.339  1.00  0.00     0.000 HD 
HETATM   18  C   UNL     1      -8.820  13.693  67.510  1.00  0.00    -0.205 A  
ENDBRANCH   6   9
ENDBRANCH   2   6
TORSDOF 2
ENDMDL
MODEL      214
REMARK 921   NORMALIZED FREE ENERGY PREDICTED BY IDOCK:   -2.51 KCAL/MOL
REMARK 922        TOTAL FREE ENERGY PREDICTED BY IDOCK:   -3.02 KCAL/MOL
REMARK 923 INTER-LIGAND FREE ENERGY PREDICTED BY IDOCK:   -3.00 KCAL/MOL
REMARK 924 INTRA-LIGAND FREE ENERGY PREDICTED BY IDOCK:   -0.02 KCAL/MOL
REMARK 927      BINDING AFFINITY PREDICTED BY RF-SCORE:    0.00 PKD
ROOT
HETATM    1  C   UNL     1      -8.468  12.976  68.009  1.00  0.00    -0.181 C  
HETATM    2  C   UNL     1      -9.661  13.198  67.075  1.00  0.00    -0.241 C  
HETATM    3  N   UNL     1     -10.781  13.739  67.874  1.00  0.00    -0.244 NA 
HETATM    4  H1  UNL     1     -11.576  13.887  67.252  1.00  0.00     0.000 HD 
HETATM    5  H2  UNL     1     -10.524  14.580  68.390  1.00  0.00     0.000 HD 
ENDROOT
BRANCH   2   6
HETATM    6  C   UNL     1     -10.117  11.903  66.335  1.00  0.00    -0.214 C  
HETATM    7  H   UNL     1     -11.746  11.264  65.424  1.00  0.00     0.000 HD 
HETATM    8  O   UNL     1     -11.469  12.052  65.875  1.00  0.00    -0.350 OA 
BRANCH   6   9
HETATM    9  C   UNL     1      -9.989  10.650  67.181  1.00  0.00    -0.234 A  
HETATM   10  C   UNL     1     -10.917  10.351  68.196  1.00  0.00    -0.334 A  
HETATM   11  C   UNL     1     -10.743   9.217  68.982  1.00  0.00    -0.153 A  
HETATM   12  O   UNL     1     -11.611   8.897  69.989  1.00  0.00    -0.461 OA 
HETATM   13  C   UNL     1      -9.659   8.371  68.768  1.00  0.00    -0.149 A  
HETATM   14  H   UNL     1     -11.492   8.122  70.526  1.00  0.00     0.000 HD 
HETATM   15  C   UNL     1      -8.737   8.641  67.769  1.00  0.00    -0.137 A  
HETATM   16  O   UNL     1      -9.493   7.265  69.551  1.00  0.00    -0.156 OA 
HETATM   17  H   UNL     1      -8.753   6.688  69.405  1.00  0.00     0.000 HD 
HETATM   18  C   UNL     1      -8.900   9.781  66.978  1.00  0.00    -0.145 A  
ENDBRANCH   6   9
ENDBRANCH   2   6
TORSDOF 2
ENDMDL
MODEL      215
REMARK 921   NORMALIZED FREE ENERGY PREDICTED BY IDOCK:   -2.49 KCAL/MOL
REMARK 922        TOTAL FREE ENERGY PREDICTED BY IDOCK:   -2.99 KCAL/MOL
REMARK 923 INTER-LIGAND FREE ENERGY PREDICTED BY IDOCK:   -2.81 KCAL/MOL
REMARK 924 INTRA-LIGAND FREE ENERGY PREDICTED BY IDOCK:   -0.18 KCAL/MOL
REMARK 927      BINDING AFFINITY PREDICTED BY RF-SCORE:    0.00 PKD
ROOT
HETATM    1  C   UNL     1      -7.097   7.474  65.122  1.00  0.00    -0.063 C  
HETATM    2  C   UNL     1      -8.308   8.410  65.184  1.00  0.00    -0.167 C  
HETATM    3  N   UNL     1      -9.534   7.589  65.101  1.00  0.00     0.333 NA 
HETATM    4  H1  UNL     1     -10.340   8.213  65.142  1.00  0.00     0.000 HD 
HETATM    5  H2  UNL     1      -9.566   6.858  65.812  1.00  0.00     0.000 HD 
ENDROOT
BRANCH   2   6
HETATM    6  C   UNL     1      -8.316   9.487  64.056  1.00  0.00    -0.170 C  
HETATM    7  H   UNL     1      -7.019  10.737  63.249  1.00  0.00     0.000 HD 
HETATM    8  O   UNL     1      -7.014  10.081  63.936  1.00  0.00    -0.123 OA 
BRANCH   6   9
HETATM    9  C   UNL     1      -9.365  10.565  64.261  1.00  0.00    -0.310 A  
HETATM   10  C   UNL     1      -9.597  11.132  65.527  1.00  0.00    -0.263 A  
HETATM   11  C   UNL     1     -10.597  12.085  65.687  1.00  0.00    -0.265 A  
HETATM   12  O   UNL     1     -10.867  12.651  66.903  1.00  0.00    -0.246 OA 
HETATM   13  C   UNL     1     -11.367  12.486  64.601  1.00  0.00    -0.318 A  
HETATM   14  H   UNL     1     -11.550  13.302  67.012  1.00  0.00     0.000 HD 
HETATM   15  C   UNL     1     -11.152  11.948  63.342  1.00  0.00    -0.463 A  
HETATM   16  O   UNL     1     -12.353  13.416  64.770  1.00  0.00    -0.406 OA 
HETATM   17  H   UNL     1     -12.879  13.690  64.028  1.00  0.00     0.000 HD 
HETATM   18  C   UNL     1     -10.153  10.985  63.173  1.00  0.00    -0.350 A  
ENDBRANCH   6   9
ENDBRANCH   2   6
TORSDOF 2
ENDMDL
MODEL      216
REMARK 921   NORMALIZED FREE ENERGY PREDICTED BY IDOCK:   -2.49 KCAL/MOL
REMARK 922        TOTAL FREE ENERGY PREDICTED BY IDOCK:   -2.99 KCAL/MOL
REMARK 923 INTER-LIGAND FREE ENERGY PREDICTED BY IDOCK:   -3.03 KCAL/MOL
REMARK 924 INTRA-LIGAND FREE ENERGY PREDICTED BY IDOCK:    0.05 KCAL/MOL
REMARK 927      BINDING AFFINITY PREDICTED BY RF-SCORE:    0.00 PKD
ROOT
HETATM    1  C   UNL     1      -8.260   4.589  63.660  1.00  0.00    -0.103 C  
HETATM    2  C   UNL     1      -8.573   3.779  64.922  1.00  0.00    -0.113 C  
HETATM    3  N   UNL     1     -10.041   3.637  65.030  1.00  0.00    -0.374 NA 
HETATM    4  H1  UNL     1     -10.248   3.097  65.870  1.00  0.00     0.000 HD 
HETATM    5  H2  UNL     1     -10.459   3.235  64.191  1.00  0.00     0.000 HD 
ENDROOT
BRANCH   2   6
HETATM    6  C   UNL     1      -8.007   4.421  66.225  1.00  0.00    -0.099 C  
HETATM    7  H   UNL     1      -6.952   3.824  67.782  1.00  0.00     0.000 HD 
HETATM    8  O   UNL     1      -7.297   3.434  66.989  1.00  0.00    -0.065 OA 
BRANCH   6   9
HETATM    9  C   UNL     1      -9.072   5.078  67.083  1.00  0.00    -0.115 A  
HETATM   10  C   UNL     1      -9.621   6.329  66.743  1.00  0.00    -0.183 A  
HETATM   11  C   UNL     1     -10.563   6.922  67.576  1.00  0.00    -0.281 A  
HETATM   12  O   UNL     1     -11.110   8.143  67.292  1.00  0.00    -0.451 OA 
HETATM   13  C   UNL     1     -10.971   6.285  68.743  1.00  0.00    -0.352 A  
HETATM   14  H   UNL     1     -11.754   8.549  67.861  1.00  0.00     0.000 HD 
HETATM   15  C   UNL     1     -10.451   5.049  69.095  1.00  0.00    -0.087 A  
HETATM   16  O   UNL     1     -11.890   6.881  69.559  1.00  0.00    -0.602 OA 
HETATM   17  H   UNL     1     -12.169   6.445  70.356  1.00  0.00     0.000 HD 
HETATM   18  C   UNL     1      -9.499   4.448  68.267  1.00  0.00    -0.210 A  
ENDBRANCH   6   9
ENDBRANCH   2   6
TORSDOF 2
ENDMDL
MODEL      217
REMARK 921   NORMALIZED FREE ENERGY PREDICTED BY IDOCK:   -2.47 KCAL/MOL
REMARK 922        TOTAL FREE ENERGY PREDICTED BY IDOCK:   -2.97 KCAL/MOL
REMARK 923 INTER-LIGAND FREE ENERGY PREDICTED BY IDOCK:   -2.97 KCAL/MOL
REMARK 924 INTRA-LIGAND FREE ENERGY PREDICTED BY IDOCK:   -0.01 KCAL/MOL
REMARK 927      BINDING AFFINITY PREDICTED BY RF-SCORE:    0.00 PKD
ROOT
HETATM    1  C   UNL     1      -9.880  10.382  65.835  1.00  0.00    -0.294 C  
HETATM    2  C   UNL     1      -9.629   9.482  67.049  1.00  0.00    -0.164 C  
HETATM    3  N   UNL     1      -9.439   8.097  66.568  1.00  0.00    -0.207 NA 
HETATM    4  H1  UNL     1      -9.272   7.498  67.376  1.00  0.00     0.000 HD 
HETATM    5  H2  UNL     1      -8.704   8.023  65.865  1.00  0.00     0.000 HD 
ENDROOT
BRANCH   2   6
HETATM    6  C   UNL     1     -10.782   9.524  68.099  1.00  0.00    -0.197 C  
HETATM    7  H   UNL     1     -12.145  10.821  68.688  1.00  0.00     0.000 HD 
HETATM    8  O   UNL     1     -11.444  10.796  68.049  1.00  0.00    -0.391 OA 
BRANCH   6   9
HETATM    9  C   UNL     1     -10.316   9.232  69.514  1.00  0.00    -0.223 A  
HETATM   10  C   UNL     1      -9.079   8.611  69.766  1.00  0.00    -0.150 A  
HETATM   11  C   UNL     1      -8.704   8.318  71.074  1.00  0.00    -0.146 A  
HETATM   12  O   UNL     1      -7.519   7.700  71.363  1.00  0.00    -0.076 OA 
HETATM   13  C   UNL     1      -9.543   8.641  72.135  1.00  0.00    -0.307 A  
HETATM   14  H   UNL     1      -7.263   7.501  72.256  1.00  0.00     0.000 HD 
HETATM   15  C   UNL     1     -10.762   9.261  71.912  1.00  0.00    -0.209 A  
HETATM   16  O   UNL     1      -9.169   8.342  73.414  1.00  0.00    -0.241 OA 
HETATM   17  H   UNL     1      -9.742   8.563  74.139  1.00  0.00     0.000 HD 
HETATM   18  C   UNL     1     -11.150   9.554  70.601  1.00  0.00    -0.364 A  
ENDBRANCH   6   9
ENDBRANCH   2   6
TORSDOF 2
ENDMDL
MODEL      218
REMARK 921   NORMALIZED FREE ENERGY PREDICTED BY IDOCK:   -2.46 KCAL/MOL
REMARK 922        TOTAL FREE ENERGY PREDICTED BY IDOCK:   -2.96 KCAL/MOL
REMARK 923 INTER-LIGAND FREE ENERGY PREDICTED BY IDOCK:   -3.13 KCAL/MOL
REMARK 924 INTRA-LIGAND FREE ENERGY PREDICTED BY IDOCK:    0.18 KCAL/MOL
REMARK 927      BINDING AFFINITY PREDICTED BY RF-SCORE:    0.00 PKD
ROOT
HETATM    1  C   UNL     1      -9.397   5.262  67.989  1.00  0.00    -0.135 C  
HETATM    2  C   UNL     1      -8.135   6.067  68.316  1.00  0.00    -0.110 C  
HETATM    3  N   UNL     1      -7.421   5.384  69.416  1.00  0.00    -0.068 NA 
HETATM    4  H1  UNL     1      -6.581   5.921  69.634  1.00  0.00     0.000 HD 
HETATM    5  H2  UNL     1      -7.220   4.407  69.207  1.00  0.00     0.000 HD 
ENDROOT
BRANCH   2   6
HETATM    6  C   UNL     1      -8.430   7.545  68.714  1.00  0.00    -0.129 C  
HETATM    7  H   UNL     1      -7.384   9.121  69.276  1.00  0.00     0.000 HD 
HETATM    8  O   UNL     1      -7.205   8.221  69.034  1.00  0.00    -0.070 OA 
BRANCH   6   9
HETATM    9  C   UNL     1      -9.412   7.673  69.865  1.00  0.00    -0.160 A  
HETATM   10  C   UNL     1     -10.792   7.469  69.678  1.00  0.00    -0.210 A  
HETATM   11  C   UNL     1     -11.668   7.639  70.746  1.00  0.00    -0.239 A  
HETATM   12  O   UNL     1     -13.017   7.466  70.606  1.00  0.00    -0.583 OA 
HETATM   13  C   UNL     1     -11.188   8.004  71.999  1.00  0.00    -0.298 A  
HETATM   14  H   UNL     1     -13.616   7.582  71.334  1.00  0.00     0.000 HD 
HETATM   15  C   UNL     1      -9.832   8.203  72.208  1.00  0.00    -0.329 A  
HETATM   16  O   UNL     1     -12.058   8.177  73.038  1.00  0.00    -0.640 OA 
HETATM   17  H   UNL     1     -11.729   8.426  73.893  1.00  0.00     0.000 HD 
HETATM   18  C   UNL     1      -8.945   8.041  71.141  1.00  0.00    -0.162 A  
ENDBRANCH   6   9
ENDBRANCH   2   6
TORSDOF 2
ENDMDL
MODEL      219
REMARK 921   NORMALIZED FREE ENERGY PREDICTED BY IDOCK:   -2.44 KCAL/MOL
REMARK 922        TOTAL FREE ENERGY PREDICTED BY IDOCK:   -2.94 KCAL/MOL
REMARK 923 INTER-LIGAND FREE ENERGY PREDICTED BY IDOCK:   -2.73 KCAL/MOL
REMARK 924 INTRA-LIGAND FREE ENERGY PREDICTED BY IDOCK:   -0.21 KCAL/MOL
REMARK 927      BINDING AFFINITY PREDICTED BY RF-SCORE:    0.00 PKD
ROOT
HETATM    1  C   UNL     1      -9.394   7.787  66.370  1.00  0.00    -0.237 C  
HETATM    2  C   UNL     1     -10.013   6.781  67.345  1.00  0.00    -0.148 C  
HETATM    3  N   UNL     1     -11.089   6.053  66.641  1.00  0.00    -0.747 NA 
HETATM    4  H1  UNL     1     -11.501   5.383  67.290  1.00  0.00     0.000 HD 
HETATM    5  H2  UNL     1     -10.767   5.616  65.777  1.00  0.00     0.000 HD 
ENDROOT
BRANCH   2   6
HETATM    6  C   UNL     1     -10.582   7.443  68.639  1.00  0.00    -0.154 C  
HETATM    7  H   UNL     1     -10.867   9.275  69.312  1.00  0.00     0.000 HD 
HETATM    8  O   UNL     1     -10.520   8.872  68.525  1.00  0.00    -0.205 OA 
BRANCH   6   9
HETATM    9  C   UNL     1      -9.878   6.988  69.904  1.00  0.00    -0.173 A  
HETATM   10  C   UNL     1      -9.121   7.882  70.685  1.00  0.00    -0.153 A  
HETATM   11  C   UNL     1      -8.453   7.421  71.815  1.00  0.00    -0.107 A  
HETATM   12  O   UNL     1      -7.694   8.251  72.592  1.00  0.00    -0.125 OA 
HETATM   13  C   UNL     1      -8.533   6.082  72.182  1.00  0.00    -0.124 A  
HETATM   14  H   UNL     1      -7.237   7.937  73.364  1.00  0.00     0.000 HD 
HETATM   15  C   UNL     1      -9.278   5.185  71.434  1.00  0.00    -0.180 A  
HETATM   16  O   UNL     1      -7.866   5.638  73.288  1.00  0.00    -0.105 OA 
HETATM   17  H   UNL     1      -7.920   4.724  73.539  1.00  0.00     0.000 HD 
HETATM   18  C   UNL     1      -9.948   5.638  70.294  1.00  0.00    -0.269 A  
ENDBRANCH   6   9
ENDBRANCH   2   6
TORSDOF 2
ENDMDL
MODEL      220
REMARK 921   NORMALIZED FREE ENERGY PREDICTED BY IDOCK:   -2.43 KCAL/MOL
REMARK 922        TOTAL FREE ENERGY PREDICTED BY IDOCK:   -2.93 KCAL/MOL
REMARK 923 INTER-LIGAND FREE ENERGY PREDICTED BY IDOCK:   -2.73 KCAL/MOL
REMARK 924 INTRA-LIGAND FREE ENERGY PREDICTED BY IDOCK:   -0.20 KCAL/MOL
REMARK 927      BINDING AFFINITY PREDICTED BY RF-SCORE:    0.00 PKD
ROOT
HETATM    1  C   UNL     1      -7.695   4.768  71.877  1.00  0.00    -0.098 C  
HETATM    2  C   UNL     1      -8.946   4.639  71.002  1.00  0.00    -0.125 C  
HETATM    3  N   UNL     1     -10.120   4.502  71.889  1.00  0.00    -0.190 NA 
HETATM    4  H1  UNL     1     -10.953   4.417  71.307  1.00  0.00     0.000 HD 
HETATM    5  H2  UNL     1     -10.191   5.262  72.567  1.00  0.00     0.000 HD 
ENDROOT
BRANCH   2   6
HETATM    6  C   UNL     1      -8.888   3.436  70.012  1.00  0.00    -0.089 C  
HETATM    7  H   UNL     1      -7.540   2.124  69.419  1.00  0.00     0.000 HD 
HETATM    8  O   UNL     1      -7.575   2.857  70.021  1.00  0.00    -0.044 OA 
BRANCH   6   9
HETATM    9  C   UNL     1      -9.286   3.805  68.595  1.00  0.00    -0.226 A  
HETATM   10  C   UNL     1      -9.953   5.011  68.309  1.00  0.00    -0.193 A  
HETATM   11  C   UNL     1     -10.343   5.295  67.004  1.00  0.00    -0.236 A  
HETATM   12  O   UNL     1     -11.007   6.447  66.685  1.00  0.00    -0.564 OA 
HETATM   13  C   UNL     1     -10.072   4.397  65.977  1.00  0.00    -0.239 A  
HETATM   14  H   UNL     1     -11.273   6.642  65.794  1.00  0.00     0.000 HD 
HETATM   15  C   UNL     1      -9.409   3.207  66.233  1.00  0.00    -0.110 A  
HETATM   16  O   UNL     1     -10.467   4.682  64.701  1.00  0.00    -0.425 OA 
HETATM   17  H   UNL     1     -10.282   4.069  64.000  1.00  0.00     0.000 HD 
HETATM   18  C   UNL     1      -9.020   2.909  67.542  1.00  0.00    -0.192 A  
ENDBRANCH   6   9
ENDBRANCH   2   6
TORSDOF 2
ENDMDL
MODEL      221
REMARK 921   NORMALIZED FREE ENERGY PREDICTED BY IDOCK:   -2.41 KCAL/MOL
REMARK 922        TOTAL FREE ENERGY PREDICTED BY IDOCK:   -2.90 KCAL/MOL
REMARK 923 INTER-LIGAND FREE ENERGY PREDICTED BY IDOCK:   -2.96 KCAL/MOL
REMARK 924 INTRA-LIGAND FREE ENERGY PREDICTED BY IDOCK:    0.05 KCAL/MOL
REMARK 927      BINDING AFFINITY PREDICTED BY RF-SCORE:    0.00 PKD
ROOT
HETATM    1  C   UNL     1     -10.062   6.940  66.801  1.00  0.00    -0.264 C  
HETATM    2  C   UNL     1      -8.945   7.690  66.070  1.00  0.00    -0.139 C  
HETATM    3  N   UNL     1      -7.649   7.251  66.628  1.00  0.00    -0.091 NA 
HETATM    4  H1  UNL     1      -6.905   7.751  66.141  1.00  0.00     0.000 HD 
HETATM    5  H2  UNL     1      -7.529   6.239  66.594  1.00  0.00     0.000 HD 
ENDROOT
BRANCH   2   6
HETATM    6  C   UNL     1      -9.068   9.241  66.176  1.00  0.00    -0.179 C  
HETATM    7  H   UNL     1      -7.854  10.792  66.074  1.00  0.00     0.000 HD 
HETATM    8  O   UNL     1      -7.778   9.848  66.009  1.00  0.00    -0.102 OA 
BRANCH   6   9
HETATM    9  C   UNL     1      -9.699   9.706  67.476  1.00  0.00    -0.195 A  
HETATM   10  C   UNL     1      -9.076   9.479  68.717  1.00  0.00    -0.133 A  
HETATM   11  C   UNL     1      -9.705   9.879  69.892  1.00  0.00    -0.235 A  
HETATM   12  O   UNL     1      -9.142   9.664  71.120  1.00  0.00    -0.338 OA 
HETATM   13  C   UNL     1     -10.945  10.508  69.848  1.00  0.00    -0.298 A  
HETATM   14  H   UNL     1      -9.571   9.937  71.923  1.00  0.00     0.000 HD 
HETATM   15  C   UNL     1     -11.574  10.749  68.637  1.00  0.00    -0.342 A  
HETATM   16  O   UNL     1     -11.557  10.888  71.008  1.00  0.00    -0.307 OA 
HETATM   17  H   UNL     1     -12.404  11.317  70.978  1.00  0.00     0.000 HD 
HETATM   18  C   UNL     1     -10.953  10.345  67.452  1.00  0.00    -0.335 A  
ENDBRANCH   6   9
ENDBRANCH   2   6
TORSDOF 2
ENDMDL
MODEL      222
REMARK 921   NORMALIZED FREE ENERGY PREDICTED BY IDOCK:   -2.40 KCAL/MOL
REMARK 922        TOTAL FREE ENERGY PREDICTED BY IDOCK:   -2.89 KCAL/MOL
REMARK 923 INTER-LIGAND FREE ENERGY PREDICTED BY IDOCK:   -2.82 KCAL/MOL
REMARK 924 INTRA-LIGAND FREE ENERGY PREDICTED BY IDOCK:   -0.07 KCAL/MOL
REMARK 927      BINDING AFFINITY PREDICTED BY RF-SCORE:    0.00 PKD
ROOT
HETATM    1  C   UNL     1      -9.351   8.927  67.710  1.00  0.00    -0.157 C  
HETATM    2  C   UNL     1      -9.102   7.664  68.541  1.00  0.00    -0.131 C  
HETATM    3  N   UNL     1      -8.709   8.075  69.905  1.00  0.00    -0.138 NA 
HETATM    4  H1  UNL     1      -8.544   7.234  70.458  1.00  0.00     0.000 HD 
HETATM    5  H2  UNL     1      -9.389   8.702  70.337  1.00  0.00     0.000 HD 
ENDROOT
BRANCH   2   6
HETATM    6  C   UNL     1      -8.009   6.730  67.935  1.00  0.00    -0.114 C  
HETATM    7  H   UNL     1      -6.392   6.939  66.824  1.00  0.00     0.000 HD 
HETATM    8  O   UNL     1      -7.058   7.507  67.193  1.00  0.00    -0.080 OA 
BRANCH   6   9
HETATM    9  C   UNL     1      -8.578   5.627  67.061  1.00  0.00    -0.109 A  
HETATM   10  C   UNL     1      -9.823   5.766  66.421  1.00  0.00    -0.174 A  
HETATM   11  C   UNL     1     -10.334   4.717  65.664  1.00  0.00    -0.238 A  
HETATM   12  O   UNL     1     -11.547   4.803  65.038  1.00  0.00    -0.995 OA 
HETATM   13  C   UNL     1      -9.619   3.531  65.531  1.00  0.00    -0.125 A  
HETATM   14  H   UNL     1     -11.896   4.087  64.521  1.00  0.00     0.000 HD 
HETATM   15  C   UNL     1      -8.387   3.374  66.146  1.00  0.00    -0.103 A  
HETATM   16  O   UNL     1     -10.134   2.504  64.792  1.00  0.00    -0.354 OA 
HETATM   17  H   UNL     1      -9.646   1.695  64.702  1.00  0.00     0.000 HD 
HETATM   18  C   UNL     1      -7.868   4.421  66.913  1.00  0.00    -0.098 A  
ENDBRANCH   6   9
ENDBRANCH   2   6
TORSDOF 2
ENDMDL
MODEL      223
REMARK 921   NORMALIZED FREE ENERGY PREDICTED BY IDOCK:   -2.38 KCAL/MOL
REMARK 922        TOTAL FREE ENERGY PREDICTED BY IDOCK:   -2.87 KCAL/MOL
REMARK 923 INTER-LIGAND FREE ENERGY PREDICTED BY IDOCK:   -2.96 KCAL/MOL
REMARK 924 INTRA-LIGAND FREE ENERGY PREDICTED BY IDOCK:    0.09 KCAL/MOL
REMARK 927      BINDING AFFINITY PREDICTED BY RF-SCORE:    0.00 PKD
ROOT
HETATM    1  C   UNL     1      -8.605   9.979  68.380  1.00  0.00    -0.113 C  
HETATM    2  C   UNL     1      -8.204   8.513  68.571  1.00  0.00    -0.123 C  
HETATM    3  N   UNL     1      -7.653   8.012  67.295  1.00  0.00    -0.096 NA 
HETATM    4  H1  UNL     1      -7.386   7.036  67.423  1.00  0.00     0.000 HD 
HETATM    5  H2  UNL     1      -6.886   8.587  66.946  1.00  0.00     0.000 HD 
ENDROOT
BRANCH   2   6
HETATM    6  C   UNL     1      -9.385   7.604  69.030  1.00  0.00    -0.146 C  
HETATM    7  H   UNL     1      -9.976   6.750  70.708  1.00  0.00     0.000 HD 
HETATM    8  O   UNL     1      -9.257   7.304  70.428  1.00  0.00    -0.158 OA 
BRANCH   6   9
HETATM    9  C   UNL     1      -9.502   6.320  68.229  1.00  0.00    -0.117 A  
HETATM   10  C   UNL     1     -10.359   6.224  67.117  1.00  0.00    -0.286 A  
HETATM   11  C   UNL     1     -10.474   5.018  66.433  1.00  0.00    -0.300 A  
HETATM   12  O   UNL     1     -11.306   4.876  65.357  1.00  0.00    -0.881 OA 
HETATM   13  C   UNL     1      -9.743   3.906  66.838  1.00  0.00    -0.157 A  
HETATM   14  H   UNL     1     -11.385   4.052  64.890  1.00  0.00     0.000 HD 
HETATM   15  C   UNL     1      -8.886   3.979  67.925  1.00  0.00    -0.132 A  
HETATM   16  O   UNL     1      -9.870   2.725  66.165  1.00  0.00    -0.351 OA 
HETATM   17  H   UNL     1      -9.371   1.966  66.442  1.00  0.00     0.000 HD 
HETATM   18  C   UNL     1      -8.768   5.185  68.622  1.00  0.00    -0.098 A  
ENDBRANCH   6   9
ENDBRANCH   2   6
TORSDOF 2
ENDMDL
MODEL      224
REMARK 921   NORMALIZED FREE ENERGY PREDICTED BY IDOCK:   -2.34 KCAL/MOL
REMARK 922        TOTAL FREE ENERGY PREDICTED BY IDOCK:   -2.82 KCAL/MOL
REMARK 923 INTER-LIGAND FREE ENERGY PREDICTED BY IDOCK:   -2.95 KCAL/MOL
REMARK 924 INTRA-LIGAND FREE ENERGY PREDICTED BY IDOCK:    0.13 KCAL/MOL
REMARK 927      BINDING AFFINITY PREDICTED BY RF-SCORE:    0.00 PKD
ROOT
HETATM    1  C   UNL     1      -8.135   7.081  71.953  1.00  0.00    -0.098 C  
HETATM    2  C   UNL     1      -8.033   8.059  70.778  1.00  0.00    -0.099 C  
HETATM    3  N   UNL     1      -7.437   9.318  71.273  1.00  0.00    -0.320 NA 
HETATM    4  H1  UNL     1      -7.369   9.969  70.491  1.00  0.00     0.000 HD 
HETATM    5  H2  UNL     1      -6.542   9.171  71.741  1.00  0.00     0.000 HD 
ENDROOT
BRANCH   2   6
HETATM    6  C   UNL     1      -9.406   8.356  70.099  1.00  0.00    -0.163 C  
HETATM    7  H   UNL     1     -11.260   8.686  70.686  1.00  0.00     0.000 HD 
HETATM    8  O   UNL     1     -10.424   8.505  71.099  1.00  0.00    -0.203 OA 
BRANCH   6   9
HETATM    9  C   UNL     1      -9.816   7.300  69.089  1.00  0.00    -0.166 A  
HETATM   10  C   UNL     1      -9.465   5.948  69.256  1.00  0.00    -0.154 A  
HETATM   11  C   UNL     1      -9.820   5.014  68.287  1.00  0.00    -0.150 A  
HETATM   12  O   UNL     1      -9.486   3.694  68.401  1.00  0.00    -0.172 OA 
HETATM   13  C   UNL     1     -10.526   5.409  67.155  1.00  0.00    -0.235 A  
HETATM   14  H   UNL     1      -9.728   3.056  67.739  1.00  0.00     0.000 HD 
HETATM   15  C   UNL     1     -10.890   6.734  66.973  1.00  0.00    -0.453 A  
HETATM   16  O   UNL     1     -10.862   4.487  66.206  1.00  0.00    -0.462 OA 
HETATM   17  H   UNL     1     -11.344   4.756  65.433  1.00  0.00     0.000 HD 
HETATM   18  C   UNL     1     -10.532   7.680  67.938  1.00  0.00    -0.270 A  
ENDBRANCH   6   9
ENDBRANCH   2   6
TORSDOF 2
ENDMDL
MODEL      225
REMARK 921   NORMALIZED FREE ENERGY PREDICTED BY IDOCK:   -2.34 KCAL/MOL
REMARK 922        TOTAL FREE ENERGY PREDICTED BY IDOCK:   -2.82 KCAL/MOL
REMARK 923 INTER-LIGAND FREE ENERGY PREDICTED BY IDOCK:   -2.69 KCAL/MOL
REMARK 924 INTRA-LIGAND FREE ENERGY PREDICTED BY IDOCK:   -0.13 KCAL/MOL
REMARK 927      BINDING AFFINITY PREDICTED BY RF-SCORE:    0.00 PKD
ROOT
HETATM    1  C   UNL     1      -8.080  12.503  68.315  1.00  0.00    -0.165 C  
HETATM    2  C   UNL     1      -8.582  11.058  68.395  1.00  0.00    -0.149 C  
HETATM    3  N   UNL     1      -8.397  10.578  69.781  1.00  0.00    -0.379 NA 
HETATM    4  H1  UNL     1      -8.731   9.616  69.833  1.00  0.00     0.000 HD 
HETATM    5  H2  UNL     1      -8.840  11.187  70.469  1.00  0.00     0.000 HD 
ENDROOT
BRANCH   2   6
HETATM    6  C   UNL     1      -7.860  10.096  67.402  1.00  0.00    -0.102 C  
HETATM    7  H   UNL     1      -7.103  10.209  65.583  1.00  0.00     0.000 HD 
HETATM    8  O   UNL     1      -7.543  10.794  66.188  1.00  0.00    -0.141 OA 
BRANCH   6   9
HETATM    9  C   UNL     1      -8.659   8.844  67.090  1.00  0.00    -0.112 A  
HETATM   10  C   UNL     1      -8.051   7.706  66.528  1.00  0.00    -0.119 A  
HETATM   11  C   UNL     1      -8.823   6.592  66.214  1.00  0.00    -0.146 A  
HETATM   12  O   UNL     1      -8.276   5.472  65.651  1.00  0.00    -0.116 OA 
HETATM   13  C   UNL     1     -10.192   6.592  66.458  1.00  0.00    -0.059 A  
HETATM   14  H   UNL     1      -8.803   4.711  65.437  1.00  0.00     0.000 HD 
HETATM   15  C   UNL     1     -10.812   7.698  67.019  1.00  0.00    -0.219 A  
HETATM   16  O   UNL     1     -10.942   5.496  66.138  1.00  0.00    -0.698 OA 
HETATM   17  H   UNL     1     -11.877   5.497  66.305  1.00  0.00     0.000 HD 
HETATM   18  C   UNL     1     -10.046   8.824  67.332  1.00  0.00    -0.289 A  
ENDBRANCH   6   9
ENDBRANCH   2   6
TORSDOF 2
ENDMDL
MODEL      226
REMARK 921   NORMALIZED FREE ENERGY PREDICTED BY IDOCK:   -2.33 KCAL/MOL
REMARK 922        TOTAL FREE ENERGY PREDICTED BY IDOCK:   -2.81 KCAL/MOL
REMARK 923 INTER-LIGAND FREE ENERGY PREDICTED BY IDOCK:   -2.68 KCAL/MOL
REMARK 924 INTRA-LIGAND FREE ENERGY PREDICTED BY IDOCK:   -0.13 KCAL/MOL
REMARK 927      BINDING AFFINITY PREDICTED BY RF-SCORE:    0.00 PKD
ROOT
HETATM    1  C   UNL     1      -6.295   3.149  69.569  1.00  0.00    -0.029 C  
HETATM    2  C   UNL     1      -7.300   3.853  70.487  1.00  0.00    -0.041 C  
HETATM    3  N   UNL     1      -8.515   3.015  70.573  1.00  0.00    -0.055 NA 
HETATM    4  H1  UNL     1      -9.184   3.484  71.183  1.00  0.00     0.000 HD 
HETATM    5  H2  UNL     1      -8.313   2.060  70.870  1.00  0.00     0.000 HD 
ENDROOT
BRANCH   2   6
HETATM    6  C   UNL     1      -7.679   5.286  70.005  1.00  0.00    -0.076 C  
HETATM    7  H   UNL     1      -6.797   7.048  69.894  1.00  0.00     0.000 HD 
HETATM    8  O   UNL     1      -6.567   6.175  70.188  1.00  0.00    -0.041 OA 
BRANCH   6   9
HETATM    9  C   UNL     1      -8.912   5.845  70.692  1.00  0.00    -0.151 A  
HETATM   10  C   UNL     1     -10.113   6.054  69.988  1.00  0.00    -0.241 A  
HETATM   11  C   UNL     1     -11.210   6.609  70.639  1.00  0.00    -0.317 A  
HETATM   12  O   UNL     1     -12.390   6.845  69.991  1.00  0.00    -0.619 OA 
HETATM   13  C   UNL     1     -11.129   6.954  71.985  1.00  0.00    -0.245 A  
HETATM   14  H   UNL     1     -13.139   7.224  70.435  1.00  0.00     0.000 HD 
HETATM   15  C   UNL     1      -9.960   6.750  72.700  1.00  0.00    -0.186 A  
HETATM   16  O   UNL     1     -12.209   7.507  72.612  1.00  0.00    -0.541 OA 
HETATM   17  H   UNL     1     -12.154   7.743  73.530  1.00  0.00     0.000 HD 
HETATM   18  C   UNL     1      -8.851   6.198  72.053  1.00  0.00    -0.139 A  
ENDBRANCH   6   9
ENDBRANCH   2   6
TORSDOF 2
ENDMDL
MODEL      227
REMARK 921   NORMALIZED FREE ENERGY PREDICTED BY IDOCK:   -2.32 KCAL/MOL
REMARK 922        TOTAL FREE ENERGY PREDICTED BY IDOCK:   -2.81 KCAL/MOL
REMARK 923 INTER-LIGAND FREE ENERGY PREDICTED BY IDOCK:   -2.91 KCAL/MOL
REMARK 924 INTRA-LIGAND FREE ENERGY PREDICTED BY IDOCK:    0.10 KCAL/MOL
REMARK 927      BINDING AFFINITY PREDICTED BY RF-SCORE:    0.00 PKD
ROOT
HETATM    1  C   UNL     1     -11.880  15.214  67.636  1.00  0.00    -0.134 C  
HETATM    2  C   UNL     1     -11.753  14.489  68.979  1.00  0.00    -0.311 C  
HETATM    3  N   UNL     1     -12.785  15.021  69.894  1.00  0.00    -0.602 NA 
HETATM    4  H1  UNL     1     -12.700  14.538  70.788  1.00  0.00     0.000 HD 
HETATM    5  H2  UNL     1     -13.725  14.960  69.502  1.00  0.00     0.000 HD 
ENDROOT
BRANCH   2   6
HETATM    6  C   UNL     1     -10.343  14.635  69.631  1.00  0.00    -0.003 C  
HETATM    7  H   UNL     1      -9.605  15.334  71.321  1.00  0.00     0.000 HD 
HETATM    8  O   UNL     1     -10.463  15.245  70.925  1.00  0.00    -0.128 OA 
BRANCH   6   9
HETATM    9  C   UNL     1      -9.364  15.416  68.774  1.00  0.00    -0.209 A  
HETATM   10  C   UNL     1      -9.295  16.821  68.832  1.00  0.00    -0.233 A  
HETATM   11  C   UNL     1      -8.416  17.507  67.999  1.00  0.00    -0.242 A  
HETATM   12  O   UNL     1      -8.328  18.871  68.011  1.00  0.00    -0.278 OA 
HETATM   13  C   UNL     1      -7.600  16.813  67.113  1.00  0.00    -0.188 A  
HETATM   14  H   UNL     1      -7.729  19.340  67.443  1.00  0.00     0.000 HD 
HETATM   15  C   UNL     1      -7.644  15.429  67.043  1.00  0.00    -0.195 A  
HETATM   16  O   UNL     1      -6.747  17.496  66.294  1.00  0.00    -0.229 OA 
HETATM   17  H   UNL     1      -6.190  17.022  65.688  1.00  0.00     0.000 HD 
HETATM   18  C   UNL     1      -8.528  14.732  67.871  1.00  0.00    -0.156 A  
ENDBRANCH   6   9
ENDBRANCH   2   6
TORSDOF 2
ENDMDL
MODEL      228
REMARK 921   NORMALIZED FREE ENERGY PREDICTED BY IDOCK:   -2.30 KCAL/MOL
REMARK 922        TOTAL FREE ENERGY PREDICTED BY IDOCK:   -2.78 KCAL/MOL
REMARK 923 INTER-LIGAND FREE ENERGY PREDICTED BY IDOCK:   -3.64 KCAL/MOL
REMARK 924 INTRA-LIGAND FREE ENERGY PREDICTED BY IDOCK:    0.87 KCAL/MOL
REMARK 927      BINDING AFFINITY PREDICTED BY RF-SCORE:    0.00 PKD
ROOT
HETATM    1  C   UNL     1      -7.609  16.829  68.870  1.00  0.00    -0.239 C  
HETATM    2  C   UNL     1      -7.109  15.511  68.270  1.00  0.00    -0.114 C  
HETATM    3  N   UNL     1      -6.789  15.743  66.845  1.00  0.00    -0.242 NA 
HETATM    4  H1  UNL     1      -6.456  14.865  66.446  1.00  0.00     0.000 HD 
HETATM    5  H2  UNL     1      -6.132  16.511  66.710  1.00  0.00     0.000 HD 
ENDROOT
BRANCH   2   6
HETATM    6  C   UNL     1      -8.134  14.343  68.399  1.00  0.00    -0.143 C  
HETATM    7  H   UNL     1      -8.065  12.394  68.698  1.00  0.00     0.000 HD 
HETATM    8  O   UNL     1      -7.441  13.106  68.619  1.00  0.00    -0.112 OA 
BRANCH   6   9
HETATM    9  C   UNL     1      -9.057  14.219  67.201  1.00  0.00    -0.237 A  
HETATM   10  C   UNL     1      -9.577  12.974  66.800  1.00  0.00    -0.248 A  
HETATM   11  C   UNL     1     -10.385  12.891  65.670  1.00  0.00    -0.282 A  
HETATM   12  O   UNL     1     -10.897  11.700  65.236  1.00  0.00    -0.287 OA 
HETATM   13  C   UNL     1     -10.687  14.033  64.936  1.00  0.00    -0.418 A  
HETATM   14  H   UNL     1     -11.449  11.644  64.465  1.00  0.00     0.000 HD 
HETATM   15  C   UNL     1     -10.193  15.272  65.316  1.00  0.00    -0.397 A  
HETATM   16  O   UNL     1     -11.473  13.940  63.823  1.00  0.00    -0.594 OA 
HETATM   17  H   UNL     1     -11.679  14.720  63.322  1.00  0.00     0.000 HD 
HETATM   18  C   UNL     1      -9.376  15.364  66.446  1.00  0.00    -0.331 A  
ENDBRANCH   6   9
ENDBRANCH   2   6
TORSDOF 2
ENDMDL
MODEL      229
REMARK 921   NORMALIZED FREE ENERGY PREDICTED BY IDOCK:   -2.28 KCAL/MOL
REMARK 922        TOTAL FREE ENERGY PREDICTED BY IDOCK:   -2.75 KCAL/MOL
REMARK 923 INTER-LIGAND FREE ENERGY PREDICTED BY IDOCK:   -2.54 KCAL/MOL
REMARK 924 INTRA-LIGAND FREE ENERGY PREDICTED BY IDOCK:   -0.21 KCAL/MOL
REMARK 927      BINDING AFFINITY PREDICTED BY RF-SCORE:    0.00 PKD
ROOT
HETATM    1  C   UNL     1     -10.447  10.336  68.102  1.00  0.00    -0.224 C  
HETATM    2  C   UNL     1     -10.048   8.892  68.426  1.00  0.00    -0.189 C  
HETATM    3  N   UNL     1      -9.609   8.838  69.836  1.00  0.00    -0.173 NA 
HETATM    4  H1  UNL     1      -9.343   7.877  70.052  1.00  0.00     0.000 HD 
HETATM    5  H2  UNL     1     -10.309   9.206  70.480  1.00  0.00     0.000 HD 
ENDROOT
BRANCH   2   6
HETATM    6  C   UNL     1      -8.922   8.339  67.500  1.00  0.00    -0.134 C  
HETATM    7  H   UNL     1      -7.913   8.970  65.927  1.00  0.00     0.000 HD 
HETATM    8  O   UNL     1      -8.598   9.307  66.491  1.00  0.00    -0.127 OA 
BRANCH   6   9
HETATM    9  C   UNL     1      -9.274   7.010  66.855  1.00  0.00    -0.174 A  
HETATM   10  C   UNL     1      -8.385   6.362  65.978  1.00  0.00    -0.132 A  
HETATM   11  C   UNL     1      -8.758   5.167  65.370  1.00  0.00    -0.149 A  
HETATM   12  O   UNL     1      -7.932   4.512  64.500  1.00  0.00    -0.087 OA 
HETATM   13  C   UNL     1     -10.005   4.606  65.629  1.00  0.00    -0.211 A  
HETATM   14  H   UNL     1      -8.187   3.696  64.084  1.00  0.00     0.000 HD 
HETATM   15  C   UNL     1     -10.894   5.222  66.495  1.00  0.00    -0.196 A  
HETATM   16  O   UNL     1     -10.365   3.438  65.020  1.00  0.00    -0.401 OA 
HETATM   17  H   UNL     1     -11.216   3.055  65.196  1.00  0.00     0.000 HD 
HETATM   18  C   UNL     1     -10.529   6.426  67.105  1.00  0.00    -0.342 A  
ENDBRANCH   6   9
ENDBRANCH   2   6
TORSDOF 2
ENDMDL
MODEL      230
REMARK 921   NORMALIZED FREE ENERGY PREDICTED BY IDOCK:   -2.27 KCAL/MOL
REMARK 922        TOTAL FREE ENERGY PREDICTED BY IDOCK:   -2.75 KCAL/MOL
REMARK 923 INTER-LIGAND FREE ENERGY PREDICTED BY IDOCK:   -2.79 KCAL/MOL
REMARK 924 INTRA-LIGAND FREE ENERGY PREDICTED BY IDOCK:    0.04 KCAL/MOL
REMARK 927      BINDING AFFINITY PREDICTED BY RF-SCORE:    0.00 PKD
ROOT
HETATM    1  C   UNL     1      -7.869   7.977  66.379  1.00  0.00    -0.097 C  
HETATM    2  C   UNL     1      -6.706   8.955  66.577  1.00  0.00    -0.075 C  
HETATM    3  N   UNL     1      -6.575   9.233  68.022  1.00  0.00    -0.059 NA 
HETATM    4  H1  UNL     1      -5.801   9.884  68.154  1.00  0.00     0.000 HD 
HETATM    5  H2  UNL     1      -6.473   8.384  68.578  1.00  0.00     0.000 HD 
ENDROOT
BRANCH   2   6
HETATM    6  C   UNL     1      -6.883  10.292  65.794  1.00  0.00    -0.128 C  
HETATM    7  H   UNL     1      -6.093  12.099  65.837  1.00  0.00     0.000 HD 
HETATM    8  O   UNL     1      -5.986  11.285  66.313  1.00  0.00    -0.144 OA 
BRANCH   6   9
HETATM    9  C   UNL     1      -8.308  10.815  65.813  1.00  0.00    -0.158 A  
HETATM   10  C   UNL     1      -8.776  11.635  66.857  1.00  0.00    -0.185 A  
HETATM   11  C   UNL     1     -10.101  12.059  66.864  1.00  0.00    -0.205 A  
HETATM   12  O   UNL     1     -10.602  12.842  67.867  1.00  0.00    -0.212 OA 
HETATM   13  C   UNL     1     -10.966  11.683  65.842  1.00  0.00    -0.280 A  
HETATM   14  H   UNL     1     -11.507  13.132  67.872  1.00  0.00     0.000 HD 
HETATM   15  C   UNL     1     -10.526  10.883  64.799  1.00  0.00    -0.373 A  
HETATM   16  O   UNL     1     -12.267  12.097  65.863  1.00  0.00    -0.604 OA 
HETATM   17  H   UNL     1     -12.857  11.840  65.165  1.00  0.00     0.000 HD 
HETATM   18  C   UNL     1      -9.198  10.447  64.786  1.00  0.00    -0.273 A  
ENDBRANCH   6   9
ENDBRANCH   2   6
TORSDOF 2
ENDMDL
MODEL      231
REMARK 921   NORMALIZED FREE ENERGY PREDICTED BY IDOCK:   -2.27 KCAL/MOL
REMARK 922        TOTAL FREE ENERGY PREDICTED BY IDOCK:   -2.74 KCAL/MOL
REMARK 923 INTER-LIGAND FREE ENERGY PREDICTED BY IDOCK:   -2.90 KCAL/MOL
REMARK 924 INTRA-LIGAND FREE ENERGY PREDICTED BY IDOCK:    0.15 KCAL/MOL
REMARK 927      BINDING AFFINITY PREDICTED BY RF-SCORE:    0.00 PKD
ROOT
HETATM    1  C   UNL     1      -9.192   8.280  69.348  1.00  0.00    -0.155 C  
HETATM    2  C   UNL     1      -9.701   7.589  70.617  1.00  0.00    -0.175 C  
HETATM    3  N   UNL     1      -8.536   7.056  71.354  1.00  0.00    -0.114 NA 
HETATM    4  H1  UNL     1      -8.875   6.596  72.199  1.00  0.00     0.000 HD 
HETATM    5  H2  UNL     1      -7.835   7.771  71.550  1.00  0.00     0.000 HD 
ENDROOT
BRANCH   2   6
HETATM    6  C   UNL     1     -10.716   6.441  70.331  1.00  0.00    -0.262 C  
HETATM    7  H   UNL     1     -11.418   4.867  71.292  1.00  0.00     0.000 HD 
HETATM    8  O   UNL     1     -10.799   5.566  71.466  1.00  0.00    -0.244 OA 
BRANCH   6   9
HETATM    9  C   UNL     1     -10.386   5.644  69.082  1.00  0.00    -0.328 A  
HETATM   10  C   UNL     1      -9.659   4.441  69.148  1.00  0.00    -0.252 A  
HETATM   11  C   UNL     1      -9.336   3.761  67.979  1.00  0.00    -0.179 A  
HETATM   12  O   UNL     1      -8.618   2.597  67.996  1.00  0.00    -0.079 OA 
HETATM   13  C   UNL     1      -9.733   4.259  66.742  1.00  0.00    -0.219 A  
HETATM   14  H   UNL     1      -8.397   2.132  67.198  1.00  0.00     0.000 HD 
HETATM   15  C   UNL     1     -10.456   5.438  66.652  1.00  0.00    -0.356 A  
HETATM   16  O   UNL     1      -9.403   3.588  65.599  1.00  0.00    -0.153 OA 
HETATM   17  H   UNL     1      -9.673   3.929  64.755  1.00  0.00     0.000 HD 
HETATM   18  C   UNL     1     -10.780   6.131  67.821  1.00  0.00    -0.382 A  
ENDBRANCH   6   9
ENDBRANCH   2   6
TORSDOF 2
ENDMDL
MODEL      232
REMARK 921   NORMALIZED FREE ENERGY PREDICTED BY IDOCK:   -2.26 KCAL/MOL
REMARK 922        TOTAL FREE ENERGY PREDICTED BY IDOCK:   -2.73 KCAL/MOL
REMARK 923 INTER-LIGAND FREE ENERGY PREDICTED BY IDOCK:   -2.49 KCAL/MOL
REMARK 924 INTRA-LIGAND FREE ENERGY PREDICTED BY IDOCK:   -0.24 KCAL/MOL
REMARK 927      BINDING AFFINITY PREDICTED BY RF-SCORE:    0.00 PKD
ROOT
HETATM    1  C   UNL     1      -9.636   3.579  70.841  1.00  0.00    -0.242 C  
HETATM    2  C   UNL     1      -8.453   3.835  69.902  1.00  0.00    -0.056 C  
HETATM    3  N   UNL     1      -7.409   2.828  70.186  1.00  0.00    -0.040 NA 
HETATM    4  H1  UNL     1      -6.622   2.998  69.560  1.00  0.00     0.000 HD 
HETATM    5  H2  UNL     1      -7.759   1.871  70.125  1.00  0.00     0.000 HD 
ENDROOT
BRANCH   2   6
HETATM    6  C   UNL     1      -7.855   5.269  70.036  1.00  0.00    -0.080 C  
HETATM    7  H   UNL     1      -7.140   6.400  71.486  1.00  0.00     0.000 HD 
HETATM    8  O   UNL     1      -7.505   5.527  71.404  1.00  0.00    -0.091 OA 
BRANCH   6   9
HETATM    9  C   UNL     1      -8.779   6.356  69.519  1.00  0.00    -0.133 A  
HETATM   10  C   UNL     1      -9.413   6.247  68.267  1.00  0.00    -0.117 A  
HETATM   11  C   UNL     1     -10.218   7.284  67.806  1.00  0.00    -0.195 A  
HETATM   12  O   UNL     1     -10.839   7.227  66.589  1.00  0.00    -0.500 OA 
HETATM   13  C   UNL     1     -10.406   8.426  68.577  1.00  0.00    -0.200 A  
HETATM   14  H   UNL     1     -11.389   7.935  66.273  1.00  0.00     0.000 HD 
HETATM   15  C   UNL     1      -9.799   8.552  69.816  1.00  0.00    -0.186 A  
HETATM   16  O   UNL     1     -11.191   9.441  68.110  1.00  0.00    -0.507 OA 
HETATM   17  H   UNL     1     -11.319  10.221  68.637  1.00  0.00     0.000 HD 
HETATM   18  C   UNL     1      -8.983   7.519  70.286  1.00  0.00    -0.147 A  
ENDBRANCH   6   9
ENDBRANCH   2   6
TORSDOF 2
ENDMDL
MODEL      233
REMARK 921   NORMALIZED FREE ENERGY PREDICTED BY IDOCK:   -2.24 KCAL/MOL
REMARK 922        TOTAL FREE ENERGY PREDICTED BY IDOCK:   -2.71 KCAL/MOL
REMARK 923 INTER-LIGAND FREE ENERGY PREDICTED BY IDOCK:   -2.51 KCAL/MOL
REMARK 924 INTRA-LIGAND FREE ENERGY PREDICTED BY IDOCK:   -0.21 KCAL/MOL
REMARK 927      BINDING AFFINITY PREDICTED BY RF-SCORE:    0.00 PKD
ROOT
HETATM    1  C   UNL     1      -9.342   2.778  71.017  1.00  0.00    -0.217 C  
HETATM    2  C   UNL     1      -7.940   3.079  70.479  1.00  0.00    -0.042 C  
HETATM    3  N   UNL     1      -6.952   2.651  71.492  1.00  0.00    -0.031 NA 
HETATM    4  H1  UNL     1      -6.019   2.852  71.134  1.00  0.00     0.000 HD 
HETATM    5  H2  UNL     1      -7.067   1.674  71.764  1.00  0.00     0.000 HD 
ENDROOT
BRANCH   2   6
HETATM    6  C   UNL     1      -7.721   4.584  70.131  1.00  0.00    -0.053 C  
HETATM    7  H   UNL     1      -7.539   6.279  71.123  1.00  0.00     0.000 HD 
HETATM    8  O   UNL     1      -7.672   5.363  71.335  1.00  0.00    -0.101 OA 
BRANCH   6   9
HETATM    9  C   UNL     1      -8.772   5.142  69.189  1.00  0.00    -0.103 A  
HETATM   10  C   UNL     1      -9.574   6.240  69.552  1.00  0.00    -0.163 A  
HETATM   11  C   UNL     1     -10.559   6.696  68.682  1.00  0.00    -0.234 A  
HETATM   12  O   UNL     1     -11.371   7.749  69.001  1.00  0.00    -0.339 OA 
HETATM   13  C   UNL     1     -10.752   6.078  67.451  1.00  0.00    -0.310 A  
HETATM   14  H   UNL     1     -12.044   8.061  68.406  1.00  0.00     0.000 HD 
HETATM   15  C   UNL     1      -9.969   5.000  67.069  1.00  0.00    -0.231 A  
HETATM   16  O   UNL     1     -11.728   6.528  66.608  1.00  0.00    -0.549 OA 
HETATM   17  H   UNL     1     -11.860   6.106  65.768  1.00  0.00     0.000 HD 
HETATM   18  C   UNL     1      -8.982   4.530  67.939  1.00  0.00    -0.133 A  
ENDBRANCH   6   9
ENDBRANCH   2   6
TORSDOF 2
ENDMDL
MODEL      234
REMARK 921   NORMALIZED FREE ENERGY PREDICTED BY IDOCK:   -2.24 KCAL/MOL
REMARK 922        TOTAL FREE ENERGY PREDICTED BY IDOCK:   -2.71 KCAL/MOL
REMARK 923 INTER-LIGAND FREE ENERGY PREDICTED BY IDOCK:   -2.59 KCAL/MOL
REMARK 924 INTRA-LIGAND FREE ENERGY PREDICTED BY IDOCK:   -0.12 KCAL/MOL
REMARK 927      BINDING AFFINITY PREDICTED BY RF-SCORE:    0.00 PKD
ROOT
HETATM    1  C   UNL     1     -10.660  13.001  68.094  1.00  0.00    -0.257 C  
HETATM    2  C   UNL     1      -9.408  12.679  67.271  1.00  0.00    -0.195 C  
HETATM    3  N   UNL     1      -9.294  13.679  66.189  1.00  0.00    -0.484 NA 
HETATM    4  H1  UNL     1      -8.461  13.464  65.642  1.00  0.00     0.000 HD 
HETATM    5  H2  UNL     1      -9.298  14.638  66.538  1.00  0.00     0.000 HD 
ENDROOT
BRANCH   2   6
HETATM    6  C   UNL     1      -9.420  11.242  66.664  1.00  0.00    -0.186 C  
HETATM    7  H   UNL     1     -10.710  10.092  65.713  1.00  0.00     0.000 HD 
HETATM    8  O   UNL     1     -10.703  10.967  66.083  1.00  0.00    -0.235 OA 
BRANCH   6   9
HETATM    9  C   UNL     1      -9.058  10.163  67.668  1.00  0.00    -0.144 A  
HETATM   10  C   UNL     1      -8.384  10.469  68.865  1.00  0.00    -0.147 A  
HETATM   11  C   UNL     1      -8.029   9.449  69.741  1.00  0.00    -0.119 A  
HETATM   12  O   UNL     1      -7.359   9.700  70.907  1.00  0.00    -0.288 OA 
HETATM   13  C   UNL     1      -8.342   8.126  69.445  1.00  0.00    -0.123 A  
HETATM   14  H   UNL     1      -7.116   9.003  71.505  1.00  0.00     0.000 HD 
HETATM   15  C   UNL     1      -9.012   7.801  68.277  1.00  0.00    -0.131 A  
HETATM   16  O   UNL     1      -7.981   7.131  70.308  1.00  0.00    -0.112 OA 
HETATM   17  H   UNL     1      -8.194   6.228  70.105  1.00  0.00     0.000 HD 
HETATM   18  C   UNL     1      -9.368   8.819  67.387  1.00  0.00    -0.166 A  
ENDBRANCH   6   9
ENDBRANCH   2   6
TORSDOF 2
ENDMDL
MODEL      235
REMARK 921   NORMALIZED FREE ENERGY PREDICTED BY IDOCK:   -2.15 KCAL/MOL
REMARK 922        TOTAL FREE ENERGY PREDICTED BY IDOCK:   -2.61 KCAL/MOL
REMARK 923 INTER-LIGAND FREE ENERGY PREDICTED BY IDOCK:   -2.51 KCAL/MOL
REMARK 924 INTRA-LIGAND FREE ENERGY PREDICTED BY IDOCK:   -0.10 KCAL/MOL
REMARK 927      BINDING AFFINITY PREDICTED BY RF-SCORE:    0.00 PKD
ROOT
HETATM    1  C   UNL     1      -7.283   8.769  65.317  1.00  0.00    -0.084 C  
HETATM    2  C   UNL     1      -8.177   7.529  65.418  1.00  0.00    -0.135 C  
HETATM    3  N   UNL     1      -8.389   6.997  64.056  1.00  0.00    -0.347 NA 
HETATM    4  H1  UNL     1      -8.985   6.172  64.124  1.00  0.00     0.000 HD 
HETATM    5  H2  UNL     1      -7.514   6.811  63.566  1.00  0.00     0.000 HD 
ENDROOT
BRANCH   2   6
HETATM    6  C   UNL     1      -9.553   7.812  66.096  1.00  0.00    -0.034 C  
HETATM    7  H   UNL     1     -10.779   9.347  66.279  1.00  0.00     0.000 HD 
HETATM    8  O   UNL     1      -9.941   9.175  65.867  1.00  0.00    -0.295 OA 
BRANCH   6   9
HETATM    9  C   UNL     1      -9.565   7.509  67.583  1.00  0.00    -0.171 A  
HETATM   10  C   UNL     1     -10.769   7.431  68.307  1.00  0.00    -0.151 A  
HETATM   11  C   UNL     1     -10.739   7.196  69.678  1.00  0.00    -0.239 A  
HETATM   12  O   UNL     1     -11.884   7.129  70.423  1.00  0.00    -0.480 OA 
HETATM   13  C   UNL     1      -9.526   7.030  70.337  1.00  0.00    -0.162 A  
HETATM   14  H   UNL     1     -11.864   6.968  71.359  1.00  0.00     0.000 HD 
HETATM   15  C   UNL     1      -8.327   7.093  69.644  1.00  0.00    -0.133 A  
HETATM   16  O   UNL     1      -9.508   6.807  71.685  1.00  0.00    -0.156 OA 
HETATM   17  H   UNL     1      -8.679   6.694  72.135  1.00  0.00     0.000 HD 
HETATM   18  C   UNL     1      -8.347   7.336  68.267  1.00  0.00    -0.125 A  
ENDBRANCH   6   9
ENDBRANCH   2   6
TORSDOF 2
ENDMDL
MODEL      236
REMARK 921   NORMALIZED FREE ENERGY PREDICTED BY IDOCK:   -2.14 KCAL/MOL
REMARK 922        TOTAL FREE ENERGY PREDICTED BY IDOCK:   -2.60 KCAL/MOL
REMARK 923 INTER-LIGAND FREE ENERGY PREDICTED BY IDOCK:   -2.42 KCAL/MOL
REMARK 924 INTRA-LIGAND FREE ENERGY PREDICTED BY IDOCK:   -0.19 KCAL/MOL
REMARK 927      BINDING AFFINITY PREDICTED BY RF-SCORE:    0.00 PKD
ROOT
HETATM    1  C   UNL     1      -7.616   4.905  66.683  1.00  0.00    -0.088 C  
HETATM    2  C   UNL     1      -8.028   6.203  67.384  1.00  0.00    -0.105 C  
HETATM    3  N   UNL     1      -7.382   7.333  66.683  1.00  0.00    -0.079 NA 
HETATM    4  H1  UNL     1      -7.657   8.198  67.150  1.00  0.00     0.000 HD 
HETATM    5  H2  UNL     1      -7.588   7.344  65.684  1.00  0.00     0.000 HD 
ENDROOT
BRANCH   2   6
HETATM    6  C   UNL     1      -7.652   6.236  68.897  1.00  0.00    -0.092 C  
HETATM    7  H   UNL     1      -6.680   5.077  70.164  1.00  0.00     0.000 HD 
HETATM    8  O   UNL     1      -6.909   5.057  69.243  1.00  0.00    -0.050 OA 
BRANCH   6   9
HETATM    9  C   UNL     1      -8.854   6.383  69.812  1.00  0.00    -0.142 A  
HETATM   10  C   UNL     1      -9.021   7.517  70.628  1.00  0.00    -0.154 A  
HETATM   11  C   UNL     1     -10.113   7.598  71.487  1.00  0.00    -0.178 A  
HETATM   12  O   UNL     1     -10.305   8.673  72.309  1.00  0.00    -0.327 OA 
HETATM   13  C   UNL     1     -11.043   6.566  71.541  1.00  0.00    -0.265 A  
HETATM   14  H   UNL     1     -11.050   8.729  72.896  1.00  0.00     0.000 HD 
HETATM   15  C   UNL     1     -10.904   5.442  70.741  1.00  0.00    -0.190 A  
HETATM   16  O   UNL     1     -12.106   6.651  72.395  1.00  0.00    -0.479 OA 
HETATM   17  H   UNL     1     -12.742   5.946  72.432  1.00  0.00     0.000 HD 
HETATM   18  C   UNL     1      -9.808   5.350  69.879  1.00  0.00    -0.268 A  
ENDBRANCH   6   9
ENDBRANCH   2   6
TORSDOF 2
ENDMDL
MODEL      237
REMARK 921   NORMALIZED FREE ENERGY PREDICTED BY IDOCK:   -2.13 KCAL/MOL
REMARK 922        TOTAL FREE ENERGY PREDICTED BY IDOCK:   -2.59 KCAL/MOL
REMARK 923 INTER-LIGAND FREE ENERGY PREDICTED BY IDOCK:   -2.48 KCAL/MOL
REMARK 924 INTRA-LIGAND FREE ENERGY PREDICTED BY IDOCK:   -0.11 KCAL/MOL
REMARK 927      BINDING AFFINITY PREDICTED BY RF-SCORE:    0.00 PKD
ROOT
HETATM    1  C   UNL     1      -9.070  16.010  66.477  1.00  0.00    -0.319 C  
HETATM    2  C   UNL     1      -8.789  14.721  67.256  1.00  0.00    -0.204 C  
HETATM    3  N   UNL     1      -7.329  14.610  67.458  1.00  0.00    -0.189 NA 
HETATM    4  H1  UNL     1      -7.142  13.752  67.977  1.00  0.00     0.000 HD 
HETATM    5  H2  UNL     1      -6.931  15.436  67.907  1.00  0.00     0.000 HD 
ENDROOT
BRANCH   2   6
HETATM    6  C   UNL     1      -9.323  13.439  66.546  1.00  0.00    -0.215 C  
HETATM    7  H   UNL     1     -11.083  12.685  66.071  1.00  0.00     0.000 HD 
HETATM    8  O   UNL     1     -10.757  13.465  66.503  1.00  0.00    -0.283 OA 
BRANCH   6   9
HETATM    9  C   UNL     1      -8.843  12.152  67.190  1.00  0.00    -0.191 A  
HETATM   10  C   UNL     1      -9.335  11.726  68.438  1.00  0.00    -0.185 A  
HETATM   11  C   UNL     1      -8.839  10.563  69.019  1.00  0.00    -0.169 A  
HETATM   12  O   UNL     1      -9.277  10.122  70.237  1.00  0.00    -0.366 OA 
HETATM   13  C   UNL     1      -7.863   9.814  68.371  1.00  0.00    -0.081 A  
HETATM   14  H   UNL     1      -8.939   9.329  70.634  1.00  0.00     0.000 HD 
HETATM   15  C   UNL     1      -7.368  10.209  67.137  1.00  0.00    -0.091 A  
HETATM   16  O   UNL     1      -7.376   8.679  68.954  1.00  0.00    -0.078 OA 
HETATM   17  H   UNL     1      -6.709   8.168  68.512  1.00  0.00     0.000 HD 
HETATM   18  C   UNL     1      -7.856  11.379  66.549  1.00  0.00    -0.105 A  
ENDBRANCH   6   9
ENDBRANCH   2   6
TORSDOF 2
ENDMDL
MODEL      238
REMARK 921   NORMALIZED FREE ENERGY PREDICTED BY IDOCK:   -2.12 KCAL/MOL
REMARK 922        TOTAL FREE ENERGY PREDICTED BY IDOCK:   -2.58 KCAL/MOL
REMARK 923 INTER-LIGAND FREE ENERGY PREDICTED BY IDOCK:   -2.36 KCAL/MOL
REMARK 924 INTRA-LIGAND FREE ENERGY PREDICTED BY IDOCK:   -0.23 KCAL/MOL
REMARK 927      BINDING AFFINITY PREDICTED BY RF-SCORE:    0.00 PKD
ROOT
HETATM    1  C   UNL     1      -9.351   3.198  67.930  1.00  0.00    -0.252 C  
HETATM    2  C   UNL     1      -8.185   3.397  68.903  1.00  0.00    -0.060 C  
HETATM    3  N   UNL     1      -7.465   2.113  69.035  1.00  0.00    -0.043 NA 
HETATM    4  H1  UNL     1      -6.689   2.246  69.682  1.00  0.00     0.000 HD 
HETATM    5  H2  UNL     1      -7.166   1.737  68.135  1.00  0.00     0.000 HD 
ENDROOT
BRANCH   2   6
HETATM    6  C   UNL     1      -8.632   3.899  70.311  1.00  0.00    -0.068 C  
HETATM    7  H   UNL     1      -9.767   3.235  71.782  1.00  0.00     0.000 HD 
HETATM    8  O   UNL     1      -9.495   2.930  70.925  1.00  0.00    -0.140 OA 
BRANCH   6   9
HETATM    9  C   UNL     1      -9.312   5.256  70.277  1.00  0.00    -0.207 A  
HETATM   10  C   UNL     1      -8.583   6.436  70.039  1.00  0.00    -0.135 A  
HETATM   11  C   UNL     1      -9.231   7.667  70.060  1.00  0.00    -0.151 A  
HETATM   12  O   UNL     1      -8.559   8.839  69.851  1.00  0.00    -0.124 OA 
HETATM   13  C   UNL     1     -10.598   7.738  70.309  1.00  0.00    -0.231 A  
HETATM   14  H   UNL     1      -9.002   9.680  69.865  1.00  0.00     0.000 HD 
HETATM   15  C   UNL     1     -11.338   6.589  70.537  1.00  0.00    -0.426 A  
HETATM   16  O   UNL     1     -11.223   8.952  70.335  1.00  0.00    -0.252 OA 
HETATM   17  H   UNL     1     -12.156   9.001  70.505  1.00  0.00     0.000 HD 
HETATM   18  C   UNL     1     -10.694   5.348  70.524  1.00  0.00    -0.266 A  
ENDBRANCH   6   9
ENDBRANCH   2   6
TORSDOF 2
ENDMDL
MODEL      239
REMARK 921   NORMALIZED FREE ENERGY PREDICTED BY IDOCK:   -2.12 KCAL/MOL
REMARK 922        TOTAL FREE ENERGY PREDICTED BY IDOCK:   -2.58 KCAL/MOL
REMARK 923 INTER-LIGAND FREE ENERGY PREDICTED BY IDOCK:   -2.38 KCAL/MOL
REMARK 924 INTRA-LIGAND FREE ENERGY PREDICTED BY IDOCK:   -0.19 KCAL/MOL
REMARK 927      BINDING AFFINITY PREDICTED BY RF-SCORE:    0.00 PKD
ROOT
HETATM    1  C   UNL     1      -8.122   6.793  64.516  1.00  0.00    -0.070 C  
HETATM    2  C   UNL     1      -8.015   7.872  65.598  1.00  0.00    -0.116 C  
HETATM    3  N   UNL     1      -8.196   7.228  66.916  1.00  0.00    -0.115 NA 
HETATM    4  H1  UNL     1      -8.125   7.947  67.636  1.00  0.00     0.000 HD 
HETATM    5  H2  UNL     1      -7.547   6.455  67.067  1.00  0.00     0.000 HD 
ENDROOT
BRANCH   2   6
HETATM    6  C   UNL     1      -9.052   9.025  65.427  1.00  0.00    -0.193 C  
HETATM    7  H   UNL     1      -9.752  10.122  63.944  1.00  0.00     0.000 HD 
HETATM    8  O   UNL     1      -9.121   9.421  64.049  1.00  0.00    -0.202 OA 
BRANCH   6   9
HETATM    9  C   UNL     1      -8.761  10.230  66.302  1.00  0.00    -0.157 A  
HETATM   10  C   UNL     1      -7.595  10.999  66.130  1.00  0.00    -0.084 A  
HETATM   11  C   UNL     1      -7.339  12.070  66.980  1.00  0.00    -0.097 A  
HETATM   12  O   UNL     1      -6.211  12.833  66.858  1.00  0.00    -0.490 OA 
HETATM   13  C   UNL     1      -8.232  12.390  67.998  1.00  0.00    -0.168 A  
HETATM   14  H   UNL     1      -6.036  13.564  67.439  1.00  0.00     0.000 HD 
HETATM   15  C   UNL     1      -9.391  11.652  68.182  1.00  0.00    -0.188 A  
HETATM   16  O   UNL     1      -7.966  13.438  68.832  1.00  0.00    -0.321 OA 
HETATM   17  H   UNL     1      -8.576  13.656  69.527  1.00  0.00     0.000 HD 
HETATM   18  C   UNL     1      -9.653  10.570  67.336  1.00  0.00    -0.181 A  
ENDBRANCH   6   9
ENDBRANCH   2   6
TORSDOF 2
ENDMDL
MODEL      240
REMARK 921   NORMALIZED FREE ENERGY PREDICTED BY IDOCK:   -2.11 KCAL/MOL
REMARK 922        TOTAL FREE ENERGY PREDICTED BY IDOCK:   -2.57 KCAL/MOL
REMARK 923 INTER-LIGAND FREE ENERGY PREDICTED BY IDOCK:   -2.33 KCAL/MOL
REMARK 924 INTRA-LIGAND FREE ENERGY PREDICTED BY IDOCK:   -0.24 KCAL/MOL
REMARK 927      BINDING AFFINITY PREDICTED BY RF-SCORE:    0.00 PKD
ROOT
HETATM    1  C   UNL     1      -7.245   8.922  71.627  1.00  0.00    -0.057 C  
HETATM    2  C   UNL     1      -7.725   8.096  70.430  1.00  0.00    -0.085 C  
HETATM    3  N   UNL     1      -7.303   8.784  69.192  1.00  0.00    -0.071 NA 
HETATM    4  H1  UNL     1      -7.623   8.233  68.395  1.00  0.00     0.000 HD 
HETATM    5  H2  UNL     1      -6.299   8.966  69.167  1.00  0.00     0.000 HD 
ENDROOT
BRANCH   2   6
HETATM    6  C   UNL     1      -9.268   7.873  70.411  1.00  0.00    -0.158 C  
HETATM    7  H   UNL     1     -10.876   8.893  70.926  1.00  0.00     0.000 HD 
HETATM    8  O   UNL     1      -9.937   9.029  70.938  1.00  0.00    -0.215 OA 
BRANCH   6   9
HETATM    9  C   UNL     1      -9.705   6.629  71.164  1.00  0.00    -0.184 A  
HETATM   10  C   UNL     1     -10.960   6.556  71.796  1.00  0.00    -0.287 A  
HETATM   11  C   UNL     1     -11.309   5.417  72.515  1.00  0.00    -0.225 A  
HETATM   12  O   UNL     1     -12.511   5.311  73.159  1.00  0.00    -0.384 OA 
HETATM   13  C   UNL     1     -10.427   4.346  72.608  1.00  0.00    -0.182 A  
HETATM   14  H   UNL     1     -12.749   4.533  73.650  1.00  0.00     0.000 HD 
HETATM   15  C   UNL     1      -9.189   4.391  71.986  1.00  0.00    -0.169 A  
HETATM   16  O   UNL     1     -10.775   3.236  73.324  1.00  0.00    -0.171 OA 
HETATM   17  H   UNL     1     -10.173   2.505  73.387  1.00  0.00     0.000 HD 
HETATM   18  C   UNL     1      -8.827   5.534  71.267  1.00  0.00    -0.142 A  
ENDBRANCH   6   9
ENDBRANCH   2   6
TORSDOF 2
ENDMDL
MODEL      241
REMARK 921   NORMALIZED FREE ENERGY PREDICTED BY IDOCK:   -2.11 KCAL/MOL
REMARK 922        TOTAL FREE ENERGY PREDICTED BY IDOCK:   -2.57 KCAL/MOL
REMARK 923 INTER-LIGAND FREE ENERGY PREDICTED BY IDOCK:   -2.41 KCAL/MOL
REMARK 924 INTRA-LIGAND FREE ENERGY PREDICTED BY IDOCK:   -0.15 KCAL/MOL
REMARK 927      BINDING AFFINITY PREDICTED BY RF-SCORE:    0.00 PKD
ROOT
HETATM    1  C   UNL     1      -7.295   8.771  65.356  1.00  0.00    -0.085 C  
HETATM    2  C   UNL     1      -8.154   7.502  65.364  1.00  0.00    -0.133 C  
HETATM    3  N   UNL     1      -8.361   7.073  63.965  1.00  0.00    -0.347 NA 
HETATM    4  H1  UNL     1      -8.934   6.229  63.971  1.00  0.00     0.000 HD 
HETATM    5  H2  UNL     1      -7.485   6.951  63.458  1.00  0.00     0.000 HD 
ENDROOT
BRANCH   2   6
HETATM    6  C   UNL     1      -9.532   7.693  66.068  1.00  0.00     0.036 C  
HETATM    7  H   UNL     1     -10.697   9.206  66.567  1.00  0.00     0.000 HD 
HETATM    8  O   UNL     1      -9.857   9.090  66.139  1.00  0.00    -0.271 OA 
BRANCH   6   9
HETATM    9  C   UNL     1      -9.591   7.073  67.452  1.00  0.00    -0.164 A  
HETATM   10  C   UNL     1      -8.432   6.908  68.233  1.00  0.00    -0.125 A  
HETATM   11  C   UNL     1      -8.516   6.294  69.479  1.00  0.00    -0.129 A  
HETATM   12  O   UNL     1      -7.413   6.099  70.262  1.00  0.00    -0.085 OA 
HETATM   13  C   UNL     1      -9.742   5.848  69.961  1.00  0.00    -0.167 A  
HETATM   14  H   UNL     1      -7.470   5.680  71.113  1.00  0.00     0.000 HD 
HETATM   15  C   UNL     1     -10.898   6.007  69.214  1.00  0.00    -0.428 A  
HETATM   16  O   UNL     1      -9.812   5.239  71.182  1.00  0.00    -0.172 OA 
HETATM   17  H   UNL     1     -10.649   4.934  71.511  1.00  0.00     0.000 HD 
HETATM   18  C   UNL     1     -10.822   6.617  67.959  1.00  0.00    -0.345 A  
ENDBRANCH   6   9
ENDBRANCH   2   6
TORSDOF 2
ENDMDL
MODEL      242
REMARK 921   NORMALIZED FREE ENERGY PREDICTED BY IDOCK:   -2.10 KCAL/MOL
REMARK 922        TOTAL FREE ENERGY PREDICTED BY IDOCK:   -2.56 KCAL/MOL
REMARK 923 INTER-LIGAND FREE ENERGY PREDICTED BY IDOCK:   -2.98 KCAL/MOL
REMARK 924 INTRA-LIGAND FREE ENERGY PREDICTED BY IDOCK:    0.42 KCAL/MOL
REMARK 927      BINDING AFFINITY PREDICTED BY RF-SCORE:    0.00 PKD
ROOT
HETATM    1  C   UNL     1      -8.543  16.002  66.565  1.00  0.00    -0.344 C  
HETATM    2  C   UNL     1     -10.074  15.982  66.597  1.00  0.00    -0.279 C  
HETATM    3  N   UNL     1     -10.532  16.980  67.586  1.00  0.00    -0.336 NA 
HETATM    4  H1  UNL     1     -11.551  16.966  67.607  1.00  0.00     0.000 HD 
HETATM    5  H2  UNL     1     -10.154  17.911  67.408  1.00  0.00     0.000 HD 
ENDROOT
BRANCH   2   6
HETATM    6  C   UNL     1     -10.668  14.582  66.944  1.00  0.00    -0.288 C  
HETATM    7  H   UNL     1     -11.950  13.847  68.251  1.00  0.00     0.000 HD 
HETATM    8  O   UNL     1     -11.588  14.699  68.040  1.00  0.00    -0.311 OA 
BRANCH   6   9
HETATM    9  C   UNL     1      -9.609  13.542  67.261  1.00  0.00    -0.235 A  
HETATM   10  C   UNL     1      -8.700  13.718  68.321  1.00  0.00    -0.179 A  
HETATM   11  C   UNL     1      -7.714  12.765  68.554  1.00  0.00    -0.113 A  
HETATM   12  O   UNL     1      -6.801  12.904  69.563  1.00  0.00    -0.300 OA 
HETATM   13  C   UNL     1      -7.623  11.635  67.748  1.00  0.00    -0.121 A  
HETATM   14  H   UNL     1      -6.127  12.253  69.722  1.00  0.00     0.000 HD 
HETATM   15  C   UNL     1      -8.511  11.436  66.703  1.00  0.00    -0.171 A  
HETATM   16  O   UNL     1      -6.645  10.710  67.980  1.00  0.00    -0.062 OA 
HETATM   17  H   UNL     1      -6.583   9.939  67.430  1.00  0.00     0.000 HD 
HETATM   18  C   UNL     1      -9.502  12.391  66.458  1.00  0.00    -0.242 A  
ENDBRANCH   6   9
ENDBRANCH   2   6
TORSDOF 2
ENDMDL
MODEL      243
REMARK 921   NORMALIZED FREE ENERGY PREDICTED BY IDOCK:   -2.10 KCAL/MOL
REMARK 922        TOTAL FREE ENERGY PREDICTED BY IDOCK:   -2.55 KCAL/MOL
REMARK 923 INTER-LIGAND FREE ENERGY PREDICTED BY IDOCK:   -2.45 KCAL/MOL
REMARK 924 INTRA-LIGAND FREE ENERGY PREDICTED BY IDOCK:   -0.11 KCAL/MOL
REMARK 927      BINDING AFFINITY PREDICTED BY RF-SCORE:    0.00 PKD
ROOT
HETATM    1  C   UNL     1      -8.654  11.402  68.249  1.00  0.00    -0.156 C  
HETATM    2  C   UNL     1      -8.806   9.901  68.515  1.00  0.00    -0.122 C  
HETATM    3  N   UNL     1      -8.263   9.611  69.859  1.00  0.00    -0.156 NA 
HETATM    4  H1  UNL     1      -8.365   8.611  70.036  1.00  0.00     0.000 HD 
HETATM    5  H2  UNL     1      -8.689  10.184  70.587  1.00  0.00     0.000 HD 
ENDROOT
BRANCH   2   6
HETATM    6  C   UNL     1      -8.094   9.008  67.453  1.00  0.00    -0.108 C  
HETATM    7  H   UNL     1      -7.780   9.061  65.506  1.00  0.00     0.000 HD 
HETATM    8  O   UNL     1      -8.214   9.605  66.152  1.00  0.00    -0.114 OA 
BRANCH   6   9
HETATM    9  C   UNL     1      -8.611   7.582  67.422  1.00  0.00    -0.118 A  
HETATM   10  C   UNL     1      -9.716   7.218  66.630  1.00  0.00    -0.249 A  
HETATM   11  C   UNL     1     -10.190   5.910  66.662  1.00  0.00    -0.205 A  
HETATM   12  O   UNL     1     -11.271   5.517  65.921  1.00  0.00    -0.743 OA 
HETATM   13  C   UNL     1      -9.576   4.957  67.468  1.00  0.00    -0.151 A  
HETATM   14  H   UNL     1     -11.595   4.624  65.942  1.00  0.00     0.000 HD 
HETATM   15  C   UNL     1      -8.481   5.291  68.250  1.00  0.00    -0.096 A  
HETATM   16  O   UNL     1     -10.055   3.679  67.498  1.00  0.00    -0.119 OA 
HETATM   17  H   UNL     1      -9.635   3.029  68.048  1.00  0.00     0.000 HD 
HETATM   18  C   UNL     1      -8.001   6.603  68.230  1.00  0.00    -0.111 A  
ENDBRANCH   6   9
ENDBRANCH   2   6
TORSDOF 2
ENDMDL
MODEL      244
REMARK 921   NORMALIZED FREE ENERGY PREDICTED BY IDOCK:   -2.09 KCAL/MOL
REMARK 922        TOTAL FREE ENERGY PREDICTED BY IDOCK:   -2.55 KCAL/MOL
REMARK 923 INTER-LIGAND FREE ENERGY PREDICTED BY IDOCK:   -2.59 KCAL/MOL
REMARK 924 INTRA-LIGAND FREE ENERGY PREDICTED BY IDOCK:    0.05 KCAL/MOL
REMARK 927      BINDING AFFINITY PREDICTED BY RF-SCORE:    0.00 PKD
ROOT
HETATM    1  C   UNL     1      -8.079   4.295  65.317  1.00  0.00    -0.101 C  
HETATM    2  C   UNL     1      -8.763   5.612  65.698  1.00  0.00    -0.151 C  
HETATM    3  N   UNL     1      -7.723   6.566  66.137  1.00  0.00    -0.090 NA 
HETATM    4  H1  UNL     1      -8.179   7.442  66.390  1.00  0.00     0.000 HD 
HETATM    5  H2  UNL     1      -6.987   6.692  65.441  1.00  0.00     0.000 HD 
ENDROOT
BRANCH   2   6
HETATM    6  C   UNL     1      -9.838   5.450  66.816  1.00  0.00    -0.171 C  
HETATM    7  H   UNL     1     -11.770   5.064  66.910  1.00  0.00     0.000 HD 
HETATM    8  O   UNL     1     -11.116   5.163  66.229  1.00  0.00    -0.142 OA 
BRANCH   6   9
HETATM    9  C   UNL     1      -9.942   6.658  67.729  1.00  0.00    -0.158 A  
HETATM   10  C   UNL     1     -10.595   7.835  67.317  1.00  0.00    -0.376 A  
HETATM   11  C   UNL     1     -10.632   8.939  68.163  1.00  0.00    -0.157 A  
HETATM   12  O   UNL     1     -11.241  10.107  67.798  1.00  0.00    -0.431 OA 
HETATM   13  C   UNL     1     -10.033   8.885  69.418  1.00  0.00    -0.192 A  
HETATM   14  H   UNL     1     -11.267  10.861  68.375  1.00  0.00     0.000 HD 
HETATM   15  C   UNL     1      -9.392   7.734  69.848  1.00  0.00    -0.157 A  
HETATM   16  O   UNL     1     -10.068   9.977  70.237  1.00  0.00    -0.335 OA 
HETATM   17  H   UNL     1      -9.659   9.940  71.093  1.00  0.00     0.000 HD 
HETATM   18  C   UNL     1      -9.344   6.622  69.002  1.00  0.00    -0.133 A  
ENDBRANCH   6   9
ENDBRANCH   2   6
TORSDOF 2
ENDMDL
MODEL      245
REMARK 921   NORMALIZED FREE ENERGY PREDICTED BY IDOCK:   -2.07 KCAL/MOL
REMARK 922        TOTAL FREE ENERGY PREDICTED BY IDOCK:   -2.52 KCAL/MOL
REMARK 923 INTER-LIGAND FREE ENERGY PREDICTED BY IDOCK:   -2.31 KCAL/MOL
REMARK 924 INTRA-LIGAND FREE ENERGY PREDICTED BY IDOCK:   -0.21 KCAL/MOL
REMARK 927      BINDING AFFINITY PREDICTED BY RF-SCORE:    0.00 PKD
ROOT
HETATM    1  C   UNL     1      -9.269   2.966  65.578  1.00  0.00    -0.123 C  
HETATM    2  C   UNL     1      -9.931   4.348  65.593  1.00  0.00    -0.236 C  
HETATM    3  N   UNL     1     -11.257   4.234  64.949  1.00  0.00    -1.021 NA 
HETATM    4  H1  UNL     1     -11.697   5.154  64.960  1.00  0.00     0.000 HD 
HETATM    5  H2  UNL     1     -11.840   3.514  65.376  1.00  0.00     0.000 HD 
ENDROOT
BRANCH   2   6
HETATM    6  C   UNL     1      -9.088   5.446  64.877  1.00  0.00     0.074 C  
HETATM    7  H   UNL     1      -7.404   5.528  63.852  1.00  0.00     0.000 HD 
HETATM    8  O   UNL     1      -7.917   4.859  64.288  1.00  0.00    -0.096 OA 
BRANCH   6   9
HETATM    9  C   UNL     1      -8.694   6.593  65.790  1.00  0.00    -0.126 A  
HETATM   10  C   UNL     1      -7.378   7.091  65.818  1.00  0.00    -0.079 A  
HETATM   11  C   UNL     1      -7.042   8.113  66.700  1.00  0.00    -0.077 A  
HETATM   12  O   UNL     1      -5.772   8.616  66.772  1.00  0.00    -0.045 OA 
HETATM   13  C   UNL     1      -8.001   8.650  67.553  1.00  0.00    -0.106 A  
HETATM   14  H   UNL     1      -5.543   9.313  67.374  1.00  0.00     0.000 HD 
HETATM   15  C   UNL     1      -9.305   8.181  67.538  1.00  0.00    -0.165 A  
HETATM   16  O   UNL     1      -7.658   9.647  68.421  1.00  0.00    -0.080 OA 
HETATM   17  H   UNL     1      -8.313  10.013  69.003  1.00  0.00     0.000 HD 
HETATM   18  C   UNL     1      -9.650   7.151  66.659  1.00  0.00    -0.226 A  
ENDBRANCH   6   9
ENDBRANCH   2   6
TORSDOF 2
ENDMDL
MODEL      246
REMARK 921   NORMALIZED FREE ENERGY PREDICTED BY IDOCK:   -2.05 KCAL/MOL
REMARK 922        TOTAL FREE ENERGY PREDICTED BY IDOCK:   -2.50 KCAL/MOL
REMARK 923 INTER-LIGAND FREE ENERGY PREDICTED BY IDOCK:   -2.31 KCAL/MOL
REMARK 924 INTRA-LIGAND FREE ENERGY PREDICTED BY IDOCK:   -0.20 KCAL/MOL
REMARK 927      BINDING AFFINITY PREDICTED BY RF-SCORE:    0.00 PKD
ROOT
HETATM    1  C   UNL     1      -8.907   3.318  68.185  1.00  0.00    -0.161 C  
HETATM    2  C   UNL     1      -8.629   4.824  68.164  1.00  0.00    -0.102 C  
HETATM    3  N   UNL     1      -7.704   5.109  67.047  1.00  0.00    -0.092 NA 
HETATM    4  H1  UNL     1      -7.519   6.112  67.033  1.00  0.00     0.000 HD 
HETATM    5  H2  UNL     1      -8.049   4.761  66.153  1.00  0.00     0.000 HD 
ENDROOT
BRANCH   2   6
HETATM    6  C   UNL     1      -8.028   5.361  69.499  1.00  0.00    -0.089 C  
HETATM    7  H   UNL     1      -6.366   5.111  70.532  1.00  0.00     0.000 HD 
HETATM    8  O   UNL     1      -6.732   4.784  69.719  1.00  0.00    -0.038 OA 
BRANCH   6   9
HETATM    9  C   UNL     1      -8.920   5.115  70.702  1.00  0.00    -0.162 A  
HETATM   10  C   UNL     1     -10.067   5.896  70.937  1.00  0.00    -0.251 A  
HETATM   11  C   UNL     1     -10.837   5.672  72.074  1.00  0.00    -0.242 A  
HETATM   12  O   UNL     1     -11.950   6.418  72.349  1.00  0.00    -0.456 OA 
HETATM   13  C   UNL     1     -10.484   4.676  72.978  1.00  0.00    -0.198 A  
HETATM   14  H   UNL     1     -12.476   6.265  73.125  1.00  0.00     0.000 HD 
HETATM   15  C   UNL     1      -9.364   3.889  72.763  1.00  0.00    -0.145 A  
HETATM   16  O   UNL     1     -11.242   4.470  74.095  1.00  0.00    -0.248 OA 
HETATM   17  H   UNL     1     -11.001   3.790  74.712  1.00  0.00     0.000 HD 
HETATM   18  C   UNL     1      -8.580   4.111  71.627  1.00  0.00    -0.125 A  
ENDBRANCH   6   9
ENDBRANCH   2   6
TORSDOF 2
ENDMDL
MODEL      247
REMARK 921   NORMALIZED FREE ENERGY PREDICTED BY IDOCK:   -2.05 KCAL/MOL
REMARK 922        TOTAL FREE ENERGY PREDICTED BY IDOCK:   -2.50 KCAL/MOL
REMARK 923 INTER-LIGAND FREE ENERGY PREDICTED BY IDOCK:   -2.30 KCAL/MOL
REMARK 924 INTRA-LIGAND FREE ENERGY PREDICTED BY IDOCK:   -0.21 KCAL/MOL
REMARK 927      BINDING AFFINITY PREDICTED BY RF-SCORE:    0.00 PKD
ROOT
HETATM    1  C   UNL     1      -7.127   3.528  64.590  1.00  0.00    -0.058 C  
HETATM    2  C   UNL     1      -8.326   3.158  65.469  1.00  0.00    -0.100 C  
HETATM    3  N   UNL     1      -8.940   1.929  64.923  1.00  0.00    -0.119 NA 
HETATM    4  H1  UNL     1      -9.738   1.683  65.508  1.00  0.00     0.000 HD 
HETATM    5  H2  UNL     1      -8.271   1.165  64.829  1.00  0.00     0.000 HD 
ENDROOT
BRANCH   2   6
HETATM    6  C   UNL     1      -9.396   4.288  65.562  1.00  0.00    -0.162 C  
HETATM    7  H   UNL     1      -9.603   6.134  64.897  1.00  0.00     0.000 HD 
HETATM    8  O   UNL     1      -8.951   5.446  64.840  1.00  0.00    -0.111 OA 
BRANCH   6   9
HETATM    9  C   UNL     1      -9.748   4.666  66.989  1.00  0.00    -0.216 A  
HETATM   10  C   UNL     1      -9.126   4.045  68.088  1.00  0.00    -0.179 A  
HETATM   11  C   UNL     1      -9.506   4.385  69.383  1.00  0.00    -0.180 A  
HETATM   12  O   UNL     1      -8.939   3.795  70.479  1.00  0.00    -0.077 OA 
HETATM   13  C   UNL     1     -10.494   5.340  69.599  1.00  0.00    -0.250 A  
HETATM   14  H   UNL     1      -9.198   4.027  71.363  1.00  0.00     0.000 HD 
HETATM   15  C   UNL     1     -11.115   5.970  68.533  1.00  0.00    -0.279 A  
HETATM   16  O   UNL     1     -10.865   5.659  70.874  1.00  0.00    -0.265 OA 
HETATM   17  H   UNL     1     -11.540   6.311  71.021  1.00  0.00     0.000 HD 
HETATM   18  C   UNL     1     -10.745   5.631  67.228  1.00  0.00    -0.299 A  
ENDBRANCH   6   9
ENDBRANCH   2   6
TORSDOF 2
ENDMDL
MODEL      248
REMARK 921   NORMALIZED FREE ENERGY PREDICTED BY IDOCK:   -2.04 KCAL/MOL
REMARK 922        TOTAL FREE ENERGY PREDICTED BY IDOCK:   -2.49 KCAL/MOL
REMARK 923 INTER-LIGAND FREE ENERGY PREDICTED BY IDOCK:   -2.32 KCAL/MOL
REMARK 924 INTRA-LIGAND FREE ENERGY PREDICTED BY IDOCK:   -0.17 KCAL/MOL
REMARK 927      BINDING AFFINITY PREDICTED BY RF-SCORE:    0.00 PKD
ROOT
HETATM    1  C   UNL     1      -8.901   4.468  66.400  1.00  0.00    -0.113 C  
HETATM    2  C   UNL     1      -7.955   5.358  65.588  1.00  0.00    -0.107 C  
HETATM    3  N   UNL     1      -6.809   4.535  65.145  1.00  0.00    -0.052 NA 
HETATM    4  H1  UNL     1      -6.180   5.128  64.605  1.00  0.00     0.000 HD 
HETATM    5  H2  UNL     1      -7.099   3.701  64.635  1.00  0.00     0.000 HD 
ENDROOT
BRANCH   2   6
HETATM    6  C   UNL     1      -7.441   6.599  66.380  1.00  0.00    -0.085 C  
HETATM    7  H   UNL     1      -6.963   7.017  68.247  1.00  0.00     0.000 HD 
HETATM    8  O   UNL     1      -7.276   6.262  67.765  1.00  0.00    -0.078 OA 
BRANCH   6   9
HETATM    9  C   UNL     1      -8.338   7.815  66.241  1.00  0.00    -0.131 A  
HETATM   10  C   UNL     1      -8.046   8.843  65.325  1.00  0.00    -0.126 A  
HETATM   11  C   UNL     1      -8.866   9.964  65.257  1.00  0.00    -0.181 A  
HETATM   12  O   UNL     1      -8.610  10.994  64.394  1.00  0.00    -0.371 OA 
HETATM   13  C   UNL     1      -9.979  10.073  66.084  1.00  0.00    -0.256 A  
HETATM   14  H   UNL     1      -9.170  11.759  64.347  1.00  0.00     0.000 HD 
HETATM   15  C   UNL     1     -10.292   9.070  66.988  1.00  0.00    -0.339 A  
HETATM   16  O   UNL     1     -10.773  11.183  66.015  1.00  0.00    -0.259 OA 
HETATM   17  H   UNL     1     -11.533  11.257  66.580  1.00  0.00     0.000 HD 
HETATM   18  C   UNL     1      -9.470   7.943  67.068  1.00  0.00    -0.222 A  
ENDBRANCH   6   9
ENDBRANCH   2   6
TORSDOF 2
ENDMDL
MODEL      249
REMARK 921   NORMALIZED FREE ENERGY PREDICTED BY IDOCK:   -2.01 KCAL/MOL
REMARK 922        TOTAL FREE ENERGY PREDICTED BY IDOCK:   -2.46 KCAL/MOL
REMARK 923 INTER-LIGAND FREE ENERGY PREDICTED BY IDOCK:   -2.27 KCAL/MOL
REMARK 924 INTRA-LIGAND FREE ENERGY PREDICTED BY IDOCK:   -0.19 KCAL/MOL
REMARK 927      BINDING AFFINITY PREDICTED BY RF-SCORE:    0.00 PKD
ROOT
HETATM    1  C   UNL     1      -8.088   4.741  64.914  1.00  0.00    -0.105 C  
HETATM    2  C   UNL     1      -8.349   6.130  65.505  1.00  0.00    -0.147 C  
HETATM    3  N   UNL     1      -7.599   7.122  64.706  1.00  0.00    -0.097 NA 
HETATM    4  H1  UNL     1      -7.773   8.047  65.099  1.00  0.00     0.000 HD 
HETATM    5  H2  UNL     1      -7.817   7.070  63.710  1.00  0.00     0.000 HD 
ENDROOT
BRANCH   2   6
HETATM    6  C   UNL     1      -7.948   6.249  67.007  1.00  0.00    -0.109 C  
HETATM    7  H   UNL     1      -7.206   5.062  68.397  1.00  0.00     0.000 HD 
HETATM    8  O   UNL     1      -7.450   4.990  67.482  1.00  0.00    -0.080 OA 
BRANCH   6   9
HETATM    9  C   UNL     1      -9.081   6.731  67.895  1.00  0.00    -0.114 A  
HETATM   10  C   UNL     1      -8.995   7.946  68.600  1.00  0.00    -0.134 A  
HETATM   11  C   UNL     1     -10.034   8.335  69.440  1.00  0.00    -0.188 A  
HETATM   12  O   UNL     1      -9.985   9.498  70.156  1.00  0.00    -0.209 OA 
HETATM   13  C   UNL     1     -11.161   7.533  69.582  1.00  0.00    -0.005 A  
HETATM   14  H   UNL     1     -10.694   9.764  70.730  1.00  0.00     0.000 HD 
HETATM   15  C   UNL     1     -11.272   6.337  68.891  1.00  0.00    -0.387 A  
HETATM   16  O   UNL     1     -12.172   7.920  70.415  1.00  0.00    -0.473 OA 
HETATM   17  H   UNL     1     -12.942   7.372  70.513  1.00  0.00     0.000 HD 
HETATM   18  C   UNL     1     -10.231   5.935  68.050  1.00  0.00    -0.224 A  
ENDBRANCH   6   9
ENDBRANCH   2   6
TORSDOF 2
ENDMDL
MODEL      250
REMARK 921   NORMALIZED FREE ENERGY PREDICTED BY IDOCK:   -1.95 KCAL/MOL
REMARK 922        TOTAL FREE ENERGY PREDICTED BY IDOCK:   -2.39 KCAL/MOL
REMARK 923 INTER-LIGAND FREE ENERGY PREDICTED BY IDOCK:   -3.68 KCAL/MOL
REMARK 924 INTRA-LIGAND FREE ENERGY PREDICTED BY IDOCK:    1.29 KCAL/MOL
REMARK 927      BINDING AFFINITY PREDICTED BY RF-SCORE:    0.00 PKD
ROOT
HETATM    1  C   UNL     1      -9.341   8.804  69.778  1.00  0.00    -0.163 C  
HETATM    2  C   UNL     1      -9.575   7.970  68.515  1.00  0.00    -0.155 C  
HETATM    3  N   UNL     1      -8.263   7.511  68.012  1.00  0.00    -0.123 NA 
HETATM    4  H1  UNL     1      -8.418   6.956  67.171  1.00  0.00     0.000 HD 
HETATM    5  H2  UNL     1      -7.724   7.011  68.720  1.00  0.00     0.000 HD 
ENDROOT
BRANCH   2   6
HETATM    6  C   UNL     1     -10.330   8.745  67.392  1.00  0.00    -0.280 C  
HETATM    7  H   UNL     1      -9.975   9.287  65.528  1.00  0.00     0.000 HD 
HETATM    8  O   UNL     1      -9.515   8.815  66.212  1.00  0.00    -0.197 OA 
BRANCH   6   9
HETATM    9  C   UNL     1     -10.764  10.137  67.811  1.00  0.00    -0.328 A  
HETATM   10  C   UNL     1     -11.057  10.443  69.153  1.00  0.00    -0.296 A  
HETATM   11  C   UNL     1     -11.495  11.718  69.494  1.00  0.00    -0.295 A  
HETATM   12  O   UNL     1     -11.807  12.053  70.782  1.00  0.00    -0.447 OA 
HETATM   13  C   UNL     1     -11.640  12.697  68.516  1.00  0.00    -0.323 A  
HETATM   14  H   UNL     1     -12.106  12.924  71.015  1.00  0.00     0.000 HD 
HETATM   15  C   UNL     1     -11.350  12.423  67.189  1.00  0.00    -0.390 A  
HETATM   16  O   UNL     1     -12.080  13.944  68.860  1.00  0.00    -0.351 OA 
HETATM   17  H   UNL     1     -12.179  14.612  68.193  1.00  0.00     0.000 HD 
HETATM   18  C   UNL     1     -10.915  11.142  66.836  1.00  0.00    -0.333 A  
ENDBRANCH   6   9
ENDBRANCH   2   6
TORSDOF 2
ENDMDL
MODEL      251
REMARK 921   NORMALIZED FREE ENERGY PREDICTED BY IDOCK:   -1.93 KCAL/MOL
REMARK 922        TOTAL FREE ENERGY PREDICTED BY IDOCK:   -2.37 KCAL/MOL
REMARK 923 INTER-LIGAND FREE ENERGY PREDICTED BY IDOCK:   -2.66 KCAL/MOL
REMARK 924 INTRA-LIGAND FREE ENERGY PREDICTED BY IDOCK:    0.29 KCAL/MOL
REMARK 927      BINDING AFFINITY PREDICTED BY RF-SCORE:    0.00 PKD
ROOT
HETATM    1  C   UNL     1      -9.276  17.337  68.817  1.00  0.00    -0.238 C  
HETATM    2  C   UNL     1      -9.461  18.857  68.752  1.00  0.00    -0.358 C  
HETATM    3  N   UNL     1     -10.609  19.222  69.609  1.00  0.00     0.131 NA 
HETATM    4  H1  UNL     1     -10.731  20.233  69.565  1.00  0.00     0.000 HD 
HETATM    5  H2  UNL     1     -10.510  18.879  70.565  1.00  0.00     0.000 HD 
ENDROOT
BRANCH   2   6
HETATM    6  C   UNL     1      -9.691  19.391  67.305  1.00  0.00    -0.334 C  
HETATM    7  H   UNL     1     -10.920  19.011  65.809  1.00  0.00     0.000 HD 
HETATM    8  O   UNL     1     -10.779  18.686  66.690  1.00  0.00    -0.377 OA 
BRANCH   6   9
HETATM    9  C   UNL     1      -8.453  19.306  66.430  1.00  0.00    -0.342 A  
HETATM   10  C   UNL     1      -7.973  20.427  65.728  1.00  0.00     0.054 A  
HETATM   11  C   UNL     1      -6.862  20.303  64.899  1.00  0.00    -0.191 A  
HETATM   12  O   UNL     1      -6.372  21.361  64.186  1.00  0.00    -0.417 OA 
HETATM   13  C   UNL     1      -6.219  19.077  64.765  1.00  0.00    -0.209 A  
HETATM   14  H   UNL     1      -5.614  21.277  63.621  1.00  0.00     0.000 HD 
HETATM   15  C   UNL     1      -6.668  17.961  65.453  1.00  0.00     0.101 A  
HETATM   16  O   UNL     1      -5.134  18.964  63.943  1.00  0.00    -0.192 OA 
HETATM   17  H   UNL     1      -4.695  18.127  63.851  1.00  0.00     0.000 HD 
HETATM   18  C   UNL     1      -7.787  18.075  66.283  1.00  0.00    -0.288 A  
ENDBRANCH   6   9
ENDBRANCH   2   6
TORSDOF 2
ENDMDL
MODEL      252
REMARK 921   NORMALIZED FREE ENERGY PREDICTED BY IDOCK:   -1.92 KCAL/MOL
REMARK 922        TOTAL FREE ENERGY PREDICTED BY IDOCK:   -2.36 KCAL/MOL
REMARK 923 INTER-LIGAND FREE ENERGY PREDICTED BY IDOCK:   -2.43 KCAL/MOL
REMARK 924 INTRA-LIGAND FREE ENERGY PREDICTED BY IDOCK:    0.07 KCAL/MOL
REMARK 927      BINDING AFFINITY PREDICTED BY RF-SCORE:    0.00 PKD
ROOT
HETATM    1  C   UNL     1      -7.126   4.309  70.384  1.00  0.00    -0.041 C  
HETATM    2  C   UNL     1      -8.066   4.129  71.581  1.00  0.00    -0.086 C  
HETATM    3  N   UNL     1      -8.773   2.841  71.426  1.00  0.00    -0.067 NA 
HETATM    4  H1  UNL     1      -9.399   2.722  72.223  1.00  0.00     0.000 HD 
HETATM    5  H2  UNL     1      -8.135   2.054  71.306  1.00  0.00     0.000 HD 
ENDROOT
BRANCH   2   6
HETATM    6  C   UNL     1      -9.100   5.286  71.734  1.00  0.00    -0.138 C  
HETATM    7  H   UNL     1     -10.908   5.509  72.493  1.00  0.00     0.000 HD 
HETATM    8  O   UNL     1     -10.278   4.805  72.400  1.00  0.00    -0.182 OA 
BRANCH   6   9
HETATM    9  C   UNL     1      -9.475   5.936  70.415  1.00  0.00    -0.192 A  
HETATM   10  C   UNL     1      -8.715   6.989  69.873  1.00  0.00    -0.142 A  
HETATM   11  C   UNL     1      -9.114   7.591  68.684  1.00  0.00    -0.134 A  
HETATM   12  O   UNL     1      -8.415   8.628  68.130  1.00  0.00    -0.128 OA 
HETATM   13  C   UNL     1     -10.257   7.154  68.022  1.00  0.00    -0.185 A  
HETATM   14  H   UNL     1      -8.687   9.039  67.318  1.00  0.00     0.000 HD 
HETATM   15  C   UNL     1     -11.017   6.113  68.532  1.00  0.00    -0.404 A  
HETATM   16  O   UNL     1     -10.644   7.758  66.860  1.00  0.00    -0.343 OA 
HETATM   17  H   UNL     1     -11.425   7.459  66.409  1.00  0.00     0.000 HD 
HETATM   18  C   UNL     1     -10.627   5.506  69.729  1.00  0.00    -0.388 A  
ENDBRANCH   6   9
ENDBRANCH   2   6
TORSDOF 2
ENDMDL
MODEL      253
REMARK 921   NORMALIZED FREE ENERGY PREDICTED BY IDOCK:   -1.91 KCAL/MOL
REMARK 922        TOTAL FREE ENERGY PREDICTED BY IDOCK:   -2.34 KCAL/MOL
REMARK 923 INTER-LIGAND FREE ENERGY PREDICTED BY IDOCK:   -2.54 KCAL/MOL
REMARK 924 INTRA-LIGAND FREE ENERGY PREDICTED BY IDOCK:    0.20 KCAL/MOL
REMARK 927      BINDING AFFINITY PREDICTED BY RF-SCORE:    0.00 PKD
ROOT
HETATM    1  C   UNL     1     -12.803   7.998  71.270  1.00  0.00    -0.221 C  
HETATM    2  C   UNL     1     -11.815   6.894  70.883  1.00  0.00    -0.376 C  
HETATM    3  N   UNL     1     -10.818   6.762  71.966  1.00  0.00    -0.222 NA 
HETATM    4  H1  UNL     1     -10.160   6.027  71.708  1.00  0.00     0.000 HD 
HETATM    5  H2  UNL     1     -11.248   6.603  72.878  1.00  0.00     0.000 HD 
ENDROOT
BRANCH   2   6
HETATM    6  C   UNL     1     -11.090   7.159  69.527  1.00  0.00    -0.141 C  
HETATM    7  H   UNL     1      -9.515   6.450  68.575  1.00  0.00     0.000 HD 
HETATM    8  O   UNL     1      -9.956   6.289  69.400  1.00  0.00    -0.151 OA 
BRANCH   6   9
HETATM    9  C   UNL     1     -10.662   8.604  69.348  1.00  0.00    -0.169 A  
HETATM   10  C   UNL     1     -11.581   9.600  68.966  1.00  0.00     0.277 A  
HETATM   11  C   UNL     1     -11.145  10.906  68.766  1.00  0.00    -0.256 A  
HETATM   12  O   UNL     1     -11.999  11.900  68.379  1.00  0.00    -0.408 OA 
HETATM   13  C   UNL     1      -9.806  11.236  68.948  1.00  0.00    -0.139 A  
HETATM   14  H   UNL     1     -11.702  12.792  68.243  1.00  0.00     0.000 HD 
HETATM   15  C   UNL     1      -8.884  10.274  69.332  1.00  0.00    -0.177 A  
HETATM   16  O   UNL     1      -9.386  12.519  68.741  1.00  0.00    -0.401 OA 
HETATM   17  H   UNL     1      -8.472  12.744  68.865  1.00  0.00     0.000 HD 
HETATM   18  C   UNL     1      -9.312   8.958  69.529  1.00  0.00    -0.155 A  
ENDBRANCH   6   9
ENDBRANCH   2   6
TORSDOF 2
ENDMDL
MODEL      254
REMARK 921   NORMALIZED FREE ENERGY PREDICTED BY IDOCK:   -1.89 KCAL/MOL
REMARK 922        TOTAL FREE ENERGY PREDICTED BY IDOCK:   -2.33 KCAL/MOL
REMARK 923 INTER-LIGAND FREE ENERGY PREDICTED BY IDOCK:   -2.12 KCAL/MOL
REMARK 924 INTRA-LIGAND FREE ENERGY PREDICTED BY IDOCK:   -0.20 KCAL/MOL
REMARK 927      BINDING AFFINITY PREDICTED BY RF-SCORE:    0.00 PKD
ROOT
HETATM    1  C   UNL     1      -6.771   9.150  69.869  1.00  0.00    -0.048 C  
HETATM    2  C   UNL     1      -7.320   7.747  69.593  1.00  0.00    -0.088 C  
HETATM    3  N   UNL     1      -6.886   7.337  68.240  1.00  0.00    -0.067 NA 
HETATM    4  H1  UNL     1      -7.251   6.403  68.057  1.00  0.00     0.000 HD 
HETATM    5  H2  UNL     1      -5.874   7.394  68.119  1.00  0.00     0.000 HD 
ENDROOT
BRANCH   2   6
HETATM    6  C   UNL     1      -8.874   7.658  69.698  1.00  0.00    -0.140 C  
HETATM    7  H   UNL     1     -10.382   8.923  69.825  1.00  0.00     0.000 HD 
HETATM    8  O   UNL     1      -9.436   8.977  69.761  1.00  0.00    -0.163 OA 
BRANCH   6   9
HETATM    9  C   UNL     1      -9.349   6.831  70.879  1.00  0.00    -0.157 A  
HETATM   10  C   UNL     1      -9.293   5.425  70.860  1.00  0.00    -0.196 A  
HETATM   11  C   UNL     1      -9.779   4.697  71.942  1.00  0.00    -0.165 A  
HETATM   12  O   UNL     1      -9.759   3.330  71.959  1.00  0.00    -0.144 OA 
HETATM   13  C   UNL     1     -10.316   5.352  73.046  1.00  0.00    -0.197 A  
HETATM   14  H   UNL     1     -10.091   2.833  72.698  1.00  0.00     0.000 HD 
HETATM   15  C   UNL     1     -10.374   6.736  73.090  1.00  0.00    -0.270 A  
HETATM   16  O   UNL     1     -10.798   4.628  74.099  1.00  0.00    -0.286 OA 
HETATM   17  H   UNL     1     -11.165   5.075  74.852  1.00  0.00     0.000 HD 
HETATM   18  C   UNL     1      -9.894   7.475  72.006  1.00  0.00    -0.200 A  
ENDBRANCH   6   9
ENDBRANCH   2   6
TORSDOF 2
ENDMDL
MODEL      255
REMARK 921   NORMALIZED FREE ENERGY PREDICTED BY IDOCK:   -1.89 KCAL/MOL
REMARK 922        TOTAL FREE ENERGY PREDICTED BY IDOCK:   -2.32 KCAL/MOL
REMARK 923 INTER-LIGAND FREE ENERGY PREDICTED BY IDOCK:   -2.12 KCAL/MOL
REMARK 924 INTRA-LIGAND FREE ENERGY PREDICTED BY IDOCK:   -0.20 KCAL/MOL
REMARK 927      BINDING AFFINITY PREDICTED BY RF-SCORE:    0.00 PKD
ROOT
HETATM    1  C   UNL     1      -9.396   5.264  67.999  1.00  0.00    -0.135 C  
HETATM    2  C   UNL     1      -8.120   6.051  68.312  1.00  0.00    -0.110 C  
HETATM    3  N   UNL     1      -7.399   5.354  69.398  1.00  0.00    -0.064 NA 
HETATM    4  H1  UNL     1      -6.549   5.878  69.605  1.00  0.00     0.000 HD 
HETATM    5  H2  UNL     1      -7.213   4.374  69.180  1.00  0.00     0.000 HD 
ENDROOT
BRANCH   2   6
HETATM    6  C   UNL     1      -8.390   7.531  68.722  1.00  0.00    -0.129 C  
HETATM    7  H   UNL     1      -9.836   8.537  69.609  1.00  0.00     0.000 HD 
HETATM    8  O   UNL     1      -9.672   7.636  69.359  1.00  0.00    -0.163 OA 
BRANCH   6   9
HETATM    9  C   UNL     1      -8.304   8.502  67.559  1.00  0.00    -0.128 A  
HETATM   10  C   UNL     1      -9.441   8.850  66.807  1.00  0.00    -0.243 A  
HETATM   11  C   UNL     1      -9.317   9.709  65.719  1.00  0.00    -0.228 A  
HETATM   12  O   UNL     1     -10.393  10.060  64.951  1.00  0.00    -0.261 OA 
HETATM   13  C   UNL     1      -8.075  10.231  65.373  1.00  0.00    -0.147 A  
HETATM   14  H   UNL     1     -10.308  10.647  64.209  1.00  0.00     0.000 HD 
HETATM   15  C   UNL     1      -6.942   9.910  66.104  1.00  0.00    -0.102 A  
HETATM   16  O   UNL     1      -7.963  11.066  64.298  1.00  0.00    -0.335 OA 
HETATM   17  H   UNL     1      -7.115  11.423  64.062  1.00  0.00     0.000 HD 
HETATM   18  C   UNL     1      -7.056   9.043  67.194  1.00  0.00    -0.079 A  
ENDBRANCH   6   9
ENDBRANCH   2   6
TORSDOF 2
ENDMDL
MODEL      256
REMARK 921   NORMALIZED FREE ENERGY PREDICTED BY IDOCK:   -1.89 KCAL/MOL
REMARK 922        TOTAL FREE ENERGY PREDICTED BY IDOCK:   -2.32 KCAL/MOL
REMARK 923 INTER-LIGAND FREE ENERGY PREDICTED BY IDOCK:   -2.29 KCAL/MOL
REMARK 924 INTRA-LIGAND FREE ENERGY PREDICTED BY IDOCK:   -0.04 KCAL/MOL
REMARK 927      BINDING AFFINITY PREDICTED BY RF-SCORE:    0.00 PKD
ROOT
HETATM    1  C   UNL     1      -7.783   7.726  71.223  1.00  0.00    -0.085 C  
HETATM    2  C   UNL     1      -7.547   8.836  70.194  1.00  0.00    -0.072 C  
HETATM    3  N   UNL     1      -7.202  10.076  70.920  1.00  0.00    -0.363 NA 
HETATM    4  H1  UNL     1      -7.044  10.815  70.234  1.00  0.00     0.000 HD 
HETATM    5  H2  UNL     1      -6.412   9.953  71.553  1.00  0.00     0.000 HD 
ENDROOT
BRANCH   2   6
HETATM    6  C   UNL     1      -8.774   9.090  69.265  1.00  0.00    -0.138 C  
HETATM    7  H   UNL     1     -10.725   9.288  69.481  1.00  0.00     0.000 HD 
HETATM    8  O   UNL     1      -9.978   9.133  70.046  1.00  0.00    -0.180 OA 
BRANCH   6   9
HETATM    9  C   UNL     1      -8.908   8.067  68.153  1.00  0.00    -0.132 A  
HETATM   10  C   UNL     1      -8.578   8.382  66.821  1.00  0.00    -0.123 A  
HETATM   11  C   UNL     1      -8.756   7.433  65.820  1.00  0.00    -0.109 A  
HETATM   12  O   UNL     1      -8.464   7.702  64.511  1.00  0.00    -0.360 OA 
HETATM   13  C   UNL     1      -9.254   6.171  66.127  1.00  0.00    -0.131 A  
HETATM   14  H   UNL     1      -8.586   7.054  63.827  1.00  0.00     0.000 HD 
HETATM   15  C   UNL     1      -9.578   5.835  67.432  1.00  0.00    -0.119 A  
HETATM   16  O   UNL     1      -9.433   5.249  65.135  1.00  0.00    -0.353 OA 
HETATM   17  H   UNL     1      -9.773   4.388  65.345  1.00  0.00     0.000 HD 
HETATM   18  C   UNL     1      -9.408   6.784  68.444  1.00  0.00    -0.124 A  
ENDBRANCH   6   9
ENDBRANCH   2   6
TORSDOF 2
ENDMDL
MODEL      257
REMARK 921   NORMALIZED FREE ENERGY PREDICTED BY IDOCK:   -1.89 KCAL/MOL
REMARK 922        TOTAL FREE ENERGY PREDICTED BY IDOCK:   -2.32 KCAL/MOL
REMARK 923 INTER-LIGAND FREE ENERGY PREDICTED BY IDOCK:   -2.12 KCAL/MOL
REMARK 924 INTRA-LIGAND FREE ENERGY PREDICTED BY IDOCK:   -0.20 KCAL/MOL
REMARK 927      BINDING AFFINITY PREDICTED BY RF-SCORE:    0.00 PKD
ROOT
HETATM    1  C   UNL     1      -7.988   4.802  71.691  1.00  0.00    -0.103 C  
HETATM    2  C   UNL     1      -9.246   5.048  70.851  1.00  0.00    -0.146 C  
HETATM    3  N   UNL     1     -10.392   5.214  71.769  1.00  0.00    -0.208 NA 
HETATM    4  H1  UNL     1     -11.229   5.377  71.210  1.00  0.00     0.000 HD 
HETATM    5  H2  UNL     1     -10.236   5.943  72.465  1.00  0.00     0.000 HD 
ENDROOT
BRANCH   2   6
HETATM    6  C   UNL     1      -9.544   3.904  69.834  1.00  0.00    -0.200 C  
HETATM    7  H   UNL     1      -8.866   2.087  69.472  1.00  0.00     0.000 HD 
HETATM    8  O   UNL     1      -8.684   2.784  70.091  1.00  0.00    -0.058 OA 
BRANCH   6   9
HETATM    9  C   UNL     1      -9.415   4.340  68.386  1.00  0.00    -0.215 A  
HETATM   10  C   UNL     1      -8.273   4.029  67.624  1.00  0.00    -0.094 A  
HETATM   11  C   UNL     1      -8.170   4.483  66.313  1.00  0.00    -0.106 A  
HETATM   12  O   UNL     1      -7.072   4.218  65.543  1.00  0.00    -0.061 OA 
HETATM   13  C   UNL     1      -9.192   5.238  65.747  1.00  0.00    -0.151 A  
HETATM   14  H   UNL     1      -7.001   4.528  64.647  1.00  0.00     0.000 HD 
HETATM   15  C   UNL     1     -10.329   5.550  66.475  1.00  0.00    -0.309 A  
HETATM   16  O   UNL     1      -9.076   5.686  64.462  1.00  0.00    -0.356 OA 
HETATM   17  H   UNL     1      -9.774   6.202  64.076  1.00  0.00     0.000 HD 
HETATM   18  C   UNL     1     -10.439   5.103  67.795  1.00  0.00    -0.112 A  
ENDBRANCH   6   9
ENDBRANCH   2   6
TORSDOF 2
ENDMDL
MODEL      258
REMARK 921   NORMALIZED FREE ENERGY PREDICTED BY IDOCK:   -1.88 KCAL/MOL
REMARK 922        TOTAL FREE ENERGY PREDICTED BY IDOCK:   -2.31 KCAL/MOL
REMARK 923 INTER-LIGAND FREE ENERGY PREDICTED BY IDOCK:   -2.98 KCAL/MOL
REMARK 924 INTRA-LIGAND FREE ENERGY PREDICTED BY IDOCK:    0.67 KCAL/MOL
REMARK 927      BINDING AFFINITY PREDICTED BY RF-SCORE:    0.00 PKD
ROOT
HETATM    1  C   UNL     1      -8.141   6.465  64.456  1.00  0.00    -0.088 C  
HETATM    2  C   UNL     1      -7.293   7.715  64.199  1.00  0.00    -0.094 C  
HETATM    3  N   UNL     1      -6.493   7.990  65.411  1.00  0.00    -0.048 NA 
HETATM    4  H1  UNL     1      -5.929   8.822  65.240  1.00  0.00     0.000 HD 
HETATM    5  H2  UNL     1      -5.933   7.189  65.702  1.00  0.00     0.000 HD 
ENDROOT
BRANCH   2   6
HETATM    6  C   UNL     1      -8.139   8.971  63.828  1.00  0.00    -0.164 C  
HETATM    7  H   UNL     1      -7.790  10.803  63.185  1.00  0.00     0.000 HD 
HETATM    8  O   UNL     1      -7.275  10.038  63.411  1.00  0.00    -0.130 OA 
BRANCH   6   9
HETATM    9  C   UNL     1      -9.044   9.440  64.953  1.00  0.00    -0.258 A  
HETATM   10  C   UNL     1      -9.614   8.532  65.864  1.00  0.00    -0.164 A  
HETATM   11  C   UNL     1     -10.474   8.993  66.856  1.00  0.00    -0.223 A  
HETATM   12  O   UNL     1     -11.062   8.144  67.752  1.00  0.00    -0.484 OA 
HETATM   13  C   UNL     1     -10.770  10.348  66.956  1.00  0.00    -0.235 A  
HETATM   14  H   UNL     1     -11.649   8.458  68.429  1.00  0.00     0.000 HD 
HETATM   15  C   UNL     1     -10.214  11.262  66.075  1.00  0.00    -0.295 A  
HETATM   16  O   UNL     1     -11.623  10.789  67.928  1.00  0.00    -0.541 OA 
HETATM   17  H   UNL     1     -11.825  11.714  67.996  1.00  0.00     0.000 HD 
HETATM   18  C   UNL     1      -9.354  10.808  65.072  1.00  0.00    -0.261 A  
ENDBRANCH   6   9
ENDBRANCH   2   6
TORSDOF 2
ENDMDL
MODEL      259
REMARK 921   NORMALIZED FREE ENERGY PREDICTED BY IDOCK:   -1.87 KCAL/MOL
REMARK 922        TOTAL FREE ENERGY PREDICTED BY IDOCK:   -2.30 KCAL/MOL
REMARK 923 INTER-LIGAND FREE ENERGY PREDICTED BY IDOCK:   -2.11 KCAL/MOL
REMARK 924 INTRA-LIGAND FREE ENERGY PREDICTED BY IDOCK:   -0.19 KCAL/MOL
REMARK 927      BINDING AFFINITY PREDICTED BY RF-SCORE:    0.00 PKD
ROOT
HETATM    1  C   UNL     1      -7.120   4.509  63.781  1.00  0.00    -0.049 C  
HETATM    2  C   UNL     1      -7.728   5.829  64.265  1.00  0.00    -0.097 C  
HETATM    3  N   UNL     1      -9.161   5.603  64.552  1.00  0.00    -0.335 NA 
HETATM    4  H1  UNL     1      -9.565   6.482  64.875  1.00  0.00     0.000 HD 
HETATM    5  H2  UNL     1      -9.313   4.836  65.208  1.00  0.00     0.000 HD 
ENDROOT
BRANCH   2   6
HETATM    6  C   UNL     1      -7.572   6.995  63.241  1.00  0.00    -0.108 C  
HETATM    7  H   UNL     1      -6.142   7.719  62.091  1.00  0.00     0.000 HD 
HETATM    8  O   UNL     1      -6.237   7.009  62.714  1.00  0.00    -0.046 OA 
BRANCH   6   9
HETATM    9  C   UNL     1      -7.919   8.354  63.821  1.00  0.00    -0.159 A  
HETATM   10  C   UNL     1      -7.437   8.761  65.079  1.00  0.00    -0.097 A  
HETATM   11  C   UNL     1      -7.812   9.995  65.599  1.00  0.00    -0.138 A  
HETATM   12  O   UNL     1      -7.381  10.423  66.824  1.00  0.00    -0.102 OA 
HETATM   13  C   UNL     1      -8.657  10.835  64.880  1.00  0.00    -0.092 A  
HETATM   14  H   UNL     1      -7.637  11.266  67.180  1.00  0.00     0.000 HD 
HETATM   15  C   UNL     1      -9.137  10.460  63.635  1.00  0.00    -0.277 A  
HETATM   16  O   UNL     1      -9.025  12.041  65.404  1.00  0.00    -0.413 OA 
HETATM   17  H   UNL     1      -9.602  12.614  64.913  1.00  0.00     0.000 HD 
HETATM   18  C   UNL     1      -8.771   9.219  63.108  1.00  0.00    -0.194 A  
ENDBRANCH   6   9
ENDBRANCH   2   6
TORSDOF 2
ENDMDL
MODEL      260
REMARK 921   NORMALIZED FREE ENERGY PREDICTED BY IDOCK:   -1.85 KCAL/MOL
REMARK 922        TOTAL FREE ENERGY PREDICTED BY IDOCK:   -2.28 KCAL/MOL
REMARK 923 INTER-LIGAND FREE ENERGY PREDICTED BY IDOCK:   -2.28 KCAL/MOL
REMARK 924 INTRA-LIGAND FREE ENERGY PREDICTED BY IDOCK:   -0.00 KCAL/MOL
REMARK 927      BINDING AFFINITY PREDICTED BY RF-SCORE:    0.00 PKD
ROOT
HETATM    1  C   UNL     1      -6.404   8.844  70.049  1.00  0.00    -0.037 C  
HETATM    2  C   UNL     1      -6.570   9.462  68.657  1.00  0.00    -0.053 C  
HETATM    3  N   UNL     1      -6.763  10.919  68.817  1.00  0.00    -0.058 NA 
HETATM    4  H1  UNL     1      -6.874  11.330  67.890  1.00  0.00     0.000 HD 
HETATM    5  H2  UNL     1      -6.015  11.357  69.355  1.00  0.00     0.000 HD 
ENDROOT
BRANCH   2   6
HETATM    6  C   UNL     1      -7.759   8.857  67.850  1.00  0.00    -0.101 C  
HETATM    7  H   UNL     1      -8.240   8.628  65.950  1.00  0.00     0.000 HD 
HETATM    8  O   UNL     1      -7.516   8.997  66.442  1.00  0.00    -0.090 OA 
BRANCH   6   9
HETATM    9  C   UNL     1      -9.102   9.464  68.211  1.00  0.00    -0.128 A  
HETATM   10  C   UNL     1      -9.753   9.142  69.417  1.00  0.00    -0.170 A  
HETATM   11  C   UNL     1     -11.004   9.682  69.695  1.00  0.00    -0.229 A  
HETATM   12  O   UNL     1     -11.679   9.384  70.847  1.00  0.00    -0.281 OA 
HETATM   13  C   UNL     1     -11.615  10.545  68.791  1.00  0.00    -0.182 A  
HETATM   14  H   UNL     1     -12.533   9.753  71.037  1.00  0.00     0.000 HD 
HETATM   15  C   UNL     1     -10.990  10.883  67.601  1.00  0.00    -0.350 A  
HETATM   16  O   UNL     1     -12.847  11.063  69.070  1.00  0.00    -0.402 OA 
HETATM   17  H   UNL     1     -13.264  11.652  68.453  1.00  0.00     0.000 HD 
HETATM   18  C   UNL     1      -9.735  10.340  67.310  1.00  0.00    -0.199 A  
ENDBRANCH   6   9
ENDBRANCH   2   6
TORSDOF 2
ENDMDL
MODEL      261
REMARK 921   NORMALIZED FREE ENERGY PREDICTED BY IDOCK:   -1.85 KCAL/MOL
REMARK 922        TOTAL FREE ENERGY PREDICTED BY IDOCK:   -2.28 KCAL/MOL
REMARK 923 INTER-LIGAND FREE ENERGY PREDICTED BY IDOCK:   -2.76 KCAL/MOL
REMARK 924 INTRA-LIGAND FREE ENERGY PREDICTED BY IDOCK:    0.48 KCAL/MOL
REMARK 927      BINDING AFFINITY PREDICTED BY RF-SCORE:    0.00 PKD
ROOT
HETATM    1  C   UNL     1      -8.339   7.719  66.021  1.00  0.00    -0.134 C  
HETATM    2  C   UNL     1      -8.757   6.308  66.447  1.00  0.00    -0.137 C  
HETATM    3  N   UNL     1      -9.799   5.831  65.513  1.00  0.00    -0.295 NA 
HETATM    4  H1  UNL     1     -10.076   4.891  65.797  1.00  0.00     0.000 HD 
HETATM    5  H2  UNL     1      -9.502   5.875  64.538  1.00  0.00     0.000 HD 
ENDROOT
BRANCH   2   6
HETATM    6  C   UNL     1      -9.287   6.235  67.912  1.00  0.00    -0.114 C  
HETATM    7  H   UNL     1     -10.749   5.320  68.870  1.00  0.00     0.000 HD 
HETATM    8  O   UNL     1     -10.426   5.365  67.978  1.00  0.00    -0.180 OA 
BRANCH   6   9
HETATM    9  C   UNL     1      -9.632   7.593  68.494  1.00  0.00    -0.149 A  
HETATM   10  C   UNL     1      -9.166   7.988  69.762  1.00  0.00    -0.149 A  
HETATM   11  C   UNL     1      -9.540   9.223  70.284  1.00  0.00    -0.235 A  
HETATM   12  O   UNL     1      -9.124   9.640  71.518  1.00  0.00    -0.227 OA 
HETATM   13  C   UNL     1     -10.366  10.073  69.557  1.00  0.00    -0.235 A  
HETATM   14  H   UNL     1      -9.378  10.483  71.874  1.00  0.00     0.000 HD 
HETATM   15  C   UNL     1     -10.831   9.709  68.303  1.00  0.00    -0.230 A  
HETATM   16  O   UNL     1     -10.734  11.279  70.082  1.00  0.00    -0.386 OA 
HETATM   17  H   UNL     1     -11.299  11.859  69.586  1.00  0.00     0.000 HD 
HETATM   18  C   UNL     1     -10.466   8.468  67.773  1.00  0.00    -0.287 A  
ENDBRANCH   6   9
ENDBRANCH   2   6
TORSDOF 2
ENDMDL
MODEL      262
REMARK 921   NORMALIZED FREE ENERGY PREDICTED BY IDOCK:   -1.83 KCAL/MOL
REMARK 922        TOTAL FREE ENERGY PREDICTED BY IDOCK:   -2.25 KCAL/MOL
REMARK 923 INTER-LIGAND FREE ENERGY PREDICTED BY IDOCK:   -2.22 KCAL/MOL
REMARK 924 INTRA-LIGAND FREE ENERGY PREDICTED BY IDOCK:   -0.03 KCAL/MOL
REMARK 927      BINDING AFFINITY PREDICTED BY RF-SCORE:    0.00 PKD
ROOT
HETATM    1  C   UNL     1      -8.802   7.767  66.499  1.00  0.00    -0.175 C  
HETATM    2  C   UNL     1      -8.152   6.509  65.914  1.00  0.00    -0.125 C  
HETATM    3  N   UNL     1      -9.135   5.847  65.030  1.00  0.00    -0.360 NA 
HETATM    4  H1  UNL     1      -8.702   5.010  64.641  1.00  0.00     0.000 HD 
HETATM    5  H2  UNL     1      -9.499   6.473  64.311  1.00  0.00     0.000 HD 
ENDROOT
BRANCH   2   6
HETATM    6  C   UNL     1      -7.658   5.505  67.001  1.00  0.00    -0.092 C  
HETATM    7  H   UNL     1      -7.486   3.548  67.180  1.00  0.00     0.000 HD 
HETATM    8  O   UNL     1      -7.787   4.159  66.519  1.00  0.00    -0.092 OA 
BRANCH   6   9
HETATM    9  C   UNL     1      -8.377   5.655  68.329  1.00  0.00    -0.102 A  
HETATM   10  C   UNL     1      -7.763   6.282  69.429  1.00  0.00    -0.100 A  
HETATM   11  C   UNL     1      -8.435   6.362  70.645  1.00  0.00    -0.135 A  
HETATM   12  O   UNL     1      -7.869   6.947  71.744  1.00  0.00    -0.098 OA 
HETATM   13  C   UNL     1      -9.713   5.832  70.779  1.00  0.00    -0.174 A  
HETATM   14  H   UNL     1      -8.328   7.002  72.574  1.00  0.00     0.000 HD 
HETATM   15  C   UNL     1     -10.342   5.217  69.706  1.00  0.00    -0.369 A  
HETATM   16  O   UNL     1     -10.361   5.908  71.979  1.00  0.00    -0.197 OA 
HETATM   17  H   UNL     1     -11.234   5.545  72.070  1.00  0.00     0.000 HD 
HETATM   18  C   UNL     1      -9.672   5.127  68.483  1.00  0.00    -0.205 A  
ENDBRANCH   6   9
ENDBRANCH   2   6
TORSDOF 2
ENDMDL
MODEL      263
REMARK 921   NORMALIZED FREE ENERGY PREDICTED BY IDOCK:   -1.79 KCAL/MOL
REMARK 922        TOTAL FREE ENERGY PREDICTED BY IDOCK:   -2.21 KCAL/MOL
REMARK 923 INTER-LIGAND FREE ENERGY PREDICTED BY IDOCK:   -2.34 KCAL/MOL
REMARK 924 INTRA-LIGAND FREE ENERGY PREDICTED BY IDOCK:    0.13 KCAL/MOL
REMARK 927      BINDING AFFINITY PREDICTED BY RF-SCORE:    0.00 PKD
ROOT
HETATM    1  C   UNL     1     -12.809   7.996  71.296  1.00  0.00    -0.221 C  
HETATM    2  C   UNL     1     -11.757   6.935  70.955  1.00  0.00    -0.345 C  
HETATM    3  N   UNL     1     -10.814   6.836  72.090  1.00  0.00    -0.221 NA 
HETATM    4  H1  UNL     1     -10.114   6.130  71.863  1.00  0.00     0.000 HD 
HETATM    5  H2  UNL     1     -11.285   6.653  72.976  1.00  0.00     0.000 HD 
ENDROOT
BRANCH   2   6
HETATM    6  C   UNL     1     -10.974   7.239  69.642  1.00  0.00    -0.186 C  
HETATM    7  H   UNL     1     -10.717   6.375  67.887  1.00  0.00     0.000 HD 
HETATM    8  O   UNL     1     -11.193   6.190  68.687  1.00  0.00    -0.356 OA 
BRANCH   6   9
HETATM    9  C   UNL     1      -9.486   7.442  69.862  1.00  0.00    -0.153 A  
HETATM   10  C   UNL     1      -8.976   8.657  70.356  1.00  0.00    -0.173 A  
HETATM   11  C   UNL     1      -7.602   8.823  70.504  1.00  0.00    -0.085 A  
HETATM   12  O   UNL     1      -7.063   9.992  70.964  1.00  0.00    -0.325 OA 
HETATM   13  C   UNL     1      -6.729   7.793  70.171  1.00  0.00    -0.041 A  
HETATM   14  H   UNL     1      -6.125  10.106  71.065  1.00  0.00     0.000 HD 
HETATM   15  C   UNL     1      -7.209   6.584  69.691  1.00  0.00    -0.078 A  
HETATM   16  O   UNL     1      -5.382   7.969  70.311  1.00  0.00    -0.023 OA 
HETATM   17  H   UNL     1      -4.786   7.266  70.084  1.00  0.00     0.000 HD 
HETATM   18  C   UNL     1      -8.587   6.410  69.533  1.00  0.00    -0.133 A  
ENDBRANCH   6   9
ENDBRANCH   2   6
TORSDOF 2
ENDMDL
MODEL      264
REMARK 921   NORMALIZED FREE ENERGY PREDICTED BY IDOCK:   -1.79 KCAL/MOL
REMARK 922        TOTAL FREE ENERGY PREDICTED BY IDOCK:   -2.21 KCAL/MOL
REMARK 923 INTER-LIGAND FREE ENERGY PREDICTED BY IDOCK:   -2.15 KCAL/MOL
REMARK 924 INTRA-LIGAND FREE ENERGY PREDICTED BY IDOCK:   -0.06 KCAL/MOL
REMARK 927      BINDING AFFINITY PREDICTED BY RF-SCORE:    0.00 PKD
ROOT
HETATM    1  C   UNL     1      -9.526  10.381  69.066  1.00  0.00    -0.205 C  
HETATM    2  C   UNL     1     -10.474  11.518  68.671  1.00  0.00    -0.202 C  
HETATM    3  N   UNL     1     -11.099  12.050  69.900  1.00  0.00    -0.461 NA 
HETATM    4  H1  UNL     1     -11.730  12.807  69.636  1.00  0.00     0.000 HD 
HETATM    5  H2  UNL     1     -10.411  12.337  70.597  1.00  0.00     0.000 HD 
ENDROOT
BRANCH   2   6
HETATM    6  C   UNL     1     -11.580  11.078  67.663  1.00  0.00    -0.143 C  
HETATM    7  H   UNL     1     -12.826   9.562  67.465  1.00  0.00     0.000 HD 
HETATM    8  O   UNL     1     -12.152   9.829  68.078  1.00  0.00     1.088 OA 
BRANCH   6   9
HETATM    9  C   UNL     1     -11.084  10.976  66.233  1.00  0.00    -0.106 A  
HETATM   10  C   UNL     1     -10.345   9.863  65.789  1.00  0.00    -0.155 A  
HETATM   11  C   UNL     1      -9.867   9.824  64.483  1.00  0.00     0.083 A  
HETATM   12  O   UNL     1      -9.132   8.770  64.016  1.00  0.00    -0.376 OA 
HETATM   13  C   UNL     1     -10.121  10.876  63.609  1.00  0.00    -0.355 A  
HETATM   14  H   UNL     1      -8.806   8.743  63.124  1.00  0.00     0.000 HD 
HETATM   15  C   UNL     1     -10.853  11.979  64.021  1.00  0.00    -0.433 A  
HETATM   16  O   UNL     1      -9.639  10.831  62.332  1.00  0.00    -0.513 OA 
HETATM   17  H   UNL     1      -9.812  11.550  61.736  1.00  0.00     0.000 HD 
HETATM   18  C   UNL     1     -11.332  12.030  65.333  1.00  0.00    -0.375 A  
ENDBRANCH   6   9
ENDBRANCH   2   6
TORSDOF 2
ENDMDL
MODEL      265
REMARK 921   NORMALIZED FREE ENERGY PREDICTED BY IDOCK:   -1.77 KCAL/MOL
REMARK 922        TOTAL FREE ENERGY PREDICTED BY IDOCK:   -2.19 KCAL/MOL
REMARK 923 INTER-LIGAND FREE ENERGY PREDICTED BY IDOCK:   -2.20 KCAL/MOL
REMARK 924 INTRA-LIGAND FREE ENERGY PREDICTED BY IDOCK:    0.01 KCAL/MOL
REMARK 927      BINDING AFFINITY PREDICTED BY RF-SCORE:    0.00 PKD
ROOT
HETATM    1  C   UNL     1      -8.151   6.246  64.228  1.00  0.00    -0.080 C  
HETATM    2  C   UNL     1      -7.389   7.545  64.512  1.00  0.00    -0.087 C  
HETATM    3  N   UNL     1      -6.395   7.278  65.573  1.00  0.00    -0.037 NA 
HETATM    4  H1  UNL     1      -5.889   8.143  65.762  1.00  0.00     0.000 HD 
HETATM    5  H2  UNL     1      -5.776   6.501  65.344  1.00  0.00     0.000 HD 
ENDROOT
BRANCH   2   6
HETATM    6  C   UNL     1      -8.315   8.725  64.939  1.00  0.00    -0.170 C  
HETATM    7  H   UNL     1      -8.241  10.696  64.910  1.00  0.00     0.000 HD 
HETATM    8  O   UNL     1      -7.677   9.978  64.650  1.00  0.00    -0.138 OA 
BRANCH   6   9
HETATM    9  C   UNL     1      -8.722   8.671  66.401  1.00  0.00    -0.150 A  
HETATM   10  C   UNL     1      -9.788   7.863  66.836  1.00  0.00    -0.309 A  
HETATM   11  C   UNL     1     -10.162   7.872  68.177  1.00  0.00    -0.205 A  
HETATM   12  O   UNL     1     -11.203   7.116  68.640  1.00  0.00    -0.468 OA 
HETATM   13  C   UNL     1      -9.484   8.671  69.091  1.00  0.00    -0.157 A  
HETATM   14  H   UNL     1     -11.458   7.122  69.555  1.00  0.00     0.000 HD 
HETATM   15  C   UNL     1      -8.425   9.469  68.687  1.00  0.00    -0.119 A  
HETATM   16  O   UNL     1      -9.865   8.679  70.402  1.00  0.00    -0.175 OA 
HETATM   17  H   UNL     1      -9.402   9.225  71.026  1.00  0.00     0.000 HD 
HETATM   18  C   UNL     1      -8.046   9.471  67.341  1.00  0.00    -0.110 A  
ENDBRANCH   6   9
ENDBRANCH   2   6
TORSDOF 2
ENDMDL
MODEL      266
REMARK 921   NORMALIZED FREE ENERGY PREDICTED BY IDOCK:   -1.75 KCAL/MOL
REMARK 922        TOTAL FREE ENERGY PREDICTED BY IDOCK:   -2.17 KCAL/MOL
REMARK 923 INTER-LIGAND FREE ENERGY PREDICTED BY IDOCK:   -2.14 KCAL/MOL
REMARK 924 INTRA-LIGAND FREE ENERGY PREDICTED BY IDOCK:   -0.03 KCAL/MOL
REMARK 927      BINDING AFFINITY PREDICTED BY RF-SCORE:    0.00 PKD
ROOT
HETATM    1  C   UNL     1      -6.628   8.179  73.286  1.00  0.00    -0.115 C  
HETATM    2  C   UNL     1      -6.866   8.503  71.808  1.00  0.00    -0.086 C  
HETATM    3  N   UNL     1      -6.347   9.861  71.541  1.00  0.00    -0.313 NA 
HETATM    4  H1  UNL     1      -6.505  10.077  70.557  1.00  0.00     0.000 HD 
HETATM    5  H2  UNL     1      -5.370   9.969  71.815  1.00  0.00     0.000 HD 
ENDROOT
BRANCH   2   6
HETATM    6  C   UNL     1      -8.366   8.419  71.389  1.00  0.00    -0.145 C  
HETATM    7  H   UNL     1     -10.111   8.875  72.189  1.00  0.00     0.000 HD 
HETATM    8  O   UNL     1      -9.198   8.925  72.444  1.00  0.00    -0.362 OA 
BRANCH   6   9
HETATM    9  C   UNL     1      -8.805   7.018  71.005  1.00  0.00    -0.146 A  
HETATM   10  C   UNL     1      -8.820   5.970  71.943  1.00  0.00    -0.138 A  
HETATM   11  C   UNL     1      -9.185   4.688  71.544  1.00  0.00    -0.139 A  
HETATM   12  O   UNL     1      -9.198   3.637  72.419  1.00  0.00    -0.109 OA 
HETATM   13  C   UNL     1      -9.542   4.437  70.224  1.00  0.00    -0.193 A  
HETATM   14  H   UNL     1      -9.447   2.761  72.147  1.00  0.00     0.000 HD 
HETATM   15  C   UNL     1      -9.543   5.455  69.284  1.00  0.00    -0.198 A  
HETATM   16  O   UNL     1      -9.891   3.173  69.841  1.00  0.00    -0.052 OA 
HETATM   17  H   UNL     1     -10.135   3.001  68.939  1.00  0.00     0.000 HD 
HETATM   18  C   UNL     1      -9.172   6.745  69.673  1.00  0.00    -0.145 A  
ENDBRANCH   6   9
ENDBRANCH   2   6
TORSDOF 2
ENDMDL
MODEL      267
REMARK 921   NORMALIZED FREE ENERGY PREDICTED BY IDOCK:   -1.72 KCAL/MOL
REMARK 922        TOTAL FREE ENERGY PREDICTED BY IDOCK:   -2.13 KCAL/MOL
REMARK 923 INTER-LIGAND FREE ENERGY PREDICTED BY IDOCK:   -2.05 KCAL/MOL
REMARK 924 INTRA-LIGAND FREE ENERGY PREDICTED BY IDOCK:   -0.08 KCAL/MOL
REMARK 927      BINDING AFFINITY PREDICTED BY RF-SCORE:    0.00 PKD
ROOT
HETATM    1  C   UNL     1      -8.851   8.704  71.523  1.00  0.00    -0.285 C  
HETATM    2  C   UNL     1      -8.612   8.474  70.027  1.00  0.00    -0.134 C  
HETATM    3  N   UNL     1      -8.426   9.789  69.379  1.00  0.00    -0.144 NA 
HETATM    4  H1  UNL     1      -8.267   9.636  68.383  1.00  0.00     0.000 HD 
HETATM    5  H2  UNL     1      -7.686  10.341  69.815  1.00  0.00     0.000 HD 
ENDROOT
BRANCH   2   6
HETATM    6  C   UNL     1      -9.771   7.699  69.327  1.00  0.00    -0.164 C  
HETATM    7  H   UNL     1     -11.721   7.512  69.557  1.00  0.00     0.000 HD 
HETATM    8  O   UNL     1     -11.016   7.983  69.983  1.00  0.00    -0.249 OA 
BRANCH   6   9
HETATM    9  C   UNL     1      -9.541   6.200  69.268  1.00  0.00    -0.153 A  
HETATM   10  C   UNL     1      -9.330   5.443  70.436  1.00  0.00    -0.203 A  
HETATM   11  C   UNL     1      -9.078   4.078  70.341  1.00  0.00    -0.114 A  
HETATM   12  O   UNL     1      -8.852   3.308  71.448  1.00  0.00    -0.078 OA 
HETATM   13  C   UNL     1      -9.040   3.455  69.098  1.00  0.00    -0.142 A  
HETATM   14  H   UNL     1      -8.680   2.376  71.383  1.00  0.00     0.000 HD 
HETATM   15  C   UNL     1      -9.253   4.178  67.935  1.00  0.00    -0.191 A  
HETATM   16  O   UNL     1      -8.783   2.116  69.015  1.00  0.00    -0.064 OA 
HETATM   17  H   UNL     1      -8.757   1.690  68.167  1.00  0.00     0.000 HD 
HETATM   18  C   UNL     1      -9.500   5.551  68.020  1.00  0.00    -0.129 A  
ENDBRANCH   6   9
ENDBRANCH   2   6
TORSDOF 2
ENDMDL
MODEL      268
REMARK 921   NORMALIZED FREE ENERGY PREDICTED BY IDOCK:   -1.71 KCAL/MOL
REMARK 922        TOTAL FREE ENERGY PREDICTED BY IDOCK:   -2.12 KCAL/MOL
REMARK 923 INTER-LIGAND FREE ENERGY PREDICTED BY IDOCK:   -2.16 KCAL/MOL
REMARK 924 INTRA-LIGAND FREE ENERGY PREDICTED BY IDOCK:    0.04 KCAL/MOL
REMARK 927      BINDING AFFINITY PREDICTED BY RF-SCORE:    0.00 PKD
ROOT
HETATM    1  C   UNL     1      -8.309   8.930  67.110  1.00  0.00    -0.103 C  
HETATM    2  C   UNL     1      -9.287   7.905  67.694  1.00  0.00    -0.143 C  
HETATM    3  N   UNL     1      -8.524   6.971  68.549  1.00  0.00    -0.121 NA 
HETATM    4  H1  UNL     1      -9.175   6.289  68.938  1.00  0.00     0.000 HD 
HETATM    5  H2  UNL     1      -7.981   7.450  69.267  1.00  0.00     0.000 HD 
ENDROOT
BRANCH   2   6
HETATM    6  C   UNL     1     -10.071   7.108  66.607  1.00  0.00    -0.159 C  
HETATM    7  H   UNL     1     -11.876   6.337  66.410  1.00  0.00     0.000 HD 
HETATM    8  O   UNL     1     -11.398   6.822  67.072  1.00  0.00    -0.337 OA 
BRANCH   6   9
HETATM    9  C   UNL     1      -9.377   5.825  66.186  1.00  0.00    -0.160 A  
HETATM   10  C   UNL     1      -9.863   4.564  66.581  1.00  0.00    -0.244 A  
HETATM   11  C   UNL     1      -9.176   3.411  66.214  1.00  0.00    -0.159 A  
HETATM   12  O   UNL     1      -9.603   2.168  66.590  1.00  0.00    -0.366 OA 
HETATM   13  C   UNL     1      -8.014   3.496  65.454  1.00  0.00    -0.090 A  
HETATM   14  H   UNL     1      -9.134   1.380  66.339  1.00  0.00     0.000 HD 
HETATM   15  C   UNL     1      -7.522   4.726  65.046  1.00  0.00    -0.076 A  
HETATM   16  O   UNL     1      -7.343   2.358  65.106  1.00  0.00    -0.060 OA 
HETATM   17  H   UNL     1      -6.550   2.416  64.587  1.00  0.00     0.000 HD 
HETATM   18  C   UNL     1      -8.202   5.890  65.415  1.00  0.00    -0.139 A  
ENDBRANCH   6   9
ENDBRANCH   2   6
TORSDOF 2
ENDMDL
MODEL      269
REMARK 921   NORMALIZED FREE ENERGY PREDICTED BY IDOCK:   -1.68 KCAL/MOL
REMARK 922        TOTAL FREE ENERGY PREDICTED BY IDOCK:   -2.09 KCAL/MOL
REMARK 923 INTER-LIGAND FREE ENERGY PREDICTED BY IDOCK:   -1.91 KCAL/MOL
REMARK 924 INTRA-LIGAND FREE ENERGY PREDICTED BY IDOCK:   -0.18 KCAL/MOL
REMARK 927      BINDING AFFINITY PREDICTED BY RF-SCORE:    0.00 PKD
ROOT
HETATM    1  C   UNL     1     -10.621   6.892  68.800  1.00  0.00    -0.247 C  
HETATM    2  C   UNL     1      -9.278   7.499  69.221  1.00  0.00    -0.144 C  
HETATM    3  N   UNL     1      -9.062   7.199  70.652  1.00  0.00    -0.157 NA 
HETATM    4  H1  UNL     1      -8.168   7.603  70.931  1.00  0.00     0.000 HD 
HETATM    5  H2  UNL     1      -9.125   6.202  70.858  1.00  0.00     0.000 HD 
ENDROOT
BRANCH   2   6
HETATM    6  C   UNL     1      -9.193   9.038  68.984  1.00  0.00    -0.140 C  
HETATM    7  H   UNL     1     -10.452  10.555  68.911  1.00  0.00     0.000 HD 
HETATM    8  O   UNL     1     -10.504   9.618  69.055  1.00  0.00    -0.200 OA 
BRANCH   6   9
HETATM    9  C   UNL     1      -8.529   9.407  67.670  1.00  0.00    -0.119 A  
HETATM   10  C   UNL     1      -7.974   8.427  66.826  1.00  0.00    -0.098 A  
HETATM   11  C   UNL     1      -7.333   8.806  65.651  1.00  0.00    -0.085 A  
HETATM   12  O   UNL     1      -6.767   7.888  64.810  1.00  0.00    -0.051 OA 
HETATM   13  C   UNL     1      -7.242  10.149  65.301  1.00  0.00    -0.141 A  
HETATM   14  H   UNL     1      -6.329   8.147  64.007  1.00  0.00     0.000 HD 
HETATM   15  C   UNL     1      -7.787  11.132  66.112  1.00  0.00    -0.072 A  
HETATM   16  O   UNL     1      -6.603  10.511  64.149  1.00  0.00    -0.328 OA 
HETATM   17  H   UNL     1      -6.540  11.428  63.911  1.00  0.00     0.000 HD 
HETATM   18  C   UNL     1      -8.427  10.761  67.298  1.00  0.00    -0.124 A  
ENDBRANCH   6   9
ENDBRANCH   2   6
TORSDOF 2
ENDMDL
MODEL      270
REMARK 921   NORMALIZED FREE ENERGY PREDICTED BY IDOCK:   -1.60 KCAL/MOL
REMARK 922        TOTAL FREE ENERGY PREDICTED BY IDOCK:   -2.00 KCAL/MOL
REMARK 923 INTER-LIGAND FREE ENERGY PREDICTED BY IDOCK:   -1.81 KCAL/MOL
REMARK 924 INTRA-LIGAND FREE ENERGY PREDICTED BY IDOCK:   -0.19 KCAL/MOL
REMARK 927      BINDING AFFINITY PREDICTED BY RF-SCORE:    0.00 PKD
ROOT
HETATM    1  C   UNL     1      -8.651   5.117  66.865  1.00  0.00    -0.105 C  
HETATM    2  C   UNL     1      -7.936   6.298  66.202  1.00  0.00    -0.112 C  
HETATM    3  N   UNL     1      -7.095   5.775  65.105  1.00  0.00    -0.063 NA 
HETATM    4  H1  UNL     1      -6.620   6.561  64.663  1.00  0.00     0.000 HD 
HETATM    5  H2  UNL     1      -7.625   5.211  64.439  1.00  0.00     0.000 HD 
ENDROOT
BRANCH   2   6
HETATM    6  C   UNL     1      -7.060   7.126  67.191  1.00  0.00    -0.087 C  
HETATM    7  H   UNL     1      -6.754   7.186  69.139  1.00  0.00     0.000 HD 
HETATM    8  O   UNL     1      -7.288   6.682  68.537  1.00  0.00    -0.083 OA 
BRANCH   6   9
HETATM    9  C   UNL     1      -7.289   8.623  67.088  1.00  0.00    -0.088 A  
HETATM   10  C   UNL     1      -7.962   9.334  68.100  1.00  0.00    -0.099 A  
HETATM   11  C   UNL     1      -8.194  10.698  67.951  1.00  0.00    -0.112 A  
HETATM   12  O   UNL     1      -8.858  11.423  68.901  1.00  0.00    -0.329 OA 
HETATM   13  C   UNL     1      -7.759  11.365  66.811  1.00  0.00    -0.150 A  
HETATM   14  H   UNL     1      -9.016  12.355  68.800  1.00  0.00     0.000 HD 
HETATM   15  C   UNL     1      -7.087  10.688  65.806  1.00  0.00    -0.096 A  
HETATM   16  O   UNL     1      -8.000  12.703  66.672  1.00  0.00    -0.402 OA 
HETATM   17  H   UNL     1      -7.703  13.158  65.894  1.00  0.00     0.000 HD 
HETATM   18  C   UNL     1      -6.855   9.317  65.943  1.00  0.00    -0.088 A  
ENDBRANCH   6   9
ENDBRANCH   2   6
TORSDOF 2
ENDMDL
MODEL      271
REMARK 921   NORMALIZED FREE ENERGY PREDICTED BY IDOCK:   -1.56 KCAL/MOL
REMARK 922        TOTAL FREE ENERGY PREDICTED BY IDOCK:   -1.96 KCAL/MOL
REMARK 923 INTER-LIGAND FREE ENERGY PREDICTED BY IDOCK:   -1.81 KCAL/MOL
REMARK 924 INTRA-LIGAND FREE ENERGY PREDICTED BY IDOCK:   -0.14 KCAL/MOL
REMARK 927      BINDING AFFINITY PREDICTED BY RF-SCORE:    0.00 PKD
ROOT
HETATM    1  C   UNL     1      -7.908   3.509  64.955  1.00  0.00    -0.086 C  
HETATM    2  C   UNL     1      -9.149   3.393  65.846  1.00  0.00    -0.154 C  
HETATM    3  N   UNL     1     -10.210   2.709  65.078  1.00  0.00    -0.150 NA 
HETATM    4  H1  UNL     1     -11.036   2.632  65.671  1.00  0.00     0.000 HD 
HETATM    5  H2  UNL     1      -9.908   1.808  64.707  1.00  0.00     0.000 HD 
ENDROOT
BRANCH   2   6
HETATM    6  C   UNL     1      -9.672   4.770  66.360  1.00  0.00    -0.195 C  
HETATM    7  H   UNL     1      -9.492   6.664  65.838  1.00  0.00     0.000 HD 
HETATM    8  O   UNL     1      -9.174   5.826  65.525  1.00  0.00    -0.096 OA 
BRANCH   6   9
HETATM    9  C   UNL     1      -9.322   5.042  67.811  1.00  0.00    -0.146 A  
HETATM   10  C   UNL     1     -10.151   5.830  68.631  1.00  0.00    -0.227 A  
HETATM   11  C   UNL     1      -9.776   6.096  69.945  1.00  0.00    -0.163 A  
HETATM   12  O   UNL     1     -10.543   6.870  70.771  1.00  0.00    -0.214 OA 
HETATM   13  C   UNL     1      -8.589   5.582  70.455  1.00  0.00    -0.124 A  
HETATM   14  H   UNL     1     -10.287   7.052  71.668  1.00  0.00     0.000 HD 
HETATM   15  C   UNL     1      -7.760   4.796  69.669  1.00  0.00    -0.059 A  
HETATM   16  O   UNL     1      -8.226   5.856  71.743  1.00  0.00    -0.117 OA 
HETATM   17  H   UNL     1      -7.415   5.505  72.091  1.00  0.00     0.000 HD 
HETATM   18  C   UNL     1      -8.126   4.529  68.347  1.00  0.00    -0.082 A  
ENDBRANCH   6   9
ENDBRANCH   2   6
TORSDOF 2
ENDMDL
MODEL      272
REMARK 921   NORMALIZED FREE ENERGY PREDICTED BY IDOCK:   -1.35 KCAL/MOL
REMARK 922        TOTAL FREE ENERGY PREDICTED BY IDOCK:   -1.72 KCAL/MOL
REMARK 923 INTER-LIGAND FREE ENERGY PREDICTED BY IDOCK:   -1.81 KCAL/MOL
REMARK 924 INTRA-LIGAND FREE ENERGY PREDICTED BY IDOCK:    0.09 KCAL/MOL
REMARK 927      BINDING AFFINITY PREDICTED BY RF-SCORE:    0.00 PKD
ROOT
HETATM    1  C   UNL     1     -10.077  10.128  68.192  1.00  0.00    -0.178 C  
HETATM    2  C   UNL     1     -10.349   9.596  66.781  1.00  0.00    -0.222 C  
HETATM    3  N   UNL     1     -10.027   8.154  66.759  1.00  0.00    -0.257 NA 
HETATM    4  H1  UNL     1     -10.209   7.800  65.820  1.00  0.00     0.000 HD 
HETATM    5  H2  UNL     1     -10.524   7.629  67.480  1.00  0.00     0.000 HD 
ENDROOT
BRANCH   2   6
HETATM    6  C   UNL     1      -9.539  10.336  65.673  1.00  0.00    -0.232 C  
HETATM    7  H   UNL     1      -8.088   9.892  64.412  1.00  0.00     0.000 HD 
HETATM    8  O   UNL     1      -8.582   9.441  65.087  1.00  0.00    -0.146 OA 
BRANCH   6   9
HETATM    9  C   UNL     1      -8.844  11.590  66.172  1.00  0.00    -0.167 A  
HETATM   10  C   UNL     1      -7.480  11.585  66.518  1.00  0.00    -0.022 A  
HETATM   11  C   UNL     1      -6.887  12.742  67.015  1.00  0.00     0.190 A  
HETATM   12  O   UNL     1      -5.570  12.778  67.378  1.00  0.00    -0.232 OA 
HETATM   13  C   UNL     1      -7.634  13.906  67.167  1.00  0.00     0.070 A  
HETATM   14  H   UNL     1      -5.165  13.567  67.718  1.00  0.00     0.000 HD 
HETATM   15  C   UNL     1      -8.977  13.936  66.826  1.00  0.00    -0.206 A  
HETATM   16  O   UNL     1      -7.044  15.033  67.664  1.00  0.00    -0.151 OA 
HETATM   17  H   UNL     1      -7.554  15.827  67.768  1.00  0.00     0.000 HD 
HETATM   18  C   UNL     1      -9.582  12.778  66.331  1.00  0.00    -0.254 A  
ENDBRANCH   6   9
ENDBRANCH   2   6
TORSDOF 2
ENDMDL
MODEL      273
REMARK 921   NORMALIZED FREE ENERGY PREDICTED BY IDOCK:   -1.31 KCAL/MOL
REMARK 922        TOTAL FREE ENERGY PREDICTED BY IDOCK:   -1.67 KCAL/MOL
REMARK 923 INTER-LIGAND FREE ENERGY PREDICTED BY IDOCK:   -1.79 KCAL/MOL
REMARK 924 INTRA-LIGAND FREE ENERGY PREDICTED BY IDOCK:    0.12 KCAL/MOL
REMARK 927      BINDING AFFINITY PREDICTED BY RF-SCORE:    0.00 PKD
ROOT
HETATM    1  C   UNL     1      -6.115   4.965  70.001  1.00  0.00    -0.021 C  
HETATM    2  C   UNL     1      -6.762   5.342  71.338  1.00  0.00    -0.052 C  
HETATM    3  N   UNL     1      -8.073   4.664  71.426  1.00  0.00    -0.098 NA 
HETATM    4  H1  UNL     1      -8.503   4.915  72.316  1.00  0.00     0.000 HD 
HETATM    5  H2  UNL     1      -8.002   3.655  71.295  1.00  0.00     0.000 HD 
ENDROOT
BRANCH   2   6
HETATM    6  C   UNL     1      -6.949   6.879  71.523  1.00  0.00    -0.066 C  
HETATM    7  H   UNL     1      -7.379   8.109  73.005  1.00  0.00     0.000 HD 
HETATM    8  O   UNL     1      -7.266   7.173  72.892  1.00  0.00    -0.072 OA 
BRANCH   6   9
HETATM    9  C   UNL     1      -8.002   7.472  70.605  1.00  0.00    -0.100 A  
HETATM   10  C   UNL     1      -7.654   8.077  69.382  1.00  0.00    -0.102 A  
HETATM   11  C   UNL     1      -8.641   8.650  68.587  1.00  0.00    -0.131 A  
HETATM   12  O   UNL     1      -8.346   9.262  67.400  1.00  0.00    -0.120 OA 
HETATM   13  C   UNL     1      -9.973   8.623  68.989  1.00  0.00    -0.192 A  
HETATM   14  H   UNL     1      -9.020   9.653  66.857  1.00  0.00     0.000 HD 
HETATM   15  C   UNL     1     -10.340   8.026  70.184  1.00  0.00    -0.215 A  
HETATM   16  O   UNL     1     -10.933   9.196  68.204  1.00  0.00    -0.466 OA 
HETATM   17  H   UNL     1     -11.842   9.178  68.479  1.00  0.00     0.000 HD 
HETATM   18  C   UNL     1      -9.355   7.453  70.993  1.00  0.00    -0.157 A  
ENDBRANCH   6   9
ENDBRANCH   2   6
TORSDOF 2
ENDMDL
MODEL      274
REMARK 921   NORMALIZED FREE ENERGY PREDICTED BY IDOCK:   -1.22 KCAL/MOL
REMARK 922        TOTAL FREE ENERGY PREDICTED BY IDOCK:   -1.57 KCAL/MOL
REMARK 923 INTER-LIGAND FREE ENERGY PREDICTED BY IDOCK:   -1.80 KCAL/MOL
REMARK 924 INTRA-LIGAND FREE ENERGY PREDICTED BY IDOCK:    0.23 KCAL/MOL
REMARK 927      BINDING AFFINITY PREDICTED BY RF-SCORE:    0.00 PKD
ROOT
HETATM    1  C   UNL     1     -10.051   4.911  68.425  1.00  0.00    -0.148 C  
HETATM    2  C   UNL     1      -9.110   4.499  67.288  1.00  0.00    -0.127 C  
HETATM    3  N   UNL     1      -7.810   4.115  67.878  1.00  0.00    -0.078 NA 
HETATM    4  H1  UNL     1      -7.184   3.840  67.121  1.00  0.00     0.000 HD 
HETATM    5  H2  UNL     1      -7.902   3.394  68.594  1.00  0.00     0.000 HD 
ENDROOT
BRANCH   2   6
HETATM    6  C   UNL     1      -8.897   5.618  66.223  1.00  0.00    -0.137 C  
HETATM    7  H   UNL     1      -7.547   6.067  64.857  1.00  0.00     0.000 HD 
HETATM    8  O   UNL     1      -7.677   5.386  65.505  1.00  0.00    -0.087 OA 
BRANCH   6   9
HETATM    9  C   UNL     1      -8.898   7.017  66.814  1.00  0.00    -0.130 A  
HETATM   10  C   UNL     1      -9.733   8.028  66.304  1.00  0.00    -0.197 A  
HETATM   11  C   UNL     1      -9.675   9.311  66.841  1.00  0.00    -0.190 A  
HETATM   12  O   UNL     1     -10.457  10.327  66.366  1.00  0.00    -0.224 OA 
HETATM   13  C   UNL     1      -8.799   9.599  67.882  1.00  0.00    -0.119 A  
HETATM   14  H   UNL     1     -10.417  11.203  66.732  1.00  0.00     0.000 HD 
HETATM   15  C   UNL     1      -7.973   8.617  68.406  1.00  0.00    -0.113 A  
HETATM   16  O   UNL     1      -8.744  10.863  68.396  1.00  0.00    -0.133 OA 
HETATM   17  H   UNL     1      -8.146  11.059  69.107  1.00  0.00     0.000 HD 
HETATM   18  C   UNL     1      -8.020   7.327  67.869  1.00  0.00    -0.119 A  
ENDBRANCH   6   9
ENDBRANCH   2   6
TORSDOF 2
ENDMDL
MODEL      275
REMARK 921   NORMALIZED FREE ENERGY PREDICTED BY IDOCK:   -1.16 KCAL/MOL
REMARK 922        TOTAL FREE ENERGY PREDICTED BY IDOCK:   -1.51 KCAL/MOL
REMARK 923 INTER-LIGAND FREE ENERGY PREDICTED BY IDOCK:   -2.47 KCAL/MOL
REMARK 924 INTRA-LIGAND FREE ENERGY PREDICTED BY IDOCK:    0.96 KCAL/MOL
REMARK 927      BINDING AFFINITY PREDICTED BY RF-SCORE:    0.00 PKD
ROOT
HETATM    1  C   UNL     1     -11.213   8.680  72.097  1.00  0.00    -0.438 C  
HETATM    2  C   UNL     1     -10.177   8.811  70.976  1.00  0.00    -0.237 C  
HETATM    3  N   UNL     1     -10.326  10.147  70.361  1.00  0.00    -0.416 NA 
HETATM    4  H1  UNL     1      -9.636  10.233  69.614  1.00  0.00     0.000 HD 
HETATM    5  H2  UNL     1     -10.264  10.902  71.043  1.00  0.00     0.000 HD 
ENDROOT
BRANCH   2   6
HETATM    6  C   UNL     1     -10.307   7.707  69.882  1.00  0.00    -0.225 C  
HETATM    7  H   UNL     1      -9.989   5.765  69.753  1.00  0.00     0.000 HD 
HETATM    8  O   UNL     1      -9.910   6.437  70.419  1.00  0.00    -0.167 OA 
BRANCH   6   9
HETATM    9  C   UNL     1      -9.515   8.013  68.624  1.00  0.00    -0.147 A  
HETATM   10  C   UNL     1      -9.294   9.336  68.198  1.00  0.00    -0.143 A  
HETATM   11  C   UNL     1      -8.602   9.577  67.015  1.00  0.00    -0.128 A  
HETATM   12  O   UNL     1      -8.380  10.846  66.556  1.00  0.00    -0.143 OA 
HETATM   13  C   UNL     1      -8.121   8.518  66.253  1.00  0.00    -0.107 A  
HETATM   14  H   UNL     1      -7.907  11.011  65.749  1.00  0.00     0.000 HD 
HETATM   15  C   UNL     1      -8.319   7.207  66.656  1.00  0.00    -0.114 A  
HETATM   16  O   UNL     1      -7.450   8.766  65.089  1.00  0.00    -0.087 OA 
HETATM   17  H   UNL     1      -7.122   8.043  64.569  1.00  0.00     0.000 HD 
HETATM   18  C   UNL     1      -9.018   6.955  67.840  1.00  0.00    -0.121 A  
ENDBRANCH   6   9
ENDBRANCH   2   6
TORSDOF 2
ENDMDL
MODEL      276
REMARK 921   NORMALIZED FREE ENERGY PREDICTED BY IDOCK:   -1.13 KCAL/MOL
REMARK 922        TOTAL FREE ENERGY PREDICTED BY IDOCK:   -1.47 KCAL/MOL
REMARK 923 INTER-LIGAND FREE ENERGY PREDICTED BY IDOCK:   -1.45 KCAL/MOL
REMARK 924 INTRA-LIGAND FREE ENERGY PREDICTED BY IDOCK:   -0.02 KCAL/MOL
REMARK 927      BINDING AFFINITY PREDICTED BY RF-SCORE:    0.00 PKD
ROOT
HETATM    1  C   UNL     1      -8.027   4.209  65.230  1.00  0.00    -0.097 C  
HETATM    2  C   UNL     1      -8.729   5.569  65.311  1.00  0.00    -0.136 C  
HETATM    3  N   UNL     1      -7.695   6.619  65.428  1.00  0.00    -0.093 NA 
HETATM    4  H1  UNL     1      -8.163   7.523  65.482  1.00  0.00     0.000 HD 
HETATM    5  H2  UNL     1      -7.006   6.576  64.677  1.00  0.00     0.000 HD 
ENDROOT
BRANCH   2   6
HETATM    6  C   UNL     1      -9.730   5.678  66.502  1.00  0.00    -0.160 C  
HETATM    7  H   UNL     1     -10.593   7.125  67.529  1.00  0.00     0.000 HD 
HETATM    8  O   UNL     1      -9.983   7.058  66.804  1.00  0.00    -0.196 OA 
BRANCH   6   9
HETATM    9  C   UNL     1      -9.264   4.947  67.748  1.00  0.00    -0.138 A  
HETATM   10  C   UNL     1      -8.299   5.504  68.608  1.00  0.00    -0.101 A  
HETATM   11  C   UNL     1      -7.862   4.787  69.717  1.00  0.00    -0.066 A  
HETATM   12  O   UNL     1      -6.915   5.283  70.569  1.00  0.00    -0.049 OA 
HETATM   13  C   UNL     1      -8.378   3.523  69.985  1.00  0.00    -0.052 A  
HETATM   14  H   UNL     1      -6.617   4.793  71.327  1.00  0.00     0.000 HD 
HETATM   15  C   UNL     1      -9.335   2.958  69.158  1.00  0.00    -0.211 A  
HETATM   16  O   UNL     1      -7.936   2.824  71.072  1.00  0.00    -0.049 OA 
HETATM   17  H   UNL     1      -8.288   1.961  71.255  1.00  0.00     0.000 HD 
HETATM   18  C   UNL     1      -9.775   3.668  68.038  1.00  0.00    -0.105 A  
ENDBRANCH   6   9
ENDBRANCH   2   6
TORSDOF 2
ENDMDL
MODEL      277
REMARK 921   NORMALIZED FREE ENERGY PREDICTED BY IDOCK:   -1.12 KCAL/MOL
REMARK 922        TOTAL FREE ENERGY PREDICTED BY IDOCK:   -1.46 KCAL/MOL
REMARK 923 INTER-LIGAND FREE ENERGY PREDICTED BY IDOCK:   -1.58 KCAL/MOL
REMARK 924 INTRA-LIGAND FREE ENERGY PREDICTED BY IDOCK:    0.13 KCAL/MOL
REMARK 927      BINDING AFFINITY PREDICTED BY RF-SCORE:    0.00 PKD
ROOT
HETATM    1  C   UNL     1     -10.243  10.673  68.834  1.00  0.00    -0.216 C  
HETATM    2  C   UNL     1     -10.557  11.058  67.385  1.00  0.00    -0.237 C  
HETATM    3  N   UNL     1     -11.032   9.851  66.676  1.00  0.00     0.044 NA 
HETATM    4  H1  UNL     1     -11.241  10.108  65.711  1.00  0.00     0.000 HD 
HETATM    5  H2  UNL     1     -11.821   9.406  67.144  1.00  0.00     0.000 HD 
ENDROOT
BRANCH   2   6
HETATM    6  C   UNL     1      -9.337  11.670  66.629  1.00  0.00    -0.194 C  
HETATM    7  H   UNL     1      -9.044  12.737  64.996  1.00  0.00     0.000 HD 
HETATM    8  O   UNL     1      -9.787  12.365  65.456  1.00  0.00    -0.253 OA 
BRANCH   6   9
HETATM    9  C   UNL     1      -8.285  10.642  66.256  1.00  0.00    -0.153 A  
HETATM   10  C   UNL     1      -8.027  10.309  64.913  1.00  0.00    -0.146 A  
HETATM   11  C   UNL     1      -7.086   9.329  64.611  1.00  0.00    -0.096 A  
HETATM   12  O   UNL     1      -6.816   8.963  63.321  1.00  0.00    -0.090 OA 
HETATM   13  C   UNL     1      -6.393   8.681  65.628  1.00  0.00    -0.056 A  
HETATM   14  H   UNL     1      -6.174   8.294  63.114  1.00  0.00     0.000 HD 
HETATM   15  C   UNL     1      -6.624   8.998  66.957  1.00  0.00    -0.061 A  
HETATM   16  O   UNL     1      -5.478   7.715  65.320  1.00  0.00    -0.032 OA 
HETATM   17  H   UNL     1      -5.005   7.272  66.014  1.00  0.00     0.000 HD 
HETATM   18  C   UNL     1      -7.572   9.976  67.271  1.00  0.00    -0.095 A  
ENDBRANCH   6   9
ENDBRANCH   2   6
TORSDOF 2
ENDMDL
MODEL      278
REMARK 921   NORMALIZED FREE ENERGY PREDICTED BY IDOCK:   -1.08 KCAL/MOL
REMARK 922        TOTAL FREE ENERGY PREDICTED BY IDOCK:   -1.42 KCAL/MOL
REMARK 923 INTER-LIGAND FREE ENERGY PREDICTED BY IDOCK:   -1.38 KCAL/MOL
REMARK 924 INTRA-LIGAND FREE ENERGY PREDICTED BY IDOCK:   -0.04 KCAL/MOL
REMARK 927      BINDING AFFINITY PREDICTED BY RF-SCORE:    0.00 PKD
ROOT
HETATM    1  C   UNL     1      -5.210   9.220  68.165  1.00  0.00    -0.034 C  
HETATM    2  C   UNL     1      -5.713   8.108  67.239  1.00  0.00    -0.038 C  
HETATM    3  N   UNL     1      -5.698   8.617  65.852  1.00  0.00    -0.046 NA 
HETATM    4  H1  UNL     1      -6.033   7.877  65.236  1.00  0.00     0.000 HD 
HETATM    5  H2  UNL     1      -4.784   8.976  65.575  1.00  0.00     0.000 HD 
ENDROOT
BRANCH   2   6
HETATM    6  C   UNL     1      -7.142   7.600  67.601  1.00  0.00    -0.085 C  
HETATM    7  H   UNL     1      -8.123   7.109  69.241  1.00  0.00     0.000 HD 
HETATM    8  O   UNL     1      -7.253   7.418  69.021  1.00  0.00    -0.080 OA 
BRANCH   6   9
HETATM    9  C   UNL     1      -7.526   6.321  66.879  1.00  0.00    -0.087 A  
HETATM   10  C   UNL     1      -8.873   5.945  66.719  1.00  0.00    -0.118 A  
HETATM   11  C   UNL     1      -9.186   4.743  66.091  1.00  0.00    -0.144 A  
HETATM   12  O   UNL     1     -10.480   4.331  65.929  1.00  0.00    -0.444 OA 
HETATM   13  C   UNL     1      -8.176   3.913  65.615  1.00  0.00    -0.105 A  
HETATM   14  H   UNL     1     -10.694   3.510  65.500  1.00  0.00     0.000 HD 
HETATM   15  C   UNL     1      -6.843   4.267  65.755  1.00  0.00    -0.057 A  
HETATM   16  O   UNL     1      -8.495   2.732  65.009  1.00  0.00    -0.091 OA 
HETATM   17  H   UNL     1      -7.805   2.166  64.684  1.00  0.00     0.000 HD 
HETATM   18  C   UNL     1      -6.519   5.469  66.389  1.00  0.00    -0.047 A  
ENDBRANCH   6   9
ENDBRANCH   2   6
TORSDOF 2
ENDMDL
MODEL      279
REMARK 921   NORMALIZED FREE ENERGY PREDICTED BY IDOCK:   -1.04 KCAL/MOL
REMARK 922        TOTAL FREE ENERGY PREDICTED BY IDOCK:   -1.37 KCAL/MOL
REMARK 923 INTER-LIGAND FREE ENERGY PREDICTED BY IDOCK:   -1.42 KCAL/MOL
REMARK 924 INTRA-LIGAND FREE ENERGY PREDICTED BY IDOCK:    0.05 KCAL/MOL
REMARK 927      BINDING AFFINITY PREDICTED BY RF-SCORE:    0.00 PKD
ROOT
HETATM    1  C   UNL     1      -7.060   1.856  64.493  1.00  0.00    -0.051 C  
HETATM    2  C   UNL     1      -7.237   3.366  64.300  1.00  0.00    -0.058 C  
HETATM    3  N   UNL     1      -6.184   4.059  65.072  1.00  0.00    -0.026 NA 
HETATM    4  H1  UNL     1      -6.303   5.064  64.943  1.00  0.00     0.000 HD 
HETATM    5  H2  UNL     1      -5.246   3.740  64.830  1.00  0.00     0.000 HD 
ENDROOT
BRANCH   2   6
HETATM    6  C   UNL     1      -8.641   3.885  64.737  1.00  0.00    -0.114 C  
HETATM    7  H   UNL     1      -9.764   5.469  64.386  1.00  0.00     0.000 HD 
HETATM    8  O   UNL     1      -8.909   5.153  64.120  1.00  0.00    -0.110 OA 
BRANCH   6   9
HETATM    9  C   UNL     1      -8.800   3.993  66.243  1.00  0.00    -0.121 A  
HETATM   10  C   UNL     1      -8.736   5.235  66.901  1.00  0.00    -0.111 A  
HETATM   11  C   UNL     1      -8.841   5.292  68.287  1.00  0.00    -0.104 A  
HETATM   12  O   UNL     1      -8.768   6.475  68.968  1.00  0.00    -0.127 OA 
HETATM   13  C   UNL     1      -9.015   4.127  69.028  1.00  0.00    -0.112 A  
HETATM   14  H   UNL     1      -8.839   6.514  69.915  1.00  0.00     0.000 HD 
HETATM   15  C   UNL     1      -9.089   2.893  68.401  1.00  0.00    -0.217 A  
HETATM   16  O   UNL     1      -9.108   4.193  70.389  1.00  0.00    -0.092 OA 
HETATM   17  H   UNL     1      -9.226   3.398  70.894  1.00  0.00     0.000 HD 
HETATM   18  C   UNL     1      -8.979   2.826  67.010  1.00  0.00    -0.177 A  
ENDBRANCH   6   9
ENDBRANCH   2   6
TORSDOF 2
ENDMDL
MODEL      280
REMARK 921   NORMALIZED FREE ENERGY PREDICTED BY IDOCK:   -0.88 KCAL/MOL
REMARK 922        TOTAL FREE ENERGY PREDICTED BY IDOCK:   -1.20 KCAL/MOL
REMARK 923 INTER-LIGAND FREE ENERGY PREDICTED BY IDOCK:   -1.19 KCAL/MOL
REMARK 924 INTRA-LIGAND FREE ENERGY PREDICTED BY IDOCK:   -0.00 KCAL/MOL
REMARK 927      BINDING AFFINITY PREDICTED BY RF-SCORE:    0.00 PKD
ROOT
HETATM    1  C   UNL     1      -7.375   2.148  64.811  1.00  0.00    -0.062 C  
HETATM    2  C   UNL     1      -7.806   3.557  64.391  1.00  0.00    -0.085 C  
HETATM    3  N   UNL     1      -6.596   4.400  64.286  1.00  0.00    -0.042 NA 
HETATM    4  H1  UNL     1      -6.884   5.338  64.006  1.00  0.00     0.000 HD 
HETATM    5  H2  UNL     1      -5.893   4.002  63.664  1.00  0.00     0.000 HD 
ENDROOT
BRANCH   2   6
HETATM    6  C   UNL     1      -8.823   4.212  65.375  1.00  0.00    -0.124 C  
HETATM    7  H   UNL     1      -9.559   6.014  65.695  1.00  0.00     0.000 HD 
HETATM    8  O   UNL     1      -8.939   5.615  65.097  1.00  0.00    -0.105 OA 
BRANCH   6   9
HETATM    9  C   UNL     1      -8.471   3.996  66.835  1.00  0.00    -0.101 A  
HETATM   10  C   UNL     1      -9.172   3.070  67.630  1.00  0.00    -0.240 A  
HETATM   11  C   UNL     1      -8.852   2.931  68.977  1.00  0.00    -0.098 A  
HETATM   12  O   UNL     1      -9.518   2.056  69.790  1.00  0.00    -0.111 OA 
HETATM   13  C   UNL     1      -7.838   3.697  69.542  1.00  0.00    -0.051 A  
HETATM   14  H   UNL     1      -9.300   1.960  70.709  1.00  0.00     0.000 HD 
HETATM   15  C   UNL     1      -7.129   4.609  68.777  1.00  0.00    -0.053 A  
HETATM   16  O   UNL     1      -7.538   3.559  70.867  1.00  0.00    -0.040 OA 
HETATM   17  H   UNL     1      -6.846   4.083  71.253  1.00  0.00     0.000 HD 
HETATM   18  C   UNL     1      -7.448   4.761  67.425  1.00  0.00    -0.082 A  
ENDBRANCH   6   9
ENDBRANCH   2   6
TORSDOF 2
ENDMDL
MODEL      281
REMARK 921   NORMALIZED FREE ENERGY PREDICTED BY IDOCK:   -0.83 KCAL/MOL
REMARK 922        TOTAL FREE ENERGY PREDICTED BY IDOCK:   -1.14 KCAL/MOL
REMARK 923 INTER-LIGAND FREE ENERGY PREDICTED BY IDOCK:   -1.48 KCAL/MOL
REMARK 924 INTRA-LIGAND FREE ENERGY PREDICTED BY IDOCK:    0.34 KCAL/MOL
REMARK 927      BINDING AFFINITY PREDICTED BY RF-SCORE:    0.00 PKD
ROOT
HETATM    1  C   UNL     1      -9.537   8.439  69.486  1.00  0.00    -0.170 C  
HETATM    2  C   UNL     1      -9.171   8.596  68.007  1.00  0.00    -0.140 C  
HETATM    3  N   UNL     1      -7.755   8.206  67.836  1.00  0.00    -0.111 NA 
HETATM    4  H1  UNL     1      -7.511   8.311  66.851  1.00  0.00     0.000 HD 
HETATM    5  H2  UNL     1      -7.561   7.269  68.192  1.00  0.00     0.000 HD 
ENDROOT
BRANCH   2   6
HETATM    6  C   UNL     1      -9.389  10.042  67.466  1.00  0.00    -0.144 C  
HETATM    7  H   UNL     1      -9.633  10.899  65.706  1.00  0.00     0.000 HD 
HETATM    8  O   UNL     1      -9.499  10.018  66.035  1.00  0.00    -0.172 OA 
BRANCH   6   9
HETATM    9  C   UNL     1      -8.302  11.013  67.890  1.00  0.00    -0.124 A  
HETATM   10  C   UNL     1      -7.876  11.099  69.228  1.00  0.00    -0.007 A  
HETATM   11  C   UNL     1      -6.909  12.032  69.589  1.00  0.00     0.085 A  
HETATM   12  O   UNL     1      -6.477  12.161  70.880  1.00  0.00    -0.352 OA 
HETATM   13  C   UNL     1      -6.356  12.878  68.633  1.00  0.00    -0.075 A  
HETATM   14  H   UNL     1      -5.817  12.798  71.127  1.00  0.00     0.000 HD 
HETATM   15  C   UNL     1      -6.754  12.806  67.308  1.00  0.00    -0.089 A  
HETATM   16  O   UNL     1      -5.414  13.796  69.000  1.00  0.00    -0.075 OA 
HETATM   17  H   UNL     1      -5.036  14.374  68.347  1.00  0.00     0.000 HD 
HETATM   18  C   UNL     1      -7.729  11.876  66.937  1.00  0.00    -0.106 A  
ENDBRANCH   6   9
ENDBRANCH   2   6
TORSDOF 2
ENDMDL
MODEL      282
REMARK 921   NORMALIZED FREE ENERGY PREDICTED BY IDOCK:   -0.59 KCAL/MOL
REMARK 922        TOTAL FREE ENERGY PREDICTED BY IDOCK:   -0.87 KCAL/MOL
REMARK 923 INTER-LIGAND FREE ENERGY PREDICTED BY IDOCK:   -0.92 KCAL/MOL
REMARK 924 INTRA-LIGAND FREE ENERGY PREDICTED BY IDOCK:    0.05 KCAL/MOL
REMARK 927      BINDING AFFINITY PREDICTED BY RF-SCORE:    0.00 PKD
ROOT
HETATM    1  C   UNL     1      -7.752   1.557  63.516  1.00  0.00    -0.058 C  
HETATM    2  C   UNL     1      -8.161   3.032  63.439  1.00  0.00    -0.085 C  
HETATM    3  N   UNL     1      -6.941   3.842  63.243  1.00  0.00    -0.043 NA 
HETATM    4  H1  UNL     1      -7.213   4.824  63.192  1.00  0.00     0.000 HD 
HETATM    5  H2  UNL     1      -6.396   3.543  62.434  1.00  0.00     0.000 HD 
ENDROOT
BRANCH   2   6
HETATM    6  C   UNL     1      -8.928   3.528  64.703  1.00  0.00    -0.127 C  
HETATM    7  H   UNL     1      -9.580   5.252  65.407  1.00  0.00     0.000 HD 
HETATM    8  O   UNL     1      -9.112   4.950  64.637  1.00  0.00    -0.148 OA 
BRANCH   6   9
HETATM    9  C   UNL     1      -8.248   3.149  66.006  1.00  0.00    -0.094 A  
HETATM   10  C   UNL     1      -7.188   3.912  66.530  1.00  0.00    -0.068 A  
HETATM   11  C   UNL     1      -6.559   3.510  67.704  1.00  0.00    -0.042 A  
HETATM   12  O   UNL     1      -5.515   4.212  68.239  1.00  0.00    -0.011 OA 
HETATM   13  C   UNL     1      -6.974   2.360  68.367  1.00  0.00    -0.044 A  
HETATM   14  H   UNL     1      -5.085   3.938  69.041  1.00  0.00     0.000 HD 
HETATM   15  C   UNL     1      -8.021   1.597  67.874  1.00  0.00    -0.060 A  
HETATM   16  O   UNL     1      -6.343   1.969  69.513  1.00  0.00    -0.024 OA 
HETATM   17  H   UNL     1      -6.627   1.184  69.966  1.00  0.00     0.000 HD 
HETATM   18  C   UNL     1      -8.655   1.990  66.692  1.00  0.00    -0.114 A  
ENDBRANCH   6   9
ENDBRANCH   2   6
TORSDOF 2
ENDMDL
MODEL      283
REMARK 921   NORMALIZED FREE ENERGY PREDICTED BY IDOCK:   -0.49 KCAL/MOL
REMARK 922        TOTAL FREE ENERGY PREDICTED BY IDOCK:   -0.76 KCAL/MOL
REMARK 923 INTER-LIGAND FREE ENERGY PREDICTED BY IDOCK:   -0.74 KCAL/MOL
REMARK 924 INTRA-LIGAND FREE ENERGY PREDICTED BY IDOCK:   -0.02 KCAL/MOL
REMARK 927      BINDING AFFINITY PREDICTED BY RF-SCORE:    0.00 PKD
ROOT
HETATM    1  C   UNL     1      -6.943   1.771  64.437  1.00  0.00    -0.039 C  
HETATM    2  C   UNL     1      -6.636   3.268  64.323  1.00  0.00    -0.035 C  
HETATM    3  N   UNL     1      -5.367   3.537  65.031  1.00  0.00    -0.009 NA 
HETATM    4  H1  UNL     1      -5.163   4.533  64.954  1.00  0.00     0.000 HD 
HETATM    5  H2  UNL     1      -4.600   2.952  64.698  1.00  0.00     0.000 HD 
ENDROOT
BRANCH   2   6
HETATM    6  C   UNL     1      -7.765   4.177  64.898  1.00  0.00    -0.078 C  
HETATM    7  H   UNL     1      -9.513   4.860  64.291  1.00  0.00     0.000 HD 
HETATM    8  O   UNL     1      -8.826   4.306  63.940  1.00  0.00    -0.124 OA 
BRANCH   6   9
HETATM    9  C   UNL     1      -7.274   5.549  65.323  1.00  0.00    -0.067 A  
HETATM   10  C   UNL     1      -6.937   6.534  64.376  1.00  0.00    -0.047 A  
HETATM   11  C   UNL     1      -6.448   7.765  64.800  1.00  0.00    -0.044 A  
HETATM   12  O   UNL     1      -6.093   8.744  63.914  1.00  0.00    -0.071 OA 
HETATM   13  C   UNL     1      -6.295   8.031  66.157  1.00  0.00    -0.046 A  
HETATM   14  H   UNL     1      -5.759   9.585  64.204  1.00  0.00     0.000 HD 
HETATM   15  C   UNL     1      -6.627   7.080  67.108  1.00  0.00    -0.055 A  
HETATM   16  O   UNL     1      -5.805   9.240  66.562  1.00  0.00    -0.056 OA 
HETATM   17  H   UNL     1      -5.700   9.422  67.488  1.00  0.00     0.000 HD 
HETATM   18  C   UNL     1      -7.114   5.838  66.691  1.00  0.00    -0.069 A  
ENDBRANCH   6   9
ENDBRANCH   2   6
TORSDOF 2
ENDMDL
MODEL      284
REMARK 921   NORMALIZED FREE ENERGY PREDICTED BY IDOCK:   -0.44 KCAL/MOL
REMARK 922        TOTAL FREE ENERGY PREDICTED BY IDOCK:   -0.70 KCAL/MOL
REMARK 923 INTER-LIGAND FREE ENERGY PREDICTED BY IDOCK:   -0.71 KCAL/MOL
REMARK 924 INTRA-LIGAND FREE ENERGY PREDICTED BY IDOCK:    0.01 KCAL/MOL
REMARK 927      BINDING AFFINITY PREDICTED BY RF-SCORE:    0.00 PKD
ROOT
HETATM    1  C   UNL     1      -8.866   4.980  64.789  1.00  0.00    -0.128 C  
HETATM    2  C   UNL     1      -7.727   5.285  63.810  1.00  0.00    -0.081 C  
HETATM    3  N   UNL     1      -6.932   4.053  63.625  1.00  0.00    -0.044 NA 
HETATM    4  H1  UNL     1      -6.175   4.256  62.973  1.00  0.00     0.000 HD 
HETATM    5  H2  UNL     1      -7.502   3.259  63.331  1.00  0.00     0.000 HD 
ENDROOT
BRANCH   2   6
HETATM    6  C   UNL     1      -6.800   6.447  64.282  1.00  0.00    -0.039 C  
HETATM    7  H   UNL     1      -4.968   7.072  63.899  1.00  0.00     0.000 HD 
HETATM    8  O   UNL     1      -5.533   6.364  63.612  1.00  0.00    -0.018 OA 
BRANCH   6   9
HETATM    9  C   UNL     1      -6.595   6.479  65.785  1.00  0.00    -0.044 A  
HETATM   10  C   UNL     1      -7.419   7.254  66.622  1.00  0.00    -0.088 A  
HETATM   11  C   UNL     1      -7.174   7.295  67.991  1.00  0.00    -0.091 A  
HETATM   12  O   UNL     1      -7.940   8.046  68.839  1.00  0.00    -0.114 OA 
HETATM   13  C   UNL     1      -6.122   6.570  68.540  1.00  0.00    -0.025 A  
HETATM   14  H   UNL     1      -7.773   8.075  69.773  1.00  0.00     0.000 HD 
HETATM   15  C   UNL     1      -5.301   5.793  67.737  1.00  0.00    -0.004 A  
HETATM   16  O   UNL     1      -5.885   6.624  69.884  1.00  0.00    -0.018 OA 
HETATM   17  H   UNL     1      -5.166   6.129  70.258  1.00  0.00     0.000 HD 
HETATM   18  C   UNL     1      -5.536   5.751  66.360  1.00  0.00    -0.013 A  
ENDBRANCH   6   9
ENDBRANCH   2   6
TORSDOF 2
ENDMDL
