MODEL        1
REMARK 921   NORMALIZED FREE ENERGY PREDICTED BY IDOCK:   -6.70 KCAL/MOL
REMARK 922        TOTAL FREE ENERGY PREDICTED BY IDOCK:   -8.97 KCAL/MOL
REMARK 923 INTER-LIGAND FREE ENERGY PREDICTED BY IDOCK:   -8.26 KCAL/MOL
REMARK 924 INTRA-LIGAND FREE ENERGY PREDICTED BY IDOCK:   -0.71 KCAL/MOL
REMARK 927      BINDING AFFINITY PREDICTED BY RF-SCORE:    0.00 PKD
ROOT
HETATM    1  C   UNL     1     -10.345  19.977  66.547  1.00  0.00    -0.572 C  
HETATM    2  C   UNL     1      -9.064  19.482  67.223  1.00  0.00    -0.373 C  
HETATM    3  C   UNL     1      -7.866  20.300  66.752  1.00  0.00    -0.332 C  
HETATM    4  C   UNL     1      -6.912  19.600  65.834  1.00  0.00    -0.280 C  
HETATM    5  N   UNL     1      -7.081  18.262  65.648  1.00  0.00    -0.219 N  
HETATM    6  O   UNL     1      -5.985  20.203  65.292  1.00  0.00    -0.185 OA 
HETATM    7  H   UNL     1      -6.450  17.815  64.983  1.00  0.00     0.000 HD 
HETATM    8  N   UNL     1      -7.991  17.460  66.244  1.00  0.00    -0.381 NA 
HETATM    9  C   UNL     1      -8.904  17.978  67.007  1.00  0.00    -0.254 C  
ENDROOT
BRANCH   9  10
HETATM   10  C   UNL     1      -9.849  17.029  67.695  1.00  0.00    -0.257 A  
HETATM   11  C   UNL     1     -10.563  16.062  66.986  1.00  0.00    -0.302 A  
HETATM   12  C   UNL     1     -11.498  15.252  67.643  1.00  0.00    -0.287 A  
HETATM   13  C   UNL     1     -11.744  15.384  69.016  1.00  0.00    -0.361 A  
HETATM   14  C   UNL     1     -11.023  16.352  69.723  1.00  0.00    -0.341 A  
HETATM   15  C   UNL     1     -10.077  17.162  69.073  1.00  0.00    -0.297 A  
BRANCH  13  16
HETATM   16  N   UNL     1     -12.730  14.609  69.666  1.00  0.00    -0.562 NA 
HETATM   17  H   UNL     1     -12.927  13.647  69.390  1.00  0.00     0.000 HD 
BRANCH  16  18
HETATM   18  N   UNL     1     -13.408  15.221  70.687  1.00  0.00    -0.712 NA 
HETATM   19  H   UNL     1     -13.978  16.045  70.500  1.00  0.00     0.000 HD 
BRANCH  18  20
HETATM   20  C   UNL     1     -13.323  14.749  71.899  1.00  0.00    -0.359 C  
HETATM   21  C   UNL     1     -13.350  13.314  71.988  1.00  0.00    -0.489 C  
HETATM   22  C   UNL     1     -13.218  15.605  73.041  1.00  0.00    -0.562 C  
HETATM   23  N   UNL     1     -13.106  16.318  73.953  1.00  0.00    -0.670 NA 
HETATM   24  N   UNL     1     -13.351  12.156  72.077  1.00  0.00    -0.467 NA 
ENDBRANCH  18  20
ENDBRANCH  16  18
ENDBRANCH  13  16
ENDBRANCH   9  10
TORSDOF 4
ENDMDL
MODEL        2
REMARK 921   NORMALIZED FREE ENERGY PREDICTED BY IDOCK:   -6.64 KCAL/MOL
REMARK 922        TOTAL FREE ENERGY PREDICTED BY IDOCK:   -8.90 KCAL/MOL
REMARK 923 INTER-LIGAND FREE ENERGY PREDICTED BY IDOCK:   -8.22 KCAL/MOL
REMARK 924 INTRA-LIGAND FREE ENERGY PREDICTED BY IDOCK:   -0.68 KCAL/MOL
REMARK 927      BINDING AFFINITY PREDICTED BY RF-SCORE:    0.00 PKD
ROOT
HETATM    1  C   UNL     1     -14.332  13.735  72.078  1.00  0.00    -0.392 C  
HETATM    2  C   UNL     1     -12.853  14.002  72.367  1.00  0.00    -0.406 C  
HETATM    3  C   UNL     1     -12.700  14.770  73.676  1.00  0.00    -0.511 C  
HETATM    4  C   UNL     1     -12.294  16.207  73.551  1.00  0.00    -0.559 C  
HETATM    5  N   UNL     1     -11.918  16.652  72.322  1.00  0.00    -0.567 N  
HETATM    6  O   UNL     1     -12.268  16.953  74.532  1.00  0.00    -0.644 OA 
HETATM    7  H   UNL     1     -11.690  17.644  72.250  1.00  0.00     0.000 HD 
HETATM    8  N   UNL     1     -11.811  15.929  71.185  1.00  0.00    -0.410 NA 
HETATM    9  C   UNL     1     -12.200  14.690  71.171  1.00  0.00    -0.340 C  
ENDROOT
BRANCH   9  10
HETATM   10  C   UNL     1     -11.997  13.918  69.895  1.00  0.00    -0.405 A  
HETATM   11  C   UNL     1     -12.023  14.542  68.646  1.00  0.00    -0.320 A  
HETATM   12  C   UNL     1     -11.917  13.782  67.475  1.00  0.00    -0.411 A  
HETATM   13  C   UNL     1     -11.781  12.388  67.517  1.00  0.00    -0.357 A  
HETATM   14  C   UNL     1     -11.751  11.767  68.770  1.00  0.00    -0.389 A  
HETATM   15  C   UNL     1     -11.848  12.524  69.949  1.00  0.00    -0.373 A  
BRANCH  13  16
HETATM   16  N   UNL     1     -11.735  11.616  66.335  1.00  0.00    -0.439 NA 
HETATM   17  H   UNL     1     -12.471  10.950  66.098  1.00  0.00     0.000 HD 
BRANCH  16  18
HETATM   18  N   UNL     1     -10.649  11.810  65.524  1.00  0.00    -0.267 NA 
HETATM   19  H   UNL     1     -10.322  12.756  65.326  1.00  0.00     0.000 HD 
BRANCH  18  20
HETATM   20  C   UNL     1     -10.033  10.786  65.004  1.00  0.00    -0.300 C  
HETATM   21  C   UNL     1     -10.002   9.615  65.839  1.00  0.00    -0.281 C  
HETATM   22  C   UNL     1      -9.434  10.840  63.705  1.00  0.00    -0.291 C  
HETATM   23  N   UNL     1      -8.978  10.897  62.637  1.00  0.00    -0.291 NA 
HETATM   24  N   UNL     1      -9.985   8.656  66.493  1.00  0.00    -0.273 NA 
ENDBRANCH  18  20
ENDBRANCH  16  18
ENDBRANCH  13  16
ENDBRANCH   9  10
TORSDOF 4
ENDMDL
MODEL        3
REMARK 921   NORMALIZED FREE ENERGY PREDICTED BY IDOCK:   -6.60 KCAL/MOL
REMARK 922        TOTAL FREE ENERGY PREDICTED BY IDOCK:   -8.85 KCAL/MOL
REMARK 923 INTER-LIGAND FREE ENERGY PREDICTED BY IDOCK:   -8.61 KCAL/MOL
REMARK 924 INTRA-LIGAND FREE ENERGY PREDICTED BY IDOCK:   -0.24 KCAL/MOL
REMARK 927      BINDING AFFINITY PREDICTED BY RF-SCORE:    0.00 PKD
ROOT
HETATM    1  C   UNL     1      -9.204   8.679  70.145  1.00  0.00    -0.165 C  
HETATM    2  C   UNL     1      -9.784   9.315  71.410  1.00  0.00    -0.269 C  
HETATM    3  C   UNL     1      -9.579   8.394  72.608  1.00  0.00    -0.337 C  
HETATM    4  C   UNL     1     -10.807   7.717  73.135  1.00  0.00    -0.382 C  
HETATM    5  N   UNL     1     -12.009   8.114  72.637  1.00  0.00    -0.558 N  
HETATM    6  O   UNL     1     -10.737   6.855  74.013  1.00  0.00    -0.277 OA 
HETATM    7  H   UNL     1     -12.828   7.609  72.975  1.00  0.00     0.000 HD 
HETATM    8  N   UNL     1     -12.241   9.103  71.745  1.00  0.00    -0.348 NA 
HETATM    9  C   UNL     1     -11.241   9.708  71.180  1.00  0.00    -0.384 C  
ENDROOT
BRANCH   9  10
HETATM   10  C   UNL     1     -11.561  10.843  70.245  1.00  0.00    -0.426 A  
HETATM   11  C   UNL     1     -11.200  10.809  68.897  1.00  0.00    -0.328 A  
HETATM   12  C   UNL     1     -11.436  11.918  68.075  1.00  0.00    -0.389 A  
HETATM   13  C   UNL     1     -12.034  13.083  68.570  1.00  0.00    -0.261 A  
HETATM   14  C   UNL     1     -12.398  13.112  69.921  1.00  0.00    -0.201 A  
HETATM   15  C   UNL     1     -12.173  12.000  70.750  1.00  0.00    -0.382 A  
BRANCH  13  16
HETATM   16  N   UNL     1     -12.216  14.223  67.756  1.00  0.00    -0.598 NA 
HETATM   17  H   UNL     1     -12.972  14.887  67.922  1.00  0.00     0.000 HD 
BRANCH  16  18
HETATM   18  N   UNL     1     -11.322  14.388  66.732  1.00  0.00    -0.340 NA 
HETATM   19  H   UNL     1     -10.321  14.409  66.927  1.00  0.00     0.000 HD 
BRANCH  18  20
HETATM   20  C   UNL     1     -11.750  14.519  65.508  1.00  0.00    -0.343 C  
HETATM   21  C   UNL     1     -12.452  13.375  64.992  1.00  0.00    -0.428 C  
HETATM   22  C   UNL     1     -11.525  15.712  64.750  1.00  0.00    -0.283 C  
HETATM   23  N   UNL     1     -11.355  16.700  64.160  1.00  0.00    -1.075 NA 
HETATM   24  N   UNL     1     -13.038  12.468  64.566  1.00  0.00    -0.839 NA 
ENDBRANCH  18  20
ENDBRANCH  16  18
ENDBRANCH  13  16
ENDBRANCH   9  10
TORSDOF 4
ENDMDL
MODEL        4
REMARK 921   NORMALIZED FREE ENERGY PREDICTED BY IDOCK:   -6.57 KCAL/MOL
REMARK 922        TOTAL FREE ENERGY PREDICTED BY IDOCK:   -8.82 KCAL/MOL
REMARK 923 INTER-LIGAND FREE ENERGY PREDICTED BY IDOCK:   -8.32 KCAL/MOL
REMARK 924 INTRA-LIGAND FREE ENERGY PREDICTED BY IDOCK:   -0.50 KCAL/MOL
REMARK 927      BINDING AFFINITY PREDICTED BY RF-SCORE:    0.00 PKD
ROOT
HETATM    1  C   UNL     1     -12.100  13.000  64.025  1.00  0.00    -0.519 C  
HETATM    2  C   UNL     1     -10.674  12.733  64.513  1.00  0.00    -0.380 C  
HETATM    3  C   UNL     1      -9.911  11.899  63.488  1.00  0.00    -0.422 C  
HETATM    4  C   UNL     1      -9.644  10.474  63.867  1.00  0.00    -0.309 C  
HETATM    5  N   UNL     1      -9.927  10.098  65.144  1.00  0.00    -0.325 N  
HETATM    6  O   UNL     1      -9.153   9.679  63.065  1.00  0.00    -0.260 OA 
HETATM    7  H   UNL     1      -9.781   9.113  65.368  1.00  0.00     0.000 HD 
HETATM    8  N   UNL     1     -10.379  10.880  66.149  1.00  0.00    -0.248 NA 
HETATM    9  C   UNL     1     -10.704  12.114  65.909  1.00  0.00    -0.266 C  
ENDROOT
BRANCH   9  10
HETATM   10  C   UNL     1     -11.139  12.953  67.079  1.00  0.00    -0.309 A  
HETATM   11  C   UNL     1     -11.675  12.380  68.235  1.00  0.00    -0.398 A  
HETATM   12  C   UNL     1     -12.149  13.195  69.271  1.00  0.00    -0.270 A  
HETATM   13  C   UNL     1     -12.104  14.592  69.184  1.00  0.00    -0.248 A  
HETATM   14  C   UNL     1     -11.563  15.161  68.025  1.00  0.00    -0.345 A  
HETATM   15  C   UNL     1     -11.077  14.351  66.986  1.00  0.00    -0.317 A  
BRANCH  13  16
HETATM   16  N   UNL     1     -12.639  15.413  70.201  1.00  0.00    -0.589 NA 
HETATM   17  H   UNL     1     -13.448  16.012  70.040  1.00  0.00     0.000 HD 
BRANCH  16  18
HETATM   18  N   UNL     1     -12.011  15.360  71.417  1.00  0.00    -0.338 NA 
HETATM   19  H   UNL     1     -11.023  15.602  71.493  1.00  0.00     0.000 HD 
BRANCH  18  20
HETATM   20  C   UNL     1     -12.676  14.999  72.479  1.00  0.00    -0.353 C  
HETATM   21  C   UNL     1     -12.530  15.879  73.607  1.00  0.00    -0.596 C  
HETATM   22  C   UNL     1     -13.480  13.815  72.504  1.00  0.00    -0.578 C  
HETATM   23  N   UNL     1     -14.148  12.863  72.495  1.00  0.00    -0.478 NA 
HETATM   24  N   UNL     1     -12.439  16.589  74.521  1.00  0.00    -0.768 NA 
ENDBRANCH  18  20
ENDBRANCH  16  18
ENDBRANCH  13  16
ENDBRANCH   9  10
TORSDOF 4
ENDMDL
MODEL        5
REMARK 921   NORMALIZED FREE ENERGY PREDICTED BY IDOCK:   -6.55 KCAL/MOL
REMARK 922        TOTAL FREE ENERGY PREDICTED BY IDOCK:   -8.79 KCAL/MOL
REMARK 923 INTER-LIGAND FREE ENERGY PREDICTED BY IDOCK:   -8.39 KCAL/MOL
REMARK 924 INTRA-LIGAND FREE ENERGY PREDICTED BY IDOCK:   -0.40 KCAL/MOL
REMARK 927      BINDING AFFINITY PREDICTED BY RF-SCORE:    0.00 PKD
ROOT
HETATM    1  C   UNL     1     -11.721  12.170  64.093  1.00  0.00    -0.478 C  
HETATM    2  C   UNL     1     -12.193  13.255  65.065  1.00  0.00    -0.477 C  
HETATM    3  C   UNL     1     -12.364  14.582  64.334  1.00  0.00    -0.437 C  
HETATM    4  C   UNL     1     -11.340  15.634  64.633  1.00  0.00    -0.349 C  
HETATM    5  N   UNL     1     -10.469  15.396  65.651  1.00  0.00    -0.344 N  
HETATM    6  O   UNL     1     -11.307  16.693  64.004  1.00  0.00    -1.120 OA 
HETATM    7  H   UNL     1      -9.751  16.104  65.807  1.00  0.00     0.000 HD 
HETATM    8  N   UNL     1     -10.447  14.328  66.478  1.00  0.00    -0.283 NA 
HETATM    9  C   UNL     1     -11.250  13.330  66.264  1.00  0.00    -0.299 C  
ENDROOT
BRANCH   9  10
HETATM   10  C   UNL     1     -11.225  12.199  67.257  1.00  0.00    -0.366 A  
HETATM   11  C   UNL     1     -10.563  11.000  66.986  1.00  0.00    -0.303 A  
HETATM   12  C   UNL     1     -10.632   9.936  67.894  1.00  0.00    -0.303 A  
HETATM   13  C   UNL     1     -11.357  10.038  69.088  1.00  0.00    -0.094 A  
HETATM   14  C   UNL     1     -12.015  11.243  69.357  1.00  0.00    -0.410 A  
HETATM   15  C   UNL     1     -11.943  12.317  68.455  1.00  0.00    -0.272 A  
BRANCH  13  16
HETATM   16  N   UNL     1     -11.476   8.944  69.975  1.00  0.00    -0.454 NA 
HETATM   17  H   UNL     1     -11.757   8.018  69.652  1.00  0.00     0.000 HD 
BRANCH  16  18
HETATM   18  N   UNL     1     -11.193   9.195  71.291  1.00  0.00    -0.306 NA 
HETATM   19  H   UNL     1     -10.483   9.884  71.538  1.00  0.00     0.000 HD 
BRANCH  18  20
HETATM   20  C   UNL     1     -11.833   8.553  72.228  1.00  0.00    -0.383 C  
HETATM   21  C   UNL     1     -11.019   7.660  73.007  1.00  0.00    -0.400 C  
HETATM   22  C   UNL     1     -13.236   8.732  72.448  1.00  0.00    -0.394 C  
HETATM   23  N   UNL     1     -14.371   8.911  72.627  1.00  0.00    -0.584 NA 
HETATM   24  N   UNL     1     -10.372   6.947  73.658  1.00  0.00    -0.332 NA 
ENDBRANCH  18  20
ENDBRANCH  16  18
ENDBRANCH  13  16
ENDBRANCH   9  10
TORSDOF 4
ENDMDL
MODEL        6
REMARK 921   NORMALIZED FREE ENERGY PREDICTED BY IDOCK:   -6.53 KCAL/MOL
REMARK 922        TOTAL FREE ENERGY PREDICTED BY IDOCK:   -8.77 KCAL/MOL
REMARK 923 INTER-LIGAND FREE ENERGY PREDICTED BY IDOCK:   -7.99 KCAL/MOL
REMARK 924 INTRA-LIGAND FREE ENERGY PREDICTED BY IDOCK:   -0.77 KCAL/MOL
REMARK 927      BINDING AFFINITY PREDICTED BY RF-SCORE:    0.00 PKD
ROOT
HETATM    1  C   UNL     1     -12.390  10.730  71.022  1.00  0.00    -0.509 C  
HETATM    2  C   UNL     1     -11.755   9.393  70.629  1.00  0.00    -0.302 C  
HETATM    3  C   UNL     1     -11.896   8.386  71.765  1.00  0.00    -0.374 C  
HETATM    4  C   UNL     1     -10.639   8.055  72.510  1.00  0.00    -0.329 C  
HETATM    5  N   UNL     1      -9.465   8.522  72.004  1.00  0.00    -0.269 N  
HETATM    6  O   UNL     1     -10.660   7.356  73.524  1.00  0.00    -0.376 OA 
HETATM    7  H   UNL     1      -8.627   8.324  72.551  1.00  0.00     0.000 HD 
HETATM    8  N   UNL     1      -9.283   9.217  70.860  1.00  0.00    -0.255 NA 
HETATM    9  C   UNL     1     -10.313   9.610  70.175  1.00  0.00    -0.266 C  
ENDROOT
BRANCH   9  10
HETATM   10  C   UNL     1     -10.047  10.324  68.877  1.00  0.00    -0.216 A  
HETATM   11  C   UNL     1      -9.199  11.431  68.808  1.00  0.00    -0.108 A  
HETATM   12  C   UNL     1      -9.041  12.124  67.601  1.00  0.00    -0.181 A  
HETATM   13  C   UNL     1      -9.719  11.735  66.439  1.00  0.00    -0.214 A  
HETATM   14  C   UNL     1     -10.564  10.623  66.512  1.00  0.00    -0.257 A  
HETATM   15  C   UNL     1     -10.721   9.917  67.716  1.00  0.00    -0.332 A  
BRANCH  13  16
HETATM   16  N   UNL     1      -9.606  12.471  65.238  1.00  0.00    -0.460 NA 
HETATM   17  H   UNL     1      -9.250  12.049  64.380  1.00  0.00     0.000 HD 
BRANCH  16  18
HETATM   18  N   UNL     1     -10.001  13.781  65.288  1.00  0.00    -0.543 NA 
HETATM   19  H   UNL     1      -9.465  14.455  65.834  1.00  0.00     0.000 HD 
BRANCH  18  20
HETATM   20  C   UNL     1     -11.063  14.166  64.638  1.00  0.00    -0.371 C  
HETATM   21  C   UNL     1     -11.187  15.590  64.479  1.00  0.00    -0.315 C  
HETATM   22  C   UNL     1     -12.023  13.232  64.133  1.00  0.00    -0.447 C  
HETATM   23  N   UNL     1     -12.778  12.456  63.708  1.00  0.00    -0.758 NA 
HETATM   24  N   UNL     1     -11.293  16.736  64.325  1.00  0.00    -1.111 NA 
ENDBRANCH  18  20
ENDBRANCH  16  18
ENDBRANCH  13  16
ENDBRANCH   9  10
TORSDOF 4
ENDMDL
MODEL        7
REMARK 921   NORMALIZED FREE ENERGY PREDICTED BY IDOCK:   -6.53 KCAL/MOL
REMARK 922        TOTAL FREE ENERGY PREDICTED BY IDOCK:   -8.77 KCAL/MOL
REMARK 923 INTER-LIGAND FREE ENERGY PREDICTED BY IDOCK:   -8.20 KCAL/MOL
REMARK 924 INTRA-LIGAND FREE ENERGY PREDICTED BY IDOCK:   -0.57 KCAL/MOL
REMARK 927      BINDING AFFINITY PREDICTED BY RF-SCORE:    0.00 PKD
ROOT
HETATM    1  C   UNL     1     -13.621   9.526  71.909  1.00  0.00    -0.468 C  
HETATM    2  C   UNL     1     -12.574   8.762  71.094  1.00  0.00    -0.204 C  
HETATM    3  C   UNL     1     -12.174   7.479  71.816  1.00  0.00    -0.345 C  
HETATM    4  C   UNL     1     -10.805   7.467  72.424  1.00  0.00    -0.263 C  
HETATM    5  N   UNL     1      -9.973   8.503  72.128  1.00  0.00    -0.299 N  
HETATM    6  O   UNL     1     -10.429   6.536  73.138  1.00  0.00    -0.215 OA 
HETATM    7  H   UNL     1      -9.063   8.498  72.589  1.00  0.00     0.000 HD 
HETATM    8  N   UNL     1     -10.216   9.537  71.293  1.00  0.00    -0.259 NA 
HETATM    9  C   UNL     1     -11.395   9.676  70.766  1.00  0.00    -0.340 C  
ENDROOT
BRANCH   9  10
HETATM   10  C   UNL     1     -11.587  10.809  69.794  1.00  0.00    -0.393 A  
HETATM   11  C   UNL     1     -11.472  10.621  68.415  1.00  0.00    -0.330 A  
HETATM   12  C   UNL     1     -11.571  11.713  67.544  1.00  0.00    -0.345 A  
HETATM   13  C   UNL     1     -11.787  13.013  68.020  1.00  0.00    -0.347 A  
HETATM   14  C   UNL     1     -11.906  13.195  69.402  1.00  0.00    -0.383 A  
HETATM   15  C   UNL     1     -11.816  12.104  70.282  1.00  0.00    -0.339 A  
BRANCH  13  16
HETATM   16  N   UNL     1     -11.826  14.121  67.146  1.00  0.00    -0.405 NA 
HETATM   17  H   UNL     1     -11.236  14.942  67.290  1.00  0.00     0.000 HD 
BRANCH  16  18
HETATM   18  N   UNL     1     -12.699  14.036  66.094  1.00  0.00    -0.483 NA 
HETATM   19  H   UNL     1     -13.687  13.853  66.264  1.00  0.00     0.000 HD 
BRANCH  18  20
HETATM   20  C   UNL     1     -12.265  14.188  64.874  1.00  0.00    -0.438 C  
HETATM   21  C   UNL     1     -12.272  12.989  64.080  1.00  0.00    -0.401 C  
HETATM   22  C   UNL     1     -11.816  15.454  64.381  1.00  0.00    -0.256 C  
HETATM   23  N   UNL     1     -11.481  16.498  63.992  1.00  0.00    -1.122 NA 
HETATM   24  N   UNL     1     -12.288  12.034  63.419  1.00  0.00    -0.565 NA 
ENDBRANCH  18  20
ENDBRANCH  16  18
ENDBRANCH  13  16
ENDBRANCH   9  10
TORSDOF 4
ENDMDL
MODEL        8
REMARK 921   NORMALIZED FREE ENERGY PREDICTED BY IDOCK:   -6.53 KCAL/MOL
REMARK 922        TOTAL FREE ENERGY PREDICTED BY IDOCK:   -8.76 KCAL/MOL
REMARK 923 INTER-LIGAND FREE ENERGY PREDICTED BY IDOCK:   -8.25 KCAL/MOL
REMARK 924 INTRA-LIGAND FREE ENERGY PREDICTED BY IDOCK:   -0.51 KCAL/MOL
REMARK 927      BINDING AFFINITY PREDICTED BY RF-SCORE:    0.00 PKD
ROOT
HETATM    1  C   UNL     1     -12.254  12.231  63.969  1.00  0.00    -0.569 C  
HETATM    2  C   UNL     1     -12.405  13.308  65.046  1.00  0.00    -0.499 C  
HETATM    3  C   UNL     1     -12.532  14.685  64.404  1.00  0.00    -0.312 C  
HETATM    4  C   UNL     1     -11.345  15.589  64.546  1.00  0.00    -0.314 C  
HETATM    5  N   UNL     1     -10.346  15.192  65.380  1.00  0.00    -0.363 N  
HETATM    6  O   UNL     1     -11.289  16.670  63.958  1.00  0.00    -1.120 OA 
HETATM    7  H   UNL     1      -9.528  15.799  65.427  1.00  0.00     0.000 HD 
HETATM    8  N   UNL     1     -10.315  14.084  66.154  1.00  0.00    -0.289 NA 
HETATM    9  C   UNL     1     -11.264  13.204  66.056  1.00  0.00    -0.292 C  
ENDROOT
BRANCH   9  10
HETATM   10  C   UNL     1     -11.209  12.024  66.989  1.00  0.00    -0.377 A  
HETATM   11  C   UNL     1     -11.834  12.044  68.237  1.00  0.00    -0.351 A  
HETATM   12  C   UNL     1     -11.691  10.963  69.115  1.00  0.00    -0.397 A  
HETATM   13  C   UNL     1     -10.926   9.839  68.776  1.00  0.00    -0.148 A  
HETATM   14  C   UNL     1     -10.305   9.822  67.523  1.00  0.00    -0.291 A  
HETATM   15  C   UNL     1     -10.451  10.898  66.633  1.00  0.00    -0.307 A  
BRANCH  13  16
HETATM   16  N   UNL     1     -10.732   8.777  69.686  1.00  0.00    -0.273 NA 
HETATM   17  H   UNL     1      -9.805   8.397  69.881  1.00  0.00     0.000 HD 
BRANCH  16  18
HETATM   18  N   UNL     1     -11.856   8.283  70.293  1.00  0.00    -0.456 NA 
HETATM   19  H   UNL     1     -12.611   7.893  69.729  1.00  0.00     0.000 HD 
BRANCH  18  20
HETATM   20  C   UNL     1     -11.961   8.313  71.592  1.00  0.00    -0.303 C  
HETATM   21  C   UNL     1     -13.273   8.642  72.081  1.00  0.00    -0.383 C  
HETATM   22  C   UNL     1     -10.848   8.042  72.449  1.00  0.00    -0.327 C  
HETATM   23  N   UNL     1      -9.937   7.792  73.128  1.00  0.00    -0.292 NA 
HETATM   24  N   UNL     1     -14.330   8.887  72.493  1.00  0.00    -0.586 NA 
ENDBRANCH  18  20
ENDBRANCH  16  18
ENDBRANCH  13  16
ENDBRANCH   9  10
TORSDOF 4
ENDMDL
MODEL        9
REMARK 921   NORMALIZED FREE ENERGY PREDICTED BY IDOCK:   -6.51 KCAL/MOL
REMARK 922        TOTAL FREE ENERGY PREDICTED BY IDOCK:   -8.74 KCAL/MOL
REMARK 923 INTER-LIGAND FREE ENERGY PREDICTED BY IDOCK:   -7.99 KCAL/MOL
REMARK 924 INTRA-LIGAND FREE ENERGY PREDICTED BY IDOCK:   -0.76 KCAL/MOL
REMARK 927      BINDING AFFINITY PREDICTED BY RF-SCORE:    0.00 PKD
ROOT
HETATM    1  C   UNL     1     -12.432  10.717  70.988  1.00  0.00    -0.515 C  
HETATM    2  C   UNL     1     -11.776   9.389  70.601  1.00  0.00    -0.302 C  
HETATM    3  C   UNL     1     -11.894   8.387  71.745  1.00  0.00    -0.374 C  
HETATM    4  C   UNL     1     -10.627   8.083  72.485  1.00  0.00    -0.329 C  
HETATM    5  N   UNL     1      -9.464   8.567  71.970  1.00  0.00    -0.269 N  
HETATM    6  O   UNL     1     -10.631   7.392  73.505  1.00  0.00    -0.376 OA 
HETATM    7  H   UNL     1      -8.620   8.387  72.514  1.00  0.00     0.000 HD 
HETATM    8  N   UNL     1      -9.300   9.256  70.820  1.00  0.00    -0.259 NA 
HETATM    9  C   UNL     1     -10.341   9.627  70.138  1.00  0.00    -0.266 C  
ENDROOT
BRANCH   9  10
HETATM   10  C   UNL     1     -10.094  10.336  68.833  1.00  0.00    -0.216 A  
HETATM   11  C   UNL     1      -9.391  11.541  68.773  1.00  0.00    -0.088 A  
HETATM   12  C   UNL     1      -9.254  12.217  67.555  1.00  0.00    -0.181 A  
HETATM   13  C   UNL     1      -9.809  11.715  66.371  1.00  0.00    -0.207 A  
HETATM   14  C   UNL     1     -10.509  10.505  66.435  1.00  0.00    -0.258 A  
HETATM   15  C   UNL     1     -10.643   9.816  67.652  1.00  0.00    -0.333 A  
BRANCH  13  16
HETATM   16  N   UNL     1      -9.723  12.428  65.155  1.00  0.00    -0.451 NA 
HETATM   17  H   UNL     1      -9.498  11.964  64.274  1.00  0.00     0.000 HD 
BRANCH  16  18
HETATM   18  N   UNL     1      -9.957  13.775  65.222  1.00  0.00    -0.543 NA 
HETATM   19  H   UNL     1      -9.267  14.393  65.648  1.00  0.00     0.000 HD 
BRANCH  18  20
HETATM   20  C   UNL     1     -11.064  14.268  64.741  1.00  0.00    -0.391 C  
HETATM   21  C   UNL     1     -12.103  13.301  64.512  1.00  0.00    -0.408 C  
HETATM   22  C   UNL     1     -11.215  15.664  64.464  1.00  0.00    -0.325 C  
HETATM   23  N   UNL     1     -11.326  16.806  64.270  1.00  0.00    -1.111 NA 
HETATM   24  N   UNL     1     -12.960  12.536  64.339  1.00  0.00    -0.785 NA 
ENDBRANCH  18  20
ENDBRANCH  16  18
ENDBRANCH  13  16
ENDBRANCH   9  10
TORSDOF 4
ENDMDL
MODEL       10
REMARK 921   NORMALIZED FREE ENERGY PREDICTED BY IDOCK:   -6.45 KCAL/MOL
REMARK 922        TOTAL FREE ENERGY PREDICTED BY IDOCK:   -8.67 KCAL/MOL
REMARK 923 INTER-LIGAND FREE ENERGY PREDICTED BY IDOCK:   -8.17 KCAL/MOL
REMARK 924 INTRA-LIGAND FREE ENERGY PREDICTED BY IDOCK:   -0.50 KCAL/MOL
REMARK 927      BINDING AFFINITY PREDICTED BY RF-SCORE:    0.00 PKD
ROOT
HETATM    1  C   UNL     1     -13.586   9.921  72.172  1.00  0.00    -0.392 C  
HETATM    2  C   UNL     1     -12.694   9.007  71.329  1.00  0.00    -0.316 C  
HETATM    3  C   UNL     1     -12.366   7.731  72.097  1.00  0.00    -0.303 C  
HETATM    4  C   UNL     1     -10.960   7.607  72.597  1.00  0.00    -0.351 C  
HETATM    5  N   UNL     1     -10.055   8.532  72.173  1.00  0.00    -0.305 N  
HETATM    6  O   UNL     1     -10.622   6.683  73.338  1.00  0.00    -0.268 OA 
HETATM    7  H   UNL     1      -9.115   8.456  72.562  1.00  0.00     0.000 HD 
HETATM    8  N   UNL     1     -10.262   9.539  71.295  1.00  0.00    -0.259 NA 
HETATM    9  C   UNL     1     -11.460   9.772  70.854  1.00  0.00    -0.369 C  
ENDROOT
BRANCH   9  10
HETATM   10  C   UNL     1     -11.617  10.864  69.830  1.00  0.00    -0.399 A  
HETATM   11  C   UNL     1     -11.458  10.619  68.464  1.00  0.00    -0.333 A  
HETATM   12  C   UNL     1     -11.526  11.674  67.546  1.00  0.00    -0.360 A  
HETATM   13  C   UNL     1     -11.753  12.992  67.960  1.00  0.00    -0.355 A  
HETATM   14  C   UNL     1     -11.916  13.233  69.329  1.00  0.00    -0.354 A  
HETATM   15  C   UNL     1     -11.858  12.179  70.255  1.00  0.00    -0.339 A  
BRANCH  13  16
HETATM   16  N   UNL     1     -11.761  14.064  67.040  1.00  0.00    -0.376 NA 
HETATM   17  H   UNL     1     -11.245  14.927  67.214  1.00  0.00     0.000 HD 
BRANCH  16  18
HETATM   18  N   UNL     1     -12.498  13.882  65.900  1.00  0.00    -0.481 NA 
HETATM   19  H   UNL     1     -13.479  13.611  65.965  1.00  0.00     0.000 HD 
BRANCH  18  20
HETATM   20  C   UNL     1     -11.945  14.054  64.733  1.00  0.00    -0.417 C  
HETATM   21  C   UNL     1     -11.790  15.429  64.339  1.00  0.00    -0.256 C  
HETATM   22  C   UNL     1     -11.536  12.952  63.917  1.00  0.00    -0.453 C  
HETATM   23  N   UNL     1     -11.187  12.042  63.281  1.00  0.00    -0.364 NA 
HETATM   24  N   UNL     1     -11.639  16.533  64.013  1.00  0.00    -1.124 NA 
ENDBRANCH  18  20
ENDBRANCH  16  18
ENDBRANCH  13  16
ENDBRANCH   9  10
TORSDOF 4
ENDMDL
MODEL       11
REMARK 921   NORMALIZED FREE ENERGY PREDICTED BY IDOCK:   -6.35 KCAL/MOL
REMARK 922        TOTAL FREE ENERGY PREDICTED BY IDOCK:   -8.54 KCAL/MOL
REMARK 923 INTER-LIGAND FREE ENERGY PREDICTED BY IDOCK:   -8.00 KCAL/MOL
REMARK 924 INTRA-LIGAND FREE ENERGY PREDICTED BY IDOCK:   -0.55 KCAL/MOL
REMARK 927      BINDING AFFINITY PREDICTED BY RF-SCORE:    0.00 PKD
ROOT
HETATM    1  C   UNL     1     -12.478  12.306  63.660  1.00  0.00    -0.647 C  
HETATM    2  C   UNL     1     -12.322  13.199  64.894  1.00  0.00    -0.494 C  
HETATM    3  C   UNL     1     -12.464  14.668  64.505  1.00  0.00    -0.312 C  
HETATM    4  C   UNL     1     -11.205  15.478  64.527  1.00  0.00    -0.315 C  
HETATM    5  N   UNL     1     -10.093  14.903  65.062  1.00  0.00    -0.364 N  
HETATM    6  O   UNL     1     -11.181  16.636  64.108  1.00  0.00    -1.103 OA 
HETATM    7  H   UNL     1      -9.236  15.455  65.025  1.00  0.00     0.000 HD 
HETATM    8  N   UNL     1      -9.996  13.685  65.638  1.00  0.00    -0.273 NA 
HETATM    9  C   UNL     1     -11.013  12.878  65.613  1.00  0.00    -0.271 C  
ENDROOT
BRANCH   9  10
HETATM   10  C   UNL     1     -10.867  11.561  66.326  1.00  0.00    -0.333 A  
HETATM   11  C   UNL     1     -11.382  11.358  67.608  1.00  0.00    -0.359 A  
HETATM   12  C   UNL     1     -11.154  10.150  68.277  1.00  0.00    -0.285 A  
HETATM   13  C   UNL     1     -10.411   9.117  67.691  1.00  0.00    -0.261 A  
HETATM   14  C   UNL     1      -9.900   9.322  66.404  1.00  0.00    -0.347 A  
HETATM   15  C   UNL     1     -10.133  10.528  65.723  1.00  0.00    -0.329 A  
BRANCH  13  16
HETATM   16  N   UNL     1     -10.129   7.922  68.390  1.00  0.00    -0.189 NA 
HETATM   17  H   UNL     1      -9.187   7.694  68.708  1.00  0.00     0.000 HD 
BRANCH  16  18
HETATM   18  N   UNL     1     -11.190   7.086  68.618  1.00  0.00    -0.497 NA 
HETATM   19  H   UNL     1     -11.914   6.976  67.908  1.00  0.00     0.000 HD 
BRANCH  18  20
HETATM   20  C   UNL     1     -11.275   6.433  69.742  1.00  0.00    -0.419 C  
HETATM   21  C   UNL     1     -10.467   5.245  69.809  1.00  0.00    -0.269 C  
HETATM   22  C   UNL     1     -12.114   6.874  70.815  1.00  0.00    -0.349 C  
HETATM   23  N   UNL     1     -12.782   7.264  71.683  1.00  0.00    -0.363 NA 
HETATM   24  N   UNL     1      -9.806   4.293  69.887  1.00  0.00    -0.221 NA 
ENDBRANCH  18  20
ENDBRANCH  16  18
ENDBRANCH  13  16
ENDBRANCH   9  10
TORSDOF 4
ENDMDL
MODEL       12
REMARK 921   NORMALIZED FREE ENERGY PREDICTED BY IDOCK:   -6.35 KCAL/MOL
REMARK 922        TOTAL FREE ENERGY PREDICTED BY IDOCK:   -8.54 KCAL/MOL
REMARK 923 INTER-LIGAND FREE ENERGY PREDICTED BY IDOCK:   -8.21 KCAL/MOL
REMARK 924 INTRA-LIGAND FREE ENERGY PREDICTED BY IDOCK:   -0.33 KCAL/MOL
REMARK 927      BINDING AFFINITY PREDICTED BY RF-SCORE:    0.00 PKD
ROOT
HETATM    1  C   UNL     1     -11.064  12.105  65.087  1.00  0.00    -0.369 C  
HETATM    2  C   UNL     1     -12.036  13.188  65.563  1.00  0.00    -0.457 C  
HETATM    3  C   UNL     1     -12.195  14.264  64.493  1.00  0.00    -0.476 C  
HETATM    4  C   UNL     1     -11.554  15.585  64.788  1.00  0.00    -0.256 C  
HETATM    5  N   UNL     1     -11.054  15.778  66.039  1.00  0.00    -0.164 N  
HETATM    6  O   UNL     1     -11.509  16.479  63.942  1.00  0.00    -1.145 OA 
HETATM    7  H   UNL     1     -10.581  16.667  66.204  1.00  0.00     0.000 HD 
HETATM    8  N   UNL     1     -11.114  14.927  67.087  1.00  0.00    -0.324 NA 
HETATM    9  C   UNL     1     -11.592  13.732  66.919  1.00  0.00    -0.370 C  
ENDROOT
BRANCH   9  10
HETATM   10  C   UNL     1     -11.693  12.852  68.136  1.00  0.00    -0.395 A  
HETATM   11  C   UNL     1     -11.685  11.459  68.038  1.00  0.00    -0.324 A  
HETATM   12  C   UNL     1     -11.868  10.671  69.181  1.00  0.00    -0.287 A  
HETATM   13  C   UNL     1     -12.062  11.245  70.444  1.00  0.00    -0.384 A  
HETATM   14  C   UNL     1     -12.066  12.641  70.537  1.00  0.00    -0.360 A  
HETATM   15  C   UNL     1     -11.875  13.439  69.397  1.00  0.00    -0.390 A  
BRANCH  13  16
HETATM   16  N   UNL     1     -12.307  10.451  71.586  1.00  0.00    -0.353 NA 
HETATM   17  H   UNL     1     -13.106  10.620  72.198  1.00  0.00     0.000 HD 
BRANCH  16  18
HETATM   18  N   UNL     1     -11.415   9.440  71.826  1.00  0.00    -0.386 NA 
HETATM   19  H   UNL     1     -10.416   9.599  71.693  1.00  0.00     0.000 HD 
BRANCH  18  20
HETATM   20  C   UNL     1     -11.843   8.275  72.225  1.00  0.00    -0.388 C  
HETATM   21  C   UNL     1     -13.212   7.992  71.891  1.00  0.00    -0.301 C  
HETATM   22  C   UNL     1     -11.003   7.363  72.941  1.00  0.00    -0.361 C  
HETATM   23  N   UNL     1     -10.297   6.627  73.499  1.00  0.00    -0.266 NA 
HETATM   24  N   UNL     1     -14.311   7.738  71.614  1.00  0.00    -0.458 NA 
ENDBRANCH  18  20
ENDBRANCH  16  18
ENDBRANCH  13  16
ENDBRANCH   9  10
TORSDOF 4
ENDMDL
MODEL       13
REMARK 921   NORMALIZED FREE ENERGY PREDICTED BY IDOCK:   -6.34 KCAL/MOL
REMARK 922        TOTAL FREE ENERGY PREDICTED BY IDOCK:   -8.53 KCAL/MOL
REMARK 923 INTER-LIGAND FREE ENERGY PREDICTED BY IDOCK:   -7.97 KCAL/MOL
REMARK 924 INTRA-LIGAND FREE ENERGY PREDICTED BY IDOCK:   -0.56 KCAL/MOL
REMARK 927      BINDING AFFINITY PREDICTED BY RF-SCORE:    0.00 PKD
ROOT
HETATM    1  C   UNL     1     -12.450  12.130  63.692  1.00  0.00    -0.658 C  
HETATM    2  C   UNL     1     -12.289  12.998  64.942  1.00  0.00    -0.512 C  
HETATM    3  C   UNL     1     -12.581  14.459  64.614  1.00  0.00    -0.256 C  
HETATM    4  C   UNL     1     -11.396  15.375  64.582  1.00  0.00    -0.355 C  
HETATM    5  N   UNL     1     -10.206  14.884  65.025  1.00  0.00    -0.369 N  
HETATM    6  O   UNL     1     -11.498  16.542  64.202  1.00  0.00    -1.059 OA 
HETATM    7  H   UNL     1      -9.404  15.509  64.952  1.00  0.00     0.000 HD 
HETATM    8  N   UNL     1      -9.968  13.662  65.552  1.00  0.00    -0.261 NA 
HETATM    9  C   UNL     1     -10.913  12.771  65.564  1.00  0.00    -0.280 C  
ENDROOT
BRANCH   9  10
HETATM   10  C   UNL     1     -10.608  11.452  66.222  1.00  0.00    -0.312 A  
HETATM   11  C   UNL     1      -9.945  10.428  65.542  1.00  0.00    -0.348 A  
HETATM   12  C   UNL     1      -9.754   9.184  66.154  1.00  0.00    -0.357 A  
HETATM   13  C   UNL     1     -10.214   8.927  67.452  1.00  0.00    -0.249 A  
HETATM   14  C   UNL     1     -10.874   9.957  68.131  1.00  0.00    -0.282 A  
HETATM   15  C   UNL     1     -11.062  11.211  67.527  1.00  0.00    -0.353 A  
BRANCH  13  16
HETATM   16  N   UNL     1     -10.075   7.653  68.046  1.00  0.00    -0.179 NA 
HETATM   17  H   UNL     1      -9.170   7.187  68.113  1.00  0.00     0.000 HD 
BRANCH  16  18
HETATM   18  N   UNL     1     -11.221   7.078  68.527  1.00  0.00    -0.494 NA 
HETATM   19  H   UNL     1     -12.099   7.185  68.018  1.00  0.00     0.000 HD 
BRANCH  18  20
HETATM   20  C   UNL     1     -11.191   6.394  69.635  1.00  0.00    -0.418 C  
HETATM   21  C   UNL     1     -12.019   6.918  70.688  1.00  0.00    -0.348 C  
HETATM   22  C   UNL     1     -10.386   5.219  69.780  1.00  0.00    -0.299 C  
HETATM   23  N   UNL     1      -9.746   4.252  69.867  1.00  0.00    -0.213 NA 
HETATM   24  N   UNL     1     -12.697   7.316  71.542  1.00  0.00    -0.370 NA 
ENDBRANCH  18  20
ENDBRANCH  16  18
ENDBRANCH  13  16
ENDBRANCH   9  10
TORSDOF 4
ENDMDL
MODEL       14
REMARK 921   NORMALIZED FREE ENERGY PREDICTED BY IDOCK:   -6.34 KCAL/MOL
REMARK 922        TOTAL FREE ENERGY PREDICTED BY IDOCK:   -8.53 KCAL/MOL
REMARK 923 INTER-LIGAND FREE ENERGY PREDICTED BY IDOCK:   -8.02 KCAL/MOL
REMARK 924 INTRA-LIGAND FREE ENERGY PREDICTED BY IDOCK:   -0.51 KCAL/MOL
REMARK 927      BINDING AFFINITY PREDICTED BY RF-SCORE:    0.00 PKD
ROOT
HETATM    1  C   UNL     1     -10.305  15.000  67.857  1.00  0.00    -0.241 C  
HETATM    2  C   UNL     1     -10.335  14.257  66.519  1.00  0.00    -0.278 C  
HETATM    3  C   UNL     1     -10.444  15.249  65.365  1.00  0.00    -0.422 C  
HETATM    4  C   UNL     1     -11.765  15.296  64.661  1.00  0.00    -0.308 C  
HETATM    5  N   UNL     1     -12.681  14.340  64.974  1.00  0.00    -0.655 N  
HETATM    6  O   UNL     1     -12.004  16.148  63.804  1.00  0.00    -0.926 OA 
HETATM    7  H   UNL     1     -13.590  14.418  64.517  1.00  0.00     0.000 HD 
HETATM    8  N   UNL     1     -12.524  13.298  65.821  1.00  0.00    -0.442 NA 
HETATM    9  C   UNL     1     -11.440  13.203  66.529  1.00  0.00    -0.338 C  
ENDROOT
BRANCH   9  10
HETATM   10  C   UNL     1     -11.294  11.988  67.406  1.00  0.00    -0.393 A  
HETATM   11  C   UNL     1     -10.680  10.821  66.947  1.00  0.00    -0.309 A  
HETATM   12  C   UNL     1     -10.637   9.681  67.758  1.00  0.00    -0.320 A  
HETATM   13  C   UNL     1     -11.201   9.672  69.041  1.00  0.00     0.011 A  
HETATM   14  C   UNL     1     -11.812  10.845  69.498  1.00  0.00    -0.404 A  
HETATM   15  C   UNL     1     -11.851  11.996  68.693  1.00  0.00    -0.366 A  
BRANCH  13  16
HETATM   16  N   UNL     1     -11.211   8.504  69.835  1.00  0.00    -0.442 NA 
HETATM   17  H   UNL     1     -11.610   7.628  69.497  1.00  0.00     0.000 HD 
BRANCH  16  18
HETATM   18  N   UNL     1     -10.655   8.612  71.082  1.00  0.00    -0.214 NA 
HETATM   19  H   UNL     1      -9.686   8.910  71.184  1.00  0.00     0.000 HD 
BRANCH  18  20
HETATM   20  C   UNL     1     -11.366   8.332  72.137  1.00  0.00    -0.352 C  
HETATM   21  C   UNL     1     -10.680   7.558  73.136  1.00  0.00    -0.398 C  
HETATM   22  C   UNL     1     -12.724   8.765  72.274  1.00  0.00    -0.402 C  
HETATM   23  N   UNL     1     -13.817   9.148  72.377  1.00  0.00    -0.482 NA 
HETATM   24  N   UNL     1     -10.135   6.949  73.961  1.00  0.00    -0.343 NA 
ENDBRANCH  18  20
ENDBRANCH  16  18
ENDBRANCH  13  16
ENDBRANCH   9  10
TORSDOF 4
ENDMDL
MODEL       15
REMARK 921   NORMALIZED FREE ENERGY PREDICTED BY IDOCK:   -6.33 KCAL/MOL
REMARK 922        TOTAL FREE ENERGY PREDICTED BY IDOCK:   -8.52 KCAL/MOL
REMARK 923 INTER-LIGAND FREE ENERGY PREDICTED BY IDOCK:   -7.75 KCAL/MOL
REMARK 924 INTRA-LIGAND FREE ENERGY PREDICTED BY IDOCK:   -0.77 KCAL/MOL
REMARK 927      BINDING AFFINITY PREDICTED BY RF-SCORE:    0.00 PKD
ROOT
HETATM    1  C   UNL     1     -13.477   6.953  71.552  1.00  0.00    -0.290 C  
HETATM    2  C   UNL     1     -11.963   6.750  71.450  1.00  0.00    -0.403 C  
HETATM    3  C   UNL     1     -11.531   5.550  72.287  1.00  0.00    -0.221 C  
HETATM    4  C   UNL     1     -10.779   5.862  73.545  1.00  0.00    -0.259 C  
HETATM    5  N   UNL     1     -10.383   7.150  73.740  1.00  0.00    -0.362 N  
HETATM    6  O   UNL     1     -10.498   4.981  74.358  1.00  0.00    -0.268 OA 
HETATM    7  H   UNL     1      -9.913   7.349  74.624  1.00  0.00     0.000 HD 
HETATM    8  N   UNL     1     -10.541   8.194  72.897  1.00  0.00    -0.327 NA 
HETATM    9  C   UNL     1     -11.235   8.044  71.810  1.00  0.00    -0.266 C  
ENDROOT
BRANCH   9  10
HETATM   10  C   UNL     1     -11.322   9.223  70.879  1.00  0.00    -0.373 A  
HETATM   11  C   UNL     1     -12.035  10.375  71.216  1.00  0.00    -0.425 A  
HETATM   12  C   UNL     1     -12.167  11.419  70.292  1.00  0.00    -0.433 A  
HETATM   13  C   UNL     1     -11.596  11.344  69.016  1.00  0.00    -0.317 A  
HETATM   14  C   UNL     1     -10.878  10.190  68.683  1.00  0.00    -0.272 A  
HETATM   15  C   UNL     1     -10.734   9.143  69.608  1.00  0.00    -0.236 A  
BRANCH  13  16
HETATM   16  N   UNL     1     -11.781  12.371  68.063  1.00  0.00    -0.348 NA 
HETATM   17  H   UNL     1     -11.769  13.357  68.325  1.00  0.00     0.000 HD 
BRANCH  16  18
HETATM   18  N   UNL     1     -11.977  11.970  66.768  1.00  0.00    -0.610 NA 
HETATM   19  H   UNL     1     -12.127  10.984  66.556  1.00  0.00     0.000 HD 
BRANCH  18  20
HETATM   20  C   UNL     1     -11.972  12.850  65.807  1.00  0.00    -0.443 C  
HETATM   21  C   UNL     1     -11.450  14.139  66.174  1.00  0.00    -0.347 C  
HETATM   22  C   UNL     1     -12.457  12.543  64.495  1.00  0.00    -0.459 C  
HETATM   23  N   UNL     1     -12.831  12.265  63.430  1.00  0.00    -0.760 NA 
HETATM   24  N   UNL     1     -11.013  15.179  66.448  1.00  0.00    -0.334 NA 
ENDBRANCH  18  20
ENDBRANCH  16  18
ENDBRANCH  13  16
ENDBRANCH   9  10
TORSDOF 4
ENDMDL
MODEL       16
REMARK 921   NORMALIZED FREE ENERGY PREDICTED BY IDOCK:   -6.30 KCAL/MOL
REMARK 922        TOTAL FREE ENERGY PREDICTED BY IDOCK:   -8.48 KCAL/MOL
REMARK 923 INTER-LIGAND FREE ENERGY PREDICTED BY IDOCK:   -7.88 KCAL/MOL
REMARK 924 INTRA-LIGAND FREE ENERGY PREDICTED BY IDOCK:   -0.60 KCAL/MOL
REMARK 927      BINDING AFFINITY PREDICTED BY RF-SCORE:    0.00 PKD
ROOT
HETATM    1  C   UNL     1     -10.156  14.678  67.625  1.00  0.00    -0.228 C  
HETATM    2  C   UNL     1     -10.376  13.887  66.332  1.00  0.00    -0.289 C  
HETATM    3  C   UNL     1     -10.528  14.838  65.149  1.00  0.00    -0.443 C  
HETATM    4  C   UNL     1     -11.907  14.959  64.576  1.00  0.00    -0.396 C  
HETATM    5  N   UNL     1     -12.853  14.088  65.022  1.00  0.00    -0.732 N  
HETATM    6  O   UNL     1     -12.169  15.791  63.707  1.00  0.00    -0.699 OA 
HETATM    7  H   UNL     1     -13.796  14.218  64.653  1.00  0.00     0.000 HD 
HETATM    8  N   UNL     1     -12.687  13.072  65.897  1.00  0.00    -0.378 NA 
HETATM    9  C   UNL     1     -11.547  12.922  66.500  1.00  0.00    -0.371 C  
ENDROOT
BRANCH   9  10
HETATM   10  C   UNL     1     -11.401  11.735  67.414  1.00  0.00    -0.376 A  
HETATM   11  C   UNL     1     -11.877  11.756  68.726  1.00  0.00    -0.380 A  
HETATM   12  C   UNL     1     -11.649  10.667  69.577  1.00  0.00    -0.360 A  
HETATM   13  C   UNL     1     -10.945   9.536  69.146  1.00  0.00    -0.125 A  
HETATM   14  C   UNL     1     -10.473   9.518  67.828  1.00  0.00    -0.309 A  
HETATM   15  C   UNL     1     -10.706  10.602  66.967  1.00  0.00    -0.317 A  
BRANCH  13  16
HETATM   16  N   UNL     1     -10.662   8.465  70.021  1.00  0.00    -0.236 NA 
HETATM   17  H   UNL     1      -9.759   8.375  70.488  1.00  0.00     0.000 HD 
BRANCH  16  18
HETATM   18  N   UNL     1     -11.666   7.552  70.210  1.00  0.00    -0.493 NA 
HETATM   19  H   UNL     1     -12.071   7.067  69.410  1.00  0.00     0.000 HD 
BRANCH  18  20
HETATM   20  C   UNL     1     -12.103   7.305  71.413  1.00  0.00    -0.335 C  
HETATM   21  C   UNL     1     -13.067   8.250  71.908  1.00  0.00    -0.344 C  
HETATM   22  C   UNL     1     -11.645   6.179  72.170  1.00  0.00    -0.317 C  
HETATM   23  N   UNL     1     -11.280   5.245  72.757  1.00  0.00    -0.285 NA 
HETATM   24  N   UNL     1     -13.860   8.993  72.316  1.00  0.00    -0.471 NA 
ENDBRANCH  18  20
ENDBRANCH  16  18
ENDBRANCH  13  16
ENDBRANCH   9  10
TORSDOF 4
ENDMDL
MODEL       17
REMARK 921   NORMALIZED FREE ENERGY PREDICTED BY IDOCK:   -6.26 KCAL/MOL
REMARK 922        TOTAL FREE ENERGY PREDICTED BY IDOCK:   -8.44 KCAL/MOL
REMARK 923 INTER-LIGAND FREE ENERGY PREDICTED BY IDOCK:   -7.98 KCAL/MOL
REMARK 924 INTRA-LIGAND FREE ENERGY PREDICTED BY IDOCK:   -0.46 KCAL/MOL
REMARK 927      BINDING AFFINITY PREDICTED BY RF-SCORE:    0.00 PKD
ROOT
HETATM    1  C   UNL     1     -12.106  12.342  63.567  1.00  0.00    -0.649 C  
HETATM    2  C   UNL     1     -12.209  13.231  64.809  1.00  0.00    -0.466 C  
HETATM    3  C   UNL     1     -12.435  14.684  64.402  1.00  0.00    -0.312 C  
HETATM    4  C   UNL     1     -11.274  15.610  64.598  1.00  0.00    -0.369 C  
HETATM    5  N   UNL     1     -10.198  15.136  65.284  1.00  0.00    -0.370 N  
HETATM    6  O   UNL     1     -11.302  16.770  64.186  1.00  0.00    -1.194 OA 
HETATM    7  H   UNL     1      -9.400  15.767  65.366  1.00  0.00     0.000 HD 
HETATM    8  N   UNL     1     -10.066  13.925  65.869  1.00  0.00    -0.309 NA 
HETATM    9  C   UNL     1     -10.988  13.026  65.703  1.00  0.00    -0.273 C  
ENDROOT
BRANCH   9  10
HETATM   10  C   UNL     1     -10.817  11.720  66.431  1.00  0.00    -0.325 A  
HETATM   11  C   UNL     1     -10.223  10.612  65.823  1.00  0.00    -0.317 A  
HETATM   12  C   UNL     1     -10.158   9.387  66.499  1.00  0.00    -0.332 A  
HETATM   13  C   UNL     1     -10.679   9.234  67.790  1.00  0.00    -0.207 A  
HETATM   14  C   UNL     1     -11.270  10.348  68.397  1.00  0.00    -0.318 A  
HETATM   15  C   UNL     1     -11.331  11.582  67.730  1.00  0.00    -0.364 A  
BRANCH  13  16
HETATM   16  N   UNL     1     -10.668   7.984  68.447  1.00  0.00    -0.412 NA 
HETATM   17  H   UNL     1     -10.353   7.886  69.413  1.00  0.00     0.000 HD 
BRANCH  16  18
HETATM   18  N   UNL     1     -11.102   6.909  67.717  1.00  0.00    -0.541 NA 
HETATM   19  H   UNL     1     -11.844   7.027  67.028  1.00  0.00     0.000 HD 
BRANCH  18  20
HETATM   20  C   UNL     1     -10.566   5.736  67.904  1.00  0.00    -0.231 C  
HETATM   21  C   UNL     1     -10.362   4.971  66.704  1.00  0.00    -0.270 C  
HETATM   22  C   UNL     1     -10.220   5.259  69.209  1.00  0.00    -0.231 C  
HETATM   23  N   UNL     1      -9.922   4.902  70.275  1.00  0.00    -0.234 NA 
HETATM   24  N   UNL     1     -10.172   4.347  65.743  1.00  0.00    -0.248 NA 
ENDBRANCH  18  20
ENDBRANCH  16  18
ENDBRANCH  13  16
ENDBRANCH   9  10
TORSDOF 4
ENDMDL
MODEL       18
REMARK 921   NORMALIZED FREE ENERGY PREDICTED BY IDOCK:   -6.26 KCAL/MOL
REMARK 922        TOTAL FREE ENERGY PREDICTED BY IDOCK:   -8.43 KCAL/MOL
REMARK 923 INTER-LIGAND FREE ENERGY PREDICTED BY IDOCK:   -7.90 KCAL/MOL
REMARK 924 INTRA-LIGAND FREE ENERGY PREDICTED BY IDOCK:   -0.53 KCAL/MOL
REMARK 927      BINDING AFFINITY PREDICTED BY RF-SCORE:    0.00 PKD
ROOT
HETATM    1  C   UNL     1      -9.234   8.555  71.469  1.00  0.00    -0.288 C  
HETATM    2  C   UNL     1     -10.401   8.426  72.452  1.00  0.00    -0.399 C  
HETATM    3  C   UNL     1     -10.316   7.103  73.205  1.00  0.00    -0.369 C  
HETATM    4  C   UNL     1     -11.330   6.066  72.830  1.00  0.00    -0.242 C  
HETATM    5  N   UNL     1     -12.342   6.444  72.002  1.00  0.00    -0.456 N  
HETATM    6  O   UNL     1     -11.273   4.921  73.280  1.00  0.00    -0.307 OA 
HETATM    7  H   UNL     1     -12.995   5.712  71.723  1.00  0.00     0.000 HD 
HETATM    8  N   UNL     1     -12.581   7.680  71.509  1.00  0.00    -0.333 NA 
HETATM    9  C   UNL     1     -11.727   8.634  71.722  1.00  0.00    -0.331 C  
ENDROOT
BRANCH   9  10
HETATM   10  C   UNL     1     -12.078  10.003  71.204  1.00  0.00    -0.475 A  
HETATM   11  C   UNL     1     -11.500  10.519  70.043  1.00  0.00    -0.393 A  
HETATM   12  C   UNL     1     -11.784  11.829  69.636  1.00  0.00    -0.413 A  
HETATM   13  C   UNL     1     -12.645  12.654  70.370  1.00  0.00    -0.041 A  
HETATM   14  C   UNL     1     -13.226  12.130  71.531  1.00  0.00    -0.270 A  
HETATM   15  C   UNL     1     -12.953  10.815  71.940  1.00  0.00    -0.524 A  
BRANCH  13  16
HETATM   16  N   UNL     1     -12.883  13.994  69.993  1.00  0.00    -0.328 NA 
HETATM   17  H   UNL     1     -12.733  14.319  69.037  1.00  0.00     0.000 HD 
BRANCH  16  18
HETATM   18  N   UNL     1     -13.327  14.833  70.979  1.00  0.00    -0.458 NA 
HETATM   19  H   UNL     1     -14.309  14.823  71.255  1.00  0.00     0.000 HD 
BRANCH  18  20
HETATM   20  C   UNL     1     -12.495  15.646  71.567  1.00  0.00    -0.437 C  
HETATM   21  C   UNL     1     -11.482  16.195  70.705  1.00  0.00    -0.378 C  
HETATM   22  C   UNL     1     -12.591  15.954  72.961  1.00  0.00    -0.501 C  
HETATM   23  N   UNL     1     -12.703  16.211  74.090  1.00  0.00    -0.714 NA 
HETATM   24  N   UNL     1     -10.670  16.662  70.020  1.00  0.00    -0.244 NA 
ENDBRANCH  18  20
ENDBRANCH  16  18
ENDBRANCH  13  16
ENDBRANCH   9  10
TORSDOF 4
ENDMDL
MODEL       19
REMARK 921   NORMALIZED FREE ENERGY PREDICTED BY IDOCK:   -6.25 KCAL/MOL
REMARK 922        TOTAL FREE ENERGY PREDICTED BY IDOCK:   -8.42 KCAL/MOL
REMARK 923 INTER-LIGAND FREE ENERGY PREDICTED BY IDOCK:   -7.77 KCAL/MOL
REMARK 924 INTRA-LIGAND FREE ENERGY PREDICTED BY IDOCK:   -0.65 KCAL/MOL
REMARK 927      BINDING AFFINITY PREDICTED BY RF-SCORE:    0.00 PKD
ROOT
HETATM    1  C   UNL     1     -13.609   7.028  71.609  1.00  0.00    -0.346 C  
HETATM    2  C   UNL     1     -12.106   6.767  71.479  1.00  0.00    -0.410 C  
HETATM    3  C   UNL     1     -11.709   5.538  72.293  1.00  0.00    -0.127 C  
HETATM    4  C   UNL     1     -10.926   5.802  73.542  1.00  0.00    -0.168 C  
HETATM    5  N   UNL     1     -10.475   7.070  73.748  1.00  0.00    -0.398 N  
HETATM    6  O   UNL     1     -10.666   4.899  74.338  1.00  0.00    -0.327 OA 
HETATM    7  H   UNL     1      -9.983   7.237  74.626  1.00  0.00     0.000 HD 
HETATM    8  N   UNL     1     -10.604   8.131  72.922  1.00  0.00    -0.327 NA 
HETATM    9  C   UNL     1     -11.321   8.025  71.845  1.00  0.00    -0.283 C  
ENDROOT
BRANCH   9  10
HETATM   10  C   UNL     1     -11.375   9.220  70.931  1.00  0.00    -0.373 A  
HETATM   11  C   UNL     1     -12.050  10.389  71.290  1.00  0.00    -0.461 A  
HETATM   12  C   UNL     1     -12.154  11.450  70.382  1.00  0.00    -0.473 A  
HETATM   13  C   UNL     1     -11.593  11.376  69.101  1.00  0.00    -0.314 A  
HETATM   14  C   UNL     1     -10.915  10.204  68.747  1.00  0.00    -0.264 A  
HETATM   15  C   UNL     1     -10.798   9.139  69.655  1.00  0.00    -0.210 A  
BRANCH  13  16
HETATM   16  N   UNL     1     -11.750  12.421  68.165  1.00  0.00    -0.341 NA 
HETATM   17  H   UNL     1     -11.784  13.400  68.452  1.00  0.00     0.000 HD 
BRANCH  16  18
HETATM   18  N   UNL     1     -11.855  12.050  66.851  1.00  0.00    -0.616 NA 
HETATM   19  H   UNL     1     -11.867  11.062  66.599  1.00  0.00     0.000 HD 
BRANCH  18  20
HETATM   20  C   UNL     1     -11.940  12.961  65.922  1.00  0.00    -0.448 C  
HETATM   21  C   UNL     1     -12.531  12.510  64.691  1.00  0.00    -0.463 C  
HETATM   22  C   UNL     1     -11.471  14.298  66.125  1.00  0.00    -0.355 C  
HETATM   23  N   UNL     1     -11.108  15.385  66.321  1.00  0.00    -0.278 NA 
HETATM   24  N   UNL     1     -13.023  12.168  63.696  1.00  0.00    -0.790 NA 
ENDBRANCH  18  20
ENDBRANCH  16  18
ENDBRANCH  13  16
ENDBRANCH   9  10
TORSDOF 4
ENDMDL
MODEL       20
REMARK 921   NORMALIZED FREE ENERGY PREDICTED BY IDOCK:   -6.24 KCAL/MOL
REMARK 922        TOTAL FREE ENERGY PREDICTED BY IDOCK:   -8.41 KCAL/MOL
REMARK 923 INTER-LIGAND FREE ENERGY PREDICTED BY IDOCK:   -8.13 KCAL/MOL
REMARK 924 INTRA-LIGAND FREE ENERGY PREDICTED BY IDOCK:   -0.28 KCAL/MOL
REMARK 927      BINDING AFFINITY PREDICTED BY RF-SCORE:    0.00 PKD
ROOT
HETATM    1  C   UNL     1     -11.059  15.899  68.105  1.00  0.00    -0.338 C  
HETATM    2  C   UNL     1     -10.743  14.938  66.956  1.00  0.00    -0.307 C  
HETATM    3  C   UNL     1     -10.688  15.694  65.632  1.00  0.00    -0.376 C  
HETATM    4  C   UNL     1     -11.830  15.457  64.692  1.00  0.00    -0.218 C  
HETATM    5  N   UNL     1     -12.708  14.464  65.002  1.00  0.00    -0.599 N  
HETATM    6  O   UNL     1     -11.952  16.111  63.655  1.00  0.00    -0.826 OA 
HETATM    7  H   UNL     1     -13.502  14.351  64.373  1.00  0.00     0.000 HD 
HETATM    8  N   UNL     1     -12.646  13.612  66.050  1.00  0.00    -0.424 NA 
HETATM    9  C   UNL     1     -11.733  13.774  66.958  1.00  0.00    -0.390 C  
ENDROOT
BRANCH   9  10
HETATM   10  C   UNL     1     -11.673  12.757  68.066  1.00  0.00    -0.405 A  
HETATM   11  C   UNL     1     -11.336  11.424  67.821  1.00  0.00    -0.354 A  
HETATM   12  C   UNL     1     -11.374  10.485  68.859  1.00  0.00    -0.313 A  
HETATM   13  C   UNL     1     -11.747  10.846  70.161  1.00  0.00    -0.347 A  
HETATM   14  C   UNL     1     -12.080  12.184  70.402  1.00  0.00    -0.395 A  
HETATM   15  C   UNL     1     -12.036  13.133  69.368  1.00  0.00    -0.347 A  
BRANCH  13  16
HETATM   16  N   UNL     1     -11.844   9.887  71.193  1.00  0.00    -0.356 NA 
HETATM   17  H   UNL     1     -11.568  10.099  72.152  1.00  0.00     0.000 HD 
BRANCH  16  18
HETATM   18  N   UNL     1     -12.329   8.657  70.837  1.00  0.00    -0.485 NA 
HETATM   19  H   UNL     1     -13.258   8.575  70.424  1.00  0.00     0.000 HD 
BRANCH  18  20
HETATM   20  C   UNL     1     -11.604   7.591  71.027  1.00  0.00    -0.283 C  
HETATM   21  C   UNL     1     -11.140   7.412  72.376  1.00  0.00    -0.287 C  
HETATM   22  C   UNL     1     -11.299   6.682  69.964  1.00  0.00    -0.382 C  
HETATM   23  N   UNL     1     -11.085   5.943  69.092  1.00  0.00    -0.326 NA 
HETATM   24  N   UNL     1     -10.773   7.243  73.465  1.00  0.00    -0.374 NA 
ENDBRANCH  18  20
ENDBRANCH  16  18
ENDBRANCH  13  16
ENDBRANCH   9  10
TORSDOF 4
ENDMDL
MODEL       21
REMARK 921   NORMALIZED FREE ENERGY PREDICTED BY IDOCK:   -6.24 KCAL/MOL
REMARK 922        TOTAL FREE ENERGY PREDICTED BY IDOCK:   -8.41 KCAL/MOL
REMARK 923 INTER-LIGAND FREE ENERGY PREDICTED BY IDOCK:   -7.80 KCAL/MOL
REMARK 924 INTRA-LIGAND FREE ENERGY PREDICTED BY IDOCK:   -0.61 KCAL/MOL
REMARK 927      BINDING AFFINITY PREDICTED BY RF-SCORE:    0.00 PKD
ROOT
HETATM    1  C   UNL     1      -8.804   8.218  72.770  1.00  0.00    -0.310 C  
HETATM    2  C   UNL     1     -10.290   7.934  72.998  1.00  0.00    -0.401 C  
HETATM    3  C   UNL     1     -10.464   6.742  73.934  1.00  0.00    -0.356 C  
HETATM    4  C   UNL     1     -10.957   5.476  73.302  1.00  0.00    -0.292 C  
HETATM    5  N   UNL     1     -11.382   5.539  72.011  1.00  0.00    -0.172 N  
HETATM    6  O   UNL     1     -11.009   4.422  73.937  1.00  0.00    -0.266 OA 
HETATM    7  H   UNL     1     -11.669   4.658  71.586  1.00  0.00     0.000 HD 
HETATM    8  N   UNL     1     -11.467   6.638  71.228  1.00  0.00    -0.295 NA 
HETATM    9  C   UNL     1     -11.005   7.772  71.658  1.00  0.00    -0.235 C  
ENDROOT
BRANCH   9  10
HETATM   10  C   UNL     1     -11.186   8.973  70.768  1.00  0.00    -0.329 A  
HETATM   11  C   UNL     1     -11.949  10.073  71.165  1.00  0.00    -0.484 A  
HETATM   12  C   UNL     1     -12.168  11.135  70.280  1.00  0.00    -0.436 A  
HETATM   13  C   UNL     1     -11.637  11.131  68.984  1.00  0.00    -0.324 A  
HETATM   14  C   UNL     1     -10.870  10.027  68.592  1.00  0.00    -0.265 A  
HETATM   15  C   UNL     1     -10.638   8.962  69.477  1.00  0.00    -0.233 A  
BRANCH  13  16
HETATM   16  N   UNL     1     -11.909  12.173  68.071  1.00  0.00    -0.465 NA 
HETATM   17  H   UNL     1     -12.153  13.113  68.384  1.00  0.00     0.000 HD 
BRANCH  16  18
HETATM   18  N   UNL     1     -11.826  11.855  66.741  1.00  0.00    -0.607 NA 
HETATM   19  H   UNL     1     -11.747  10.879  66.454  1.00  0.00     0.000 HD 
BRANCH  18  20
HETATM   20  C   UNL     1     -11.848  12.799  65.843  1.00  0.00    -0.437 C  
HETATM   21  C   UNL     1     -12.426  12.416  64.583  1.00  0.00    -0.420 C  
HETATM   22  C   UNL     1     -11.328  14.107  66.105  1.00  0.00    -0.337 C  
HETATM   23  N   UNL     1     -10.924  15.170  66.346  1.00  0.00    -0.334 NA 
HETATM   24  N   UNL     1     -12.907  12.130  63.566  1.00  0.00    -0.796 NA 
ENDBRANCH  18  20
ENDBRANCH  16  18
ENDBRANCH  13  16
ENDBRANCH   9  10
TORSDOF 4
ENDMDL
MODEL       22
REMARK 921   NORMALIZED FREE ENERGY PREDICTED BY IDOCK:   -6.24 KCAL/MOL
REMARK 922        TOTAL FREE ENERGY PREDICTED BY IDOCK:   -8.41 KCAL/MOL
REMARK 923 INTER-LIGAND FREE ENERGY PREDICTED BY IDOCK:   -7.75 KCAL/MOL
REMARK 924 INTRA-LIGAND FREE ENERGY PREDICTED BY IDOCK:   -0.65 KCAL/MOL
REMARK 927      BINDING AFFINITY PREDICTED BY RF-SCORE:    0.00 PKD
ROOT
HETATM    1  C   UNL     1      -8.921   8.848  71.147  1.00  0.00    -0.305 C  
HETATM    2  C   UNL     1     -10.327   8.861  71.753  1.00  0.00    -0.426 C  
HETATM    3  C   UNL     1     -10.492   7.704  72.734  1.00  0.00    -0.368 C  
HETATM    4  C   UNL     1     -11.372   6.579  72.281  1.00  0.00    -0.282 C  
HETATM    5  N   UNL     1     -12.090   6.760  71.139  1.00  0.00    -0.369 N  
HETATM    6  O   UNL     1     -11.471   5.540  72.935  1.00  0.00    -0.304 OA 
HETATM    7  H   UNL     1     -12.646   5.965  70.824  1.00  0.00     0.000 HD 
HETATM    8  N   UNL     1     -12.150   7.873  70.375  1.00  0.00     0.117 NA 
HETATM    9  C   UNL     1     -11.376   8.881  70.644  1.00  0.00    -0.259 C  
ENDROOT
BRANCH   9  10
HETATM   10  C   UNL     1     -11.534  10.116  69.798  1.00  0.00    -0.288 A  
HETATM   11  C   UNL     1     -11.082  10.165  68.478  1.00  0.00    -0.266 A  
HETATM   12  C   UNL     1     -11.167  11.356  67.747  1.00  0.00    -0.346 A  
HETATM   13  C   UNL     1     -11.699  12.524  68.309  1.00  0.00    -0.340 A  
HETATM   14  C   UNL     1     -12.154  12.469  69.631  1.00  0.00    -0.272 A  
HETATM   15  C   UNL     1     -12.082  11.275  70.367  1.00  0.00    -0.474 A  
BRANCH  13  16
HETATM   16  N   UNL     1     -11.728  13.741  67.592  1.00  0.00    -0.346 NA 
HETATM   17  H   UNL     1     -12.259  14.547  67.922  1.00  0.00     0.000 HD 
BRANCH  16  18
HETATM   18  N   UNL     1     -11.004  13.780  66.431  1.00  0.00    -0.297 NA 
HETATM   19  H   UNL     1     -10.016  13.527  66.436  1.00  0.00     0.000 HD 
BRANCH  18  20
HETATM   20  C   UNL     1     -11.578  14.140  65.317  1.00  0.00    -0.341 C  
HETATM   21  C   UNL     1     -12.408  13.132  64.715  1.00  0.00    -0.423 C  
HETATM   22  C   UNL     1     -11.382  15.440  64.750  1.00  0.00    -0.376 C  
HETATM   23  N   UNL     1     -11.230  16.510  64.320  1.00  0.00    -1.010 NA 
HETATM   24  N   UNL     1     -13.098  12.337  64.225  1.00  0.00    -0.778 NA 
ENDBRANCH  18  20
ENDBRANCH  16  18
ENDBRANCH  13  16
ENDBRANCH   9  10
TORSDOF 4
ENDMDL
MODEL       23
REMARK 921   NORMALIZED FREE ENERGY PREDICTED BY IDOCK:   -6.24 KCAL/MOL
REMARK 922        TOTAL FREE ENERGY PREDICTED BY IDOCK:   -8.41 KCAL/MOL
REMARK 923 INTER-LIGAND FREE ENERGY PREDICTED BY IDOCK:   -7.74 KCAL/MOL
REMARK 924 INTRA-LIGAND FREE ENERGY PREDICTED BY IDOCK:   -0.67 KCAL/MOL
REMARK 927      BINDING AFFINITY PREDICTED BY RF-SCORE:    0.00 PKD
ROOT
HETATM    1  C   UNL     1     -12.566  11.487  71.119  1.00  0.00    -0.463 C  
HETATM    2  C   UNL     1     -12.142  10.113  70.594  1.00  0.00    -0.411 C  
HETATM    3  C   UNL     1     -12.399   9.041  71.649  1.00  0.00    -0.416 C  
HETATM    4  C   UNL     1     -11.185   8.472  72.317  1.00  0.00    -0.362 C  
HETATM    5  N   UNL     1      -9.968   8.808  71.808  1.00  0.00    -0.301 N  
HETATM    6  O   UNL     1     -11.282   7.698  73.270  1.00  0.00    -0.358 OA 
HETATM    7  H   UNL     1      -9.154   8.447  72.306  1.00  0.00     0.000 HD 
HETATM    8  N   UNL     1      -9.716   9.567  70.718  1.00  0.00    -0.261 NA 
HETATM    9  C   UNL     1     -10.695  10.161  70.107  1.00  0.00    -0.300 C  
ENDROOT
BRANCH   9  10
HETATM   10  C   UNL     1     -10.361  10.939  68.862  1.00  0.00    -0.222 A  
HETATM   11  C   UNL     1      -9.188  11.689  68.758  1.00  0.00    -0.042 A  
HETATM   12  C   UNL     1      -8.949  12.470  67.620  1.00  0.00    -0.185 A  
HETATM   13  C   UNL     1      -9.866  12.524  66.563  1.00  0.00    -0.246 A  
HETATM   14  C   UNL     1     -11.038  11.768  66.670  1.00  0.00    -0.364 A  
HETATM   15  C   UNL     1     -11.281  10.975  67.804  1.00  0.00    -0.374 A  
BRANCH  13  16
HETATM   16  N   UNL     1      -9.653  13.359  65.444  1.00  0.00    -0.506 NA 
HETATM   17  H   UNL     1      -9.664  12.994  64.491  1.00  0.00     0.000 HD 
BRANCH  16  18
HETATM   18  N   UNL     1      -9.431  14.684  65.707  1.00  0.00    -0.518 NA 
HETATM   19  H   UNL     1      -8.480  15.052  65.705  1.00  0.00     0.000 HD 
BRANCH  18  20
HETATM   20  C   UNL     1     -10.435  15.475  65.960  1.00  0.00    -0.323 C  
HETATM   21  C   UNL     1     -11.071  16.030  64.796  1.00  0.00    -0.365 C  
HETATM   22  C   UNL     1     -10.856  15.762  67.298  1.00  0.00    -0.298 C  
HETATM   23  N   UNL     1     -11.199  15.961  68.391  1.00  0.00    -0.353 NA 
HETATM   24  N   UNL     1     -11.608  16.472  63.866  1.00  0.00    -1.071 NA 
ENDBRANCH  18  20
ENDBRANCH  16  18
ENDBRANCH  13  16
ENDBRANCH   9  10
TORSDOF 4
ENDMDL
MODEL       24
REMARK 921   NORMALIZED FREE ENERGY PREDICTED BY IDOCK:   -6.21 KCAL/MOL
REMARK 922        TOTAL FREE ENERGY PREDICTED BY IDOCK:   -8.38 KCAL/MOL
REMARK 923 INTER-LIGAND FREE ENERGY PREDICTED BY IDOCK:   -7.75 KCAL/MOL
REMARK 924 INTRA-LIGAND FREE ENERGY PREDICTED BY IDOCK:   -0.63 KCAL/MOL
REMARK 927      BINDING AFFINITY PREDICTED BY RF-SCORE:    0.00 PKD
ROOT
HETATM    1  C   UNL     1      -8.810  15.851  66.200  1.00  0.00    -0.363 C  
HETATM    2  C   UNL     1     -10.241  16.379  66.331  1.00  0.00    -0.325 C  
HETATM    3  C   UNL     1     -10.290  17.867  65.999  1.00  0.00    -0.318 C  
HETATM    4  C   UNL     1     -10.505  18.792  67.157  1.00  0.00    -0.427 C  
HETATM    5  N   UNL     1     -10.823  18.237  68.358  1.00  0.00    -0.236 N  
HETATM    6  O   UNL     1     -10.431  20.014  67.022  1.00  0.00    -0.434 OA 
HETATM    7  H   UNL     1     -10.920  18.882  69.142  1.00  0.00     0.000 HD 
HETATM    8  N   UNL     1     -11.026  16.929  68.629  1.00  0.00    -0.306 NA 
HETATM    9  C   UNL     1     -10.802  16.039  67.710  1.00  0.00    -0.324 C  
ENDROOT
BRANCH   9  10
HETATM   10  C   UNL     1     -11.108  14.605  68.050  1.00  0.00    -0.291 A  
HETATM   11  C   UNL     1     -11.231  13.626  67.062  1.00  0.00    -0.328 A  
HETATM   12  C   UNL     1     -11.601  12.320  67.405  1.00  0.00    -0.425 A  
HETATM   13  C   UNL     1     -11.856  11.956  68.734  1.00  0.00    -0.313 A  
HETATM   14  C   UNL     1     -11.727  12.939  69.721  1.00  0.00    -0.351 A  
HETATM   15  C   UNL     1     -11.348  14.249  69.385  1.00  0.00    -0.325 A  
BRANCH  13  16
HETATM   16  N   UNL     1     -12.288  10.654  69.072  1.00  0.00    -0.779 NA 
HETATM   17  H   UNL     1     -13.260  10.364  68.963  1.00  0.00     0.000 HD 
BRANCH  16  18
HETATM   18  N   UNL     1     -11.330   9.802  69.554  1.00  0.00    -0.419 NA 
HETATM   19  H   UNL     1     -10.651   9.385  68.917  1.00  0.00     0.000 HD 
BRANCH  18  20
HETATM   20  C   UNL     1     -11.287   9.523  70.826  1.00  0.00    -0.321 C  
HETATM   21  C   UNL     1     -12.538   9.681  71.519  1.00  0.00    -0.391 C  
HETATM   22  C   UNL     1     -10.080   9.101  71.470  1.00  0.00    -0.311 C  
HETATM   23  N   UNL     1      -9.096   8.733  71.968  1.00  0.00    -0.360 NA 
HETATM   24  N   UNL     1     -13.544   9.784  72.089  1.00  0.00    -0.398 NA 
ENDBRANCH  18  20
ENDBRANCH  16  18
ENDBRANCH  13  16
ENDBRANCH   9  10
TORSDOF 4
ENDMDL
MODEL       25
REMARK 921   NORMALIZED FREE ENERGY PREDICTED BY IDOCK:   -6.21 KCAL/MOL
REMARK 922        TOTAL FREE ENERGY PREDICTED BY IDOCK:   -8.37 KCAL/MOL
REMARK 923 INTER-LIGAND FREE ENERGY PREDICTED BY IDOCK:   -7.75 KCAL/MOL
REMARK 924 INTRA-LIGAND FREE ENERGY PREDICTED BY IDOCK:   -0.62 KCAL/MOL
REMARK 927      BINDING AFFINITY PREDICTED BY RF-SCORE:    0.00 PKD
ROOT
HETATM    1  C   UNL     1     -10.533  19.940  66.315  1.00  0.00    -0.590 C  
HETATM    2  C   UNL     1      -9.299  19.494  67.104  1.00  0.00    -0.409 C  
HETATM    3  C   UNL     1      -8.093  20.350  66.729  1.00  0.00    -0.283 C  
HETATM    4  C   UNL     1      -7.041  19.677  65.903  1.00  0.00    -0.292 C  
HETATM    5  N   UNL     1      -7.148  18.333  65.716  1.00  0.00    -0.259 N  
HETATM    6  O   UNL     1      -6.091  20.308  65.436  1.00  0.00    -0.192 OA 
HETATM    7  H   UNL     1      -6.447  17.903  65.112  1.00  0.00     0.000 HD 
HETATM    8  N   UNL     1      -8.078  17.504  66.240  1.00  0.00    -0.404 NA 
HETATM    9  C   UNL     1      -9.071  17.995  66.917  1.00  0.00    -0.269 C  
ENDROOT
BRANCH   9  10
HETATM   10  C   UNL     1     -10.038  17.019  67.530  1.00  0.00    -0.294 A  
HETATM   11  C   UNL     1     -10.464  17.140  68.854  1.00  0.00    -0.346 A  
HETATM   12  C   UNL     1     -11.297  16.166  69.420  1.00  0.00    -0.323 A  
HETATM   13  C   UNL     1     -11.725  15.053  68.685  1.00  0.00    -0.337 A  
HETATM   14  C   UNL     1     -11.300  14.938  67.357  1.00  0.00    -0.354 A  
HETATM   15  C   UNL     1     -10.472  15.915  66.781  1.00  0.00    -0.309 A  
BRANCH  13  16
HETATM   16  N   UNL     1     -12.515  14.041  69.273  1.00  0.00    -0.453 NA 
HETATM   17  H   UNL     1     -13.504  13.929  69.046  1.00  0.00     0.000 HD 
BRANCH  16  18
HETATM   18  N   UNL     1     -11.882  13.217  70.165  1.00  0.00    -0.496 NA 
HETATM   19  H   UNL     1     -10.866  13.127  70.145  1.00  0.00     0.000 HD 
BRANCH  18  20
HETATM   20  C   UNL     1     -12.578  12.547  71.040  1.00  0.00    -0.256 C  
HETATM   21  C   UNL     1     -13.355  13.358  71.938  1.00  0.00    -0.451 C  
HETATM   22  C   UNL     1     -12.555  11.117  71.094  1.00  0.00    -0.409 C  
HETATM   23  N   UNL     1     -12.542   9.954  71.102  1.00  0.00    -0.343 NA 
HETATM   24  N   UNL     1     -14.003  13.997  72.659  1.00  0.00    -0.682 NA 
ENDBRANCH  18  20
ENDBRANCH  16  18
ENDBRANCH  13  16
ENDBRANCH   9  10
TORSDOF 4
ENDMDL
MODEL       26
REMARK 921   NORMALIZED FREE ENERGY PREDICTED BY IDOCK:   -6.20 KCAL/MOL
REMARK 922        TOTAL FREE ENERGY PREDICTED BY IDOCK:   -8.36 KCAL/MOL
REMARK 923 INTER-LIGAND FREE ENERGY PREDICTED BY IDOCK:   -7.85 KCAL/MOL
REMARK 924 INTRA-LIGAND FREE ENERGY PREDICTED BY IDOCK:   -0.51 KCAL/MOL
REMARK 927      BINDING AFFINITY PREDICTED BY RF-SCORE:    0.00 PKD
ROOT
HETATM    1  C   UNL     1     -12.356  14.121  69.998  1.00  0.00    -0.403 C  
HETATM    2  C   UNL     1     -11.269  13.465  69.144  1.00  0.00    -0.300 C  
HETATM    3  C   UNL     1     -11.003  14.297  67.893  1.00  0.00    -0.278 C  
HETATM    4  C   UNL     1     -11.496  13.719  66.602  1.00  0.00    -0.345 C  
HETATM    5  N   UNL     1     -11.960  12.440  66.620  1.00  0.00    -0.317 N  
HETATM    6  O   UNL     1     -11.451  14.363  65.553  1.00  0.00    -0.327 OA 
HETATM    7  H   UNL     1     -12.333  12.082  65.740  1.00  0.00     0.000 HD 
HETATM    8  N   UNL     1     -11.983  11.590  67.670  1.00  0.00    -0.634 NA 
HETATM    9  C   UNL     1     -11.639  12.013  68.848  1.00  0.00    -0.321 C  
ENDROOT
BRANCH   9  10
HETATM   10  C   UNL     1     -11.622  11.005  69.966  1.00  0.00    -0.427 A  
HETATM   11  C   UNL     1     -10.506  10.203  70.215  1.00  0.00    -0.284 A  
HETATM   12  C   UNL     1     -10.555   9.216  71.207  1.00  0.00    -0.399 A  
HETATM   13  C   UNL     1     -11.708   9.001  71.972  1.00  0.00    -0.347 A  
HETATM   14  C   UNL     1     -12.823   9.810  71.721  1.00  0.00    -0.530 A  
HETATM   15  C   UNL     1     -12.779  10.808  70.734  1.00  0.00    -0.451 A  
BRANCH  13  16
HETATM   16  N   UNL     1     -11.777   7.966  72.929  1.00  0.00    -0.606 NA 
HETATM   17  H   UNL     1     -11.512   8.115  73.904  1.00  0.00     0.000 HD 
BRANCH  16  18
HETATM   18  N   UNL     1     -12.219   6.750  72.480  1.00  0.00    -0.505 NA 
HETATM   19  H   UNL     1     -13.209   6.610  72.277  1.00  0.00     0.000 HD 
BRANCH  18  20
HETATM   20  C   UNL     1     -11.374   5.772  72.310  1.00  0.00    -0.278 C  
HETATM   21  C   UNL     1     -11.086   5.015  73.499  1.00  0.00    -0.317 C  
HETATM   22  C   UNL     1     -10.785   5.490  71.037  1.00  0.00    -0.205 C  
HETATM   23  N   UNL     1     -10.339   5.262  69.987  1.00  0.00    -0.289 NA 
HETATM   24  N   UNL     1     -10.856   4.381  74.444  1.00  0.00    -0.281 NA 
ENDBRANCH  18  20
ENDBRANCH  16  18
ENDBRANCH  13  16
ENDBRANCH   9  10
TORSDOF 4
ENDMDL
MODEL       27
REMARK 921   NORMALIZED FREE ENERGY PREDICTED BY IDOCK:   -6.17 KCAL/MOL
REMARK 922        TOTAL FREE ENERGY PREDICTED BY IDOCK:   -8.32 KCAL/MOL
REMARK 923 INTER-LIGAND FREE ENERGY PREDICTED BY IDOCK:   -7.55 KCAL/MOL
REMARK 924 INTRA-LIGAND FREE ENERGY PREDICTED BY IDOCK:   -0.76 KCAL/MOL
REMARK 927      BINDING AFFINITY PREDICTED BY RF-SCORE:    0.00 PKD
ROOT
HETATM    1  C   UNL     1      -8.800   8.428  72.394  1.00  0.00    -0.294 C  
HETATM    2  C   UNL     1     -10.257   8.124  72.752  1.00  0.00    -0.372 C  
HETATM    3  C   UNL     1     -10.326   6.999  73.781  1.00  0.00    -0.408 C  
HETATM    4  C   UNL     1     -10.824   5.679  73.279  1.00  0.00    -0.282 C  
HETATM    5  N   UNL     1     -11.344   5.637  72.022  1.00  0.00    -0.222 N  
HETATM    6  O   UNL     1     -10.798   4.673  73.989  1.00  0.00    -0.285 OA 
HETATM    7  H   UNL     1     -11.635   4.720  71.683  1.00  0.00     0.000 HD 
HETATM    8  N   UNL     1     -11.519   6.673  71.172  1.00  0.00    -0.303 NA 
HETATM    9  C   UNL     1     -11.062   7.847  71.485  1.00  0.00    -0.241 C  
ENDROOT
BRANCH   9  10
HETATM   10  C   UNL     1     -11.344   8.974  70.528  1.00  0.00    -0.282 A  
HETATM   11  C   UNL     1     -10.747   9.034  69.267  1.00  0.00    -0.189 A  
HETATM   12  C   UNL     1     -10.964  10.140  68.436  1.00  0.00    -0.293 A  
HETATM   13  C   UNL     1     -11.775  11.209  68.836  1.00  0.00    -0.337 A  
HETATM   14  C   UNL     1     -12.374  11.143  70.099  1.00  0.00    -0.373 A  
HETATM   15  C   UNL     1     -12.169  10.033  70.934  1.00  0.00    -0.441 A  
BRANCH  13  16
HETATM   16  N   UNL     1     -11.945  12.352  68.023  1.00  0.00    -0.412 NA 
HETATM   17  H   UNL     1     -12.080  13.281  68.422  1.00  0.00     0.000 HD 
BRANCH  16  18
HETATM   18  N   UNL     1     -11.916  12.145  66.669  1.00  0.00    -0.629 NA 
HETATM   19  H   UNL     1     -11.974  11.197  66.297  1.00  0.00     0.000 HD 
BRANCH  18  20
HETATM   20  C   UNL     1     -11.814  13.159  65.857  1.00  0.00    -0.406 C  
HETATM   21  C   UNL     1     -11.356  14.376  66.471  1.00  0.00    -0.350 C  
HETATM   22  C   UNL     1     -12.141  13.054  64.468  1.00  0.00    -0.410 C  
HETATM   23  N   UNL     1     -12.387  12.940  63.337  1.00  0.00    -0.710 NA 
HETATM   24  N   UNL     1     -10.969  15.362  66.946  1.00  0.00    -0.315 NA 
ENDBRANCH  18  20
ENDBRANCH  16  18
ENDBRANCH  13  16
ENDBRANCH   9  10
TORSDOF 4
ENDMDL
MODEL       28
REMARK 921   NORMALIZED FREE ENERGY PREDICTED BY IDOCK:   -6.17 KCAL/MOL
REMARK 922        TOTAL FREE ENERGY PREDICTED BY IDOCK:   -8.32 KCAL/MOL
REMARK 923 INTER-LIGAND FREE ENERGY PREDICTED BY IDOCK:   -8.13 KCAL/MOL
REMARK 924 INTRA-LIGAND FREE ENERGY PREDICTED BY IDOCK:   -0.18 KCAL/MOL
REMARK 927      BINDING AFFINITY PREDICTED BY RF-SCORE:    0.00 PKD
ROOT
HETATM    1  C   UNL     1     -11.748  12.282  64.726  1.00  0.00    -0.419 C  
HETATM    2  C   UNL     1     -12.363  13.470  65.472  1.00  0.00    -0.524 C  
HETATM    3  C   UNL     1     -12.522  14.660  64.532  1.00  0.00    -0.312 C  
HETATM    4  C   UNL     1     -11.581  15.805  64.755  1.00  0.00    -0.173 C  
HETATM    5  N   UNL     1     -10.805  15.774  65.872  1.00  0.00    -0.303 N  
HETATM    6  O   UNL     1     -11.535  16.757  63.976  1.00  0.00    -1.198 OA 
HETATM    7  H   UNL     1     -10.139  16.540  65.981  1.00  0.00     0.000 HD 
HETATM    8  N   UNL     1     -10.816  14.845  66.854  1.00  0.00    -0.313 NA 
HETATM    9  C   UNL     1     -11.548  13.781  66.725  1.00  0.00    -0.370 C  
ENDROOT
BRANCH   9  10
HETATM   10  C   UNL     1     -11.569  12.814  67.879  1.00  0.00    -0.400 A  
HETATM   11  C   UNL     1     -11.411  11.440  67.688  1.00  0.00    -0.359 A  
HETATM   12  C   UNL     1     -11.522  10.561  68.772  1.00  0.00    -0.291 A  
HETATM   13  C   UNL     1     -11.791  11.023  70.067  1.00  0.00    -0.355 A  
HETATM   14  C   UNL     1     -11.945  12.402  70.253  1.00  0.00    -0.371 A  
HETATM   15  C   UNL     1     -11.826  13.291  69.173  1.00  0.00    -0.378 A  
BRANCH  13  16
HETATM   16  N   UNL     1     -11.963  10.132  71.148  1.00  0.00    -0.364 NA 
HETATM   17  H   UNL     1     -11.713  10.389  72.103  1.00  0.00     0.000 HD 
BRANCH  16  18
HETATM   18  N   UNL     1     -12.485   8.902  70.846  1.00  0.00    -0.493 NA 
HETATM   19  H   UNL     1     -13.442   8.825  70.501  1.00  0.00     0.000 HD 
BRANCH  18  20
HETATM   20  C   UNL     1     -11.759   7.831  70.999  1.00  0.00    -0.281 C  
HETATM   21  C   UNL     1     -11.246   7.637  72.328  1.00  0.00    -0.293 C  
HETATM   22  C   UNL     1     -11.497   6.931  69.917  1.00  0.00    -0.242 C  
HETATM   23  N   UNL     1     -11.319   6.199  69.031  1.00  0.00    -0.325 NA 
HETATM   24  N   UNL     1     -10.840   7.455  73.401  1.00  0.00    -0.373 NA 
ENDBRANCH  18  20
ENDBRANCH  16  18
ENDBRANCH  13  16
ENDBRANCH   9  10
TORSDOF 4
ENDMDL
MODEL       29
REMARK 921   NORMALIZED FREE ENERGY PREDICTED BY IDOCK:   -6.16 KCAL/MOL
REMARK 922        TOTAL FREE ENERGY PREDICTED BY IDOCK:   -8.31 KCAL/MOL
REMARK 923 INTER-LIGAND FREE ENERGY PREDICTED BY IDOCK:   -7.63 KCAL/MOL
REMARK 924 INTRA-LIGAND FREE ENERGY PREDICTED BY IDOCK:   -0.68 KCAL/MOL
REMARK 927      BINDING AFFINITY PREDICTED BY RF-SCORE:    0.00 PKD
ROOT
HETATM    1  C   UNL     1     -10.581  18.652  65.982  1.00  0.00    -0.410 C  
HETATM    2  C   UNL     1     -10.122  19.036  67.391  1.00  0.00    -0.443 C  
HETATM    3  C   UNL     1      -9.402  20.380  67.366  1.00  0.00    -0.536 C  
HETATM    4  C   UNL     1      -7.918  20.334  67.567  1.00  0.00    -0.311 C  
HETATM    5  N   UNL     1      -7.368  19.146  67.939  1.00  0.00    -0.246 N  
HETATM    6  O   UNL     1      -7.222  21.342  67.436  1.00  0.00    -0.535 OA 
HETATM    7  H   UNL     1      -6.352  19.126  68.026  1.00  0.00     0.000 HD 
HETATM    8  N   UNL     1      -8.015  17.991  68.207  1.00  0.00    -0.280 NA 
HETATM    9  C   UNL     1      -9.294  17.906  68.000  1.00  0.00    -0.274 C  
ENDROOT
BRANCH   9  10
HETATM   10  C   UNL     1      -9.971  16.616  68.377  1.00  0.00    -0.255 A  
HETATM   11  C   UNL     1      -9.558  15.390  67.852  1.00  0.00    -0.206 A  
HETATM   12  C   UNL     1     -10.264  14.219  68.156  1.00  0.00    -0.231 A  
HETATM   13  C   UNL     1     -11.391  14.238  68.987  1.00  0.00    -0.272 A  
HETATM   14  C   UNL     1     -11.798  15.468  69.515  1.00  0.00    -0.390 A  
HETATM   15  C   UNL     1     -11.091  16.646  69.221  1.00  0.00    -0.199 A  
BRANCH  13  16
HETATM   16  N   UNL     1     -12.138  13.067  69.245  1.00  0.00    -0.249 NA 
HETATM   17  H   UNL     1     -12.916  12.782  68.649  1.00  0.00     0.000 HD 
BRANCH  16  18
HETATM   18  N   UNL     1     -11.760  12.334  70.338  1.00  0.00    -0.534 NA 
HETATM   19  H   UNL     1     -10.786  12.055  70.455  1.00  0.00     0.000 HD 
BRANCH  18  20
HETATM   20  C   UNL     1     -12.647  11.991  71.230  1.00  0.00    -0.252 C  
HETATM   21  C   UNL     1     -12.810  10.572  71.401  1.00  0.00    -0.447 C  
HETATM   22  C   UNL     1     -13.394  12.962  71.969  1.00  0.00    -0.482 C  
HETATM   23  N   UNL     1     -13.971  13.768  72.578  1.00  0.00    -0.727 NA 
HETATM   24  N   UNL     1     -12.941   9.430  71.565  1.00  0.00    -0.351 NA 
ENDBRANCH  18  20
ENDBRANCH  16  18
ENDBRANCH  13  16
ENDBRANCH   9  10
TORSDOF 4
ENDMDL
MODEL       30
REMARK 921   NORMALIZED FREE ENERGY PREDICTED BY IDOCK:   -6.10 KCAL/MOL
REMARK 922        TOTAL FREE ENERGY PREDICTED BY IDOCK:   -8.23 KCAL/MOL
REMARK 923 INTER-LIGAND FREE ENERGY PREDICTED BY IDOCK:   -7.48 KCAL/MOL
REMARK 924 INTRA-LIGAND FREE ENERGY PREDICTED BY IDOCK:   -0.75 KCAL/MOL
REMARK 927      BINDING AFFINITY PREDICTED BY RF-SCORE:    0.00 PKD
ROOT
HETATM    1  C   UNL     1     -11.296   6.244  69.809  1.00  0.00    -0.506 C  
HETATM    2  C   UNL     1     -10.346   6.775  70.885  1.00  0.00    -0.222 C  
HETATM    3  C   UNL     1     -10.036   5.683  71.905  1.00  0.00    -0.235 C  
HETATM    4  C   UNL     1     -10.661   5.850  73.256  1.00  0.00    -0.265 C  
HETATM    5  N   UNL     1     -11.285   7.030  73.522  1.00  0.00    -0.496 N  
HETATM    6  O   UNL     1     -10.585   4.966  74.110  1.00  0.00    -0.265 OA 
HETATM    7  H   UNL     1     -11.743   7.104  74.430  1.00  0.00     0.000 HD 
HETATM    8  N   UNL     1     -11.366   8.114  72.719  1.00  0.00    -0.388 NA 
HETATM    9  C   UNL     1     -10.913   8.051  71.504  1.00  0.00    -0.234 C  
ENDROOT
BRANCH   9  10
HETATM   10  C   UNL     1     -10.972   9.308  70.679  1.00  0.00    -0.336 A  
HETATM   11  C   UNL     1     -12.076  10.163  70.721  1.00  0.00    -0.438 A  
HETATM   12  C   UNL     1     -12.136  11.279  69.877  1.00  0.00    -0.414 A  
HETATM   13  C   UNL     1     -11.105  11.572  68.975  1.00  0.00    -0.245 A  
HETATM   14  C   UNL     1     -10.000  10.714  68.939  1.00  0.00    -0.213 A  
HETATM   15  C   UNL     1      -9.928   9.598  69.789  1.00  0.00    -0.252 A  
BRANCH  13  16
HETATM   16  N   UNL     1     -11.194  12.662  68.081  1.00  0.00    -0.250 NA 
HETATM   17  H   UNL     1     -10.690  13.534  68.245  1.00  0.00     0.000 HD 
BRANCH  16  18
HETATM   18  N   UNL     1     -11.993  12.485  66.983  1.00  0.00    -0.531 NA 
HETATM   19  H   UNL     1     -12.810  11.877  67.039  1.00  0.00     0.000 HD 
BRANCH  18  20
HETATM   20  C   UNL     1     -11.708  13.092  65.866  1.00  0.00    -0.384 C  
HETATM   21  C   UNL     1     -10.809  14.207  66.000  1.00  0.00    -0.297 C  
HETATM   22  C   UNL     1     -12.258  12.674  64.613  1.00  0.00    -0.452 C  
HETATM   23  N   UNL     1     -12.696  12.301  63.602  1.00  0.00    -0.781 NA 
HETATM   24  N   UNL     1     -10.069  15.098  66.088  1.00  0.00    -0.277 NA 
ENDBRANCH  18  20
ENDBRANCH  16  18
ENDBRANCH  13  16
ENDBRANCH   9  10
TORSDOF 4
ENDMDL
MODEL       31
REMARK 921   NORMALIZED FREE ENERGY PREDICTED BY IDOCK:   -6.09 KCAL/MOL
REMARK 922        TOTAL FREE ENERGY PREDICTED BY IDOCK:   -8.23 KCAL/MOL
REMARK 923 INTER-LIGAND FREE ENERGY PREDICTED BY IDOCK:   -7.90 KCAL/MOL
REMARK 924 INTRA-LIGAND FREE ENERGY PREDICTED BY IDOCK:   -0.33 KCAL/MOL
REMARK 927      BINDING AFFINITY PREDICTED BY RF-SCORE:    0.00 PKD
ROOT
HETATM    1  C   UNL     1     -12.817  11.590  71.389  1.00  0.00    -0.489 C  
HETATM    2  C   UNL     1     -12.413  10.289  70.691  1.00  0.00    -0.407 C  
HETATM    3  C   UNL     1     -12.527   9.113  71.656  1.00  0.00    -0.434 C  
HETATM    4  C   UNL     1     -11.234   8.528  72.136  1.00  0.00    -0.362 C  
HETATM    5  N   UNL     1     -10.088   8.958  71.541  1.00  0.00    -0.297 N  
HETATM    6  O   UNL     1     -11.208   7.664  73.013  1.00  0.00    -0.384 OA 
HETATM    7  H   UNL     1      -9.216   8.582  71.914  1.00  0.00     0.000 HD 
HETATM    8  N   UNL     1      -9.974   9.826  70.511  1.00  0.00    -0.248 NA 
HETATM    9  C   UNL     1     -11.028  10.438  70.065  1.00  0.00    -0.308 C  
ENDROOT
BRANCH   9  10
HETATM   10  C   UNL     1     -10.849  11.343  68.876  1.00  0.00    -0.259 A  
HETATM   11  C   UNL     1     -11.903  12.103  68.366  1.00  0.00    -0.360 A  
HETATM   12  C   UNL     1     -11.725  12.868  67.207  1.00  0.00    -0.431 A  
HETATM   13  C   UNL     1     -10.500  12.896  66.528  1.00  0.00    -0.265 A  
HETATM   14  C   UNL     1      -9.445  12.135  67.045  1.00  0.00    -0.201 A  
HETATM   15  C   UNL     1      -9.613  11.373  68.212  1.00  0.00    -0.192 A  
BRANCH  13  16
HETATM   16  N   UNL     1     -10.338  13.619  65.326  1.00  0.00    -0.337 NA 
HETATM   17  H   UNL     1     -10.681  14.575  65.222  1.00  0.00     0.000 HD 
BRANCH  16  18
HETATM   18  N   UNL     1      -9.696  12.968  64.306  1.00  0.00    -0.587 NA 
HETATM   19  H   UNL     1      -8.726  13.194  64.088  1.00  0.00     0.000 HD 
BRANCH  18  20
HETATM   20  C   UNL     1     -10.326  12.061  63.615  1.00  0.00    -0.450 C  
HETATM   21  C   UNL     1     -11.751  12.238  63.547  1.00  0.00    -0.499 C  
HETATM   22  C   UNL     1      -9.638  10.976  62.983  1.00  0.00    -0.364 C  
HETATM   23  N   UNL     1      -9.056  10.117  62.457  1.00  0.00    -0.262 NA 
HETATM   24  N   UNL     1     -12.901  12.377  63.466  1.00  0.00    -0.764 NA 
ENDBRANCH  18  20
ENDBRANCH  16  18
ENDBRANCH  13  16
ENDBRANCH   9  10
TORSDOF 4
ENDMDL
MODEL       32
REMARK 921   NORMALIZED FREE ENERGY PREDICTED BY IDOCK:   -6.09 KCAL/MOL
REMARK 922        TOTAL FREE ENERGY PREDICTED BY IDOCK:   -8.22 KCAL/MOL
REMARK 923 INTER-LIGAND FREE ENERGY PREDICTED BY IDOCK:   -7.66 KCAL/MOL
REMARK 924 INTRA-LIGAND FREE ENERGY PREDICTED BY IDOCK:   -0.56 KCAL/MOL
REMARK 927      BINDING AFFINITY PREDICTED BY RF-SCORE:    0.00 PKD
ROOT
HETATM    1  C   UNL     1      -8.821  16.294  66.125  1.00  0.00    -0.362 C  
HETATM    2  C   UNL     1     -10.184  16.939  66.390  1.00  0.00    -0.326 C  
HETATM    3  C   UNL     1     -10.088  18.455  66.256  1.00  0.00    -0.409 C  
HETATM    4  C   UNL     1     -10.167  19.235  67.532  1.00  0.00    -0.414 C  
HETATM    5  N   UNL     1     -10.501  18.559  68.665  1.00  0.00    -0.394 N  
HETATM    6  O   UNL     1      -9.970  20.451  67.554  1.00  0.00    -0.420 OA 
HETATM    7  H   UNL     1     -10.504  19.099  69.530  1.00  0.00     0.000 HD 
HETATM    8  N   UNL     1     -10.831  17.252  68.774  1.00  0.00    -0.236 NA 
HETATM    9  C   UNL     1     -10.731  16.475  67.739  1.00  0.00    -0.329 C  
ENDROOT
BRANCH   9  10
HETATM   10  C   UNL     1     -11.173  15.046  67.904  1.00  0.00    -0.330 A  
HETATM   11  C   UNL     1     -11.210  14.429  69.156  1.00  0.00    -0.300 A  
HETATM   12  C   UNL     1     -11.544  13.073  69.264  1.00  0.00    -0.367 A  
HETATM   13  C   UNL     1     -11.848  12.301  68.136  1.00  0.00    -0.311 A  
HETATM   14  C   UNL     1     -11.813  12.925  66.884  1.00  0.00    -0.444 A  
HETATM   15  C   UNL     1     -11.489  14.286  66.768  1.00  0.00    -0.380 A  
BRANCH  13  16
HETATM   16  N   UNL     1     -12.124  10.920  68.240  1.00  0.00    -0.810 NA 
HETATM   17  H   UNL     1     -12.021  10.289  67.444  1.00  0.00     0.000 HD 
BRANCH  16  18
HETATM   18  N   UNL     1     -12.538  10.473  69.466  1.00  0.00    -0.662 NA 
HETATM   19  H   UNL     1     -13.440  10.769  69.839  1.00  0.00     0.000 HD 
BRANCH  18  20
HETATM   20  C   UNL     1     -11.780   9.669  70.157  1.00  0.00    -0.089 C  
HETATM   21  C   UNL     1     -10.460   9.477  69.618  1.00  0.00    -0.223 C  
HETATM   22  C   UNL     1     -12.241   9.032  71.353  1.00  0.00    -0.323 C  
HETATM   23  N   UNL     1     -12.627   8.545  72.336  1.00  0.00    -0.377 NA 
HETATM   24  N   UNL     1      -9.385   9.326  69.208  1.00  0.00    -0.155 NA 
ENDBRANCH  18  20
ENDBRANCH  16  18
ENDBRANCH  13  16
ENDBRANCH   9  10
TORSDOF 4
ENDMDL
MODEL       33
REMARK 921   NORMALIZED FREE ENERGY PREDICTED BY IDOCK:   -6.08 KCAL/MOL
REMARK 922        TOTAL FREE ENERGY PREDICTED BY IDOCK:   -8.21 KCAL/MOL
REMARK 923 INTER-LIGAND FREE ENERGY PREDICTED BY IDOCK:   -7.60 KCAL/MOL
REMARK 924 INTRA-LIGAND FREE ENERGY PREDICTED BY IDOCK:   -0.61 KCAL/MOL
REMARK 927      BINDING AFFINITY PREDICTED BY RF-SCORE:    0.00 PKD
ROOT
HETATM    1  C   UNL     1     -13.978   7.459  71.494  1.00  0.00    -0.517 C  
HETATM    2  C   UNL     1     -12.468   7.305  71.296  1.00  0.00    -0.402 C  
HETATM    3  C   UNL     1     -11.988   5.983  71.888  1.00  0.00    -0.185 C  
HETATM    4  C   UNL     1     -11.186   6.080  73.149  1.00  0.00    -0.140 C  
HETATM    5  N   UNL     1     -10.795   7.319  73.554  1.00  0.00    -0.529 N  
HETATM    6  O   UNL     1     -10.860   5.074  73.780  1.00  0.00    -0.279 OA 
HETATM    7  H   UNL     1     -10.289   7.367  74.439  1.00  0.00     0.000 HD 
HETATM    8  N   UNL     1     -10.999   8.494  72.918  1.00  0.00     0.009 NA 
HETATM    9  C   UNL     1     -11.739   8.527  71.851  1.00  0.00    -0.341 C  
ENDROOT
BRANCH   9  10
HETATM   10  C   UNL     1     -11.878   9.851  71.149  1.00  0.00    -0.472 A  
HETATM   11  C   UNL     1     -11.094  10.182  70.042  1.00  0.00    -0.368 A  
HETATM   12  C   UNL     1     -11.187  11.455  69.466  1.00  0.00    -0.322 A  
HETATM   13  C   UNL     1     -12.060  12.426  69.973  1.00  0.00    -0.263 A  
HETATM   14  C   UNL     1     -12.847  12.089  71.080  1.00  0.00    -0.331 A  
HETATM   15  C   UNL     1     -12.765  10.811  71.658  1.00  0.00    -0.520 A  
BRANCH  13  16
HETATM   16  N   UNL     1     -12.110  13.729  69.430  1.00  0.00    -0.337 NA 
HETATM   17  H   UNL     1     -11.753  13.937  68.497  1.00  0.00     0.000 HD 
BRANCH  16  18
HETATM   18  N   UNL     1     -12.664  14.698  70.224  1.00  0.00    -0.511 NA 
HETATM   19  H   UNL     1     -13.642  14.630  70.504  1.00  0.00     0.000 HD 
BRANCH  18  20
HETATM   20  C   UNL     1     -11.941  15.706  70.622  1.00  0.00    -0.402 C  
HETATM   21  C   UNL     1     -12.035  15.996  72.027  1.00  0.00    -0.537 C  
HETATM   22  C   UNL     1     -11.126  16.459  69.716  1.00  0.00    -0.305 C  
HETATM   23  N   UNL     1     -10.451  17.040  68.969  1.00  0.00    -0.334 NA 
HETATM   24  N   UNL     1     -12.084  16.232  73.163  1.00  0.00    -0.519 NA 
ENDBRANCH  18  20
ENDBRANCH  16  18
ENDBRANCH  13  16
ENDBRANCH   9  10
TORSDOF 4
ENDMDL
MODEL       34
REMARK 921   NORMALIZED FREE ENERGY PREDICTED BY IDOCK:   -6.06 KCAL/MOL
REMARK 922        TOTAL FREE ENERGY PREDICTED BY IDOCK:   -8.18 KCAL/MOL
REMARK 923 INTER-LIGAND FREE ENERGY PREDICTED BY IDOCK:   -7.57 KCAL/MOL
REMARK 924 INTRA-LIGAND FREE ENERGY PREDICTED BY IDOCK:   -0.61 KCAL/MOL
REMARK 927      BINDING AFFINITY PREDICTED BY RF-SCORE:    0.00 PKD
ROOT
HETATM    1  C   UNL     1      -8.695   8.957  71.007  1.00  0.00    -0.276 C  
HETATM    2  C   UNL     1     -10.216   9.044  70.862  1.00  0.00    -0.324 C  
HETATM    3  C   UNL     1     -10.899   8.181  71.918  1.00  0.00    -0.333 C  
HETATM    4  C   UNL     1     -11.547   6.925  71.421  1.00  0.00    -0.299 C  
HETATM    5  N   UNL     1     -11.639   6.751  70.075  1.00  0.00    -0.559 N  
HETATM    6  O   UNL     1     -12.012   6.092  72.201  1.00  0.00    -0.331 OA 
HETATM    7  H   UNL     1     -12.041   5.869  69.759  1.00  0.00     0.000 HD 
HETATM    8  N   UNL     1     -11.257   7.616  69.108  1.00  0.00     0.150 NA 
HETATM    9  C   UNL     1     -10.627   8.704  69.431  1.00  0.00    -0.199 C  
ENDROOT
BRANCH   9  10
HETATM   10  C   UNL     1     -10.286   9.659  68.318  1.00  0.00    -0.216 A  
HETATM   11  C   UNL     1     -10.014  11.006  68.564  1.00  0.00    -0.198 A  
HETATM   12  C   UNL     1      -9.785  11.885  67.498  1.00  0.00    -0.185 A  
HETATM   13  C   UNL     1      -9.819  11.448  66.167  1.00  0.00    -0.222 A  
HETATM   14  C   UNL     1     -10.088  10.096  65.926  1.00  0.00    -0.325 A  
HETATM   15  C   UNL     1     -10.310   9.207  66.990  1.00  0.00    -0.333 A  
BRANCH  13  16
HETATM   16  N   UNL     1      -9.649  12.347  65.091  1.00  0.00    -0.460 NA 
HETATM   17  H   UNL     1      -9.265  12.046  64.194  1.00  0.00     0.000 HD 
BRANCH  16  18
HETATM   18  N   UNL     1     -10.025  13.644  65.316  1.00  0.00    -0.535 NA 
HETATM   19  H   UNL     1      -9.509  14.217  65.983  1.00  0.00     0.000 HD 
BRANCH  18  20
HETATM   20  C   UNL     1     -11.044  14.146  64.677  1.00  0.00    -0.371 C  
HETATM   21  C   UNL     1     -11.990  13.175  64.196  1.00  0.00    -0.436 C  
HETATM   22  C   UNL     1     -11.193  15.555  64.475  1.00  0.00    -0.315 C  
HETATM   23  N   UNL     1     -11.308  16.705  64.344  1.00  0.00    -1.044 NA 
HETATM   24  N   UNL     1     -12.773  12.406  63.817  1.00  0.00    -0.758 NA 
ENDBRANCH  18  20
ENDBRANCH  16  18
ENDBRANCH  13  16
ENDBRANCH   9  10
TORSDOF 4
ENDMDL
MODEL       35
REMARK 921   NORMALIZED FREE ENERGY PREDICTED BY IDOCK:   -6.05 KCAL/MOL
REMARK 922        TOTAL FREE ENERGY PREDICTED BY IDOCK:   -8.17 KCAL/MOL
REMARK 923 INTER-LIGAND FREE ENERGY PREDICTED BY IDOCK:   -7.52 KCAL/MOL
REMARK 924 INTRA-LIGAND FREE ENERGY PREDICTED BY IDOCK:   -0.65 KCAL/MOL
REMARK 927      BINDING AFFINITY PREDICTED BY RF-SCORE:    0.00 PKD
ROOT
HETATM    1  C   UNL     1      -9.393  13.988  66.687  1.00  0.00    -0.292 C  
HETATM    2  C   UNL     1     -10.363  13.112  65.891  1.00  0.00    -0.295 C  
HETATM    3  C   UNL     1     -10.714  13.780  64.566  1.00  0.00    -0.405 C  
HETATM    4  C   UNL     1     -12.102  14.334  64.457  1.00  0.00    -0.480 C  
HETATM    5  N   UNL     1     -12.980  14.037  65.453  1.00  0.00    -0.743 N  
HETATM    6  O   UNL     1     -12.449  15.006  63.485  1.00  0.00    -0.482 OA 
HETATM    7  H   UNL     1     -13.905  14.462  65.382  1.00  0.00     0.000 HD 
HETATM    8  N   UNL     1     -12.767  13.241  66.524  1.00  0.00    -0.114 NA 
HETATM    9  C   UNL     1     -11.580  12.765  66.746  1.00  0.00    -0.370 C  
ENDROOT
BRANCH   9  10
HETATM   10  C   UNL     1     -11.418  11.834  67.918  1.00  0.00    -0.387 A  
HETATM   11  C   UNL     1     -10.753  10.612  67.798  1.00  0.00    -0.302 A  
HETATM   12  C   UNL     1     -10.695   9.731  68.886  1.00  0.00    -0.241 A  
HETATM   13  C   UNL     1     -11.294  10.043  70.113  1.00  0.00    -0.291 A  
HETATM   14  C   UNL     1     -11.955  11.271  70.229  1.00  0.00    -0.466 A  
HETATM   15  C   UNL     1     -12.010  12.163  69.146  1.00  0.00    -0.311 A  
BRANCH  13  16
HETATM   16  N   UNL     1     -11.288   9.129  71.190  1.00  0.00    -0.294 NA 
HETATM   17  H   UNL     1     -10.734   9.293  72.032  1.00  0.00     0.000 HD 
BRANCH  16  18
HETATM   18  N   UNL     1     -12.066   8.012  71.044  1.00  0.00    -0.428 NA 
HETATM   19  H   UNL     1     -13.074   8.104  70.923  1.00  0.00     0.000 HD 
BRANCH  18  20
HETATM   20  C   UNL     1     -11.517   6.830  71.059  1.00  0.00    -0.324 C  
HETATM   21  C   UNL     1     -11.196   6.299  69.762  1.00  0.00    -0.430 C  
HETATM   22  C   UNL     1     -11.266   6.126  72.280  1.00  0.00    -0.289 C  
HETATM   23  N   UNL     1     -11.046   5.583  73.285  1.00  0.00    -0.287 NA 
HETATM   24  N   UNL     1     -10.912   5.864  68.723  1.00  0.00    -0.290 NA 
ENDBRANCH  18  20
ENDBRANCH  16  18
ENDBRANCH  13  16
ENDBRANCH   9  10
TORSDOF 4
ENDMDL
MODEL       36
REMARK 921   NORMALIZED FREE ENERGY PREDICTED BY IDOCK:   -6.04 KCAL/MOL
REMARK 922        TOTAL FREE ENERGY PREDICTED BY IDOCK:   -8.17 KCAL/MOL
REMARK 923 INTER-LIGAND FREE ENERGY PREDICTED BY IDOCK:   -7.75 KCAL/MOL
REMARK 924 INTRA-LIGAND FREE ENERGY PREDICTED BY IDOCK:   -0.41 KCAL/MOL
REMARK 927      BINDING AFFINITY PREDICTED BY RF-SCORE:    0.00 PKD
ROOT
HETATM    1  C   UNL     1     -12.089  11.912  63.570  1.00  0.00    -0.575 C  
HETATM    2  C   UNL     1     -10.633  11.925  64.044  1.00  0.00    -0.422 C  
HETATM    3  C   UNL     1      -9.718  11.367  62.960  1.00  0.00    -0.393 C  
HETATM    4  C   UNL     1      -9.140  10.010  63.222  1.00  0.00    -0.275 C  
HETATM    5  N   UNL     1      -9.319   9.476  64.461  1.00  0.00    -0.431 N  
HETATM    6  O   UNL     1      -8.495   9.411  62.360  1.00  0.00    -0.162 OA 
HETATM    7  H   UNL     1      -8.958   8.533  64.603  1.00  0.00     0.000 HD 
HETATM    8  N   UNL     1      -9.921  10.054  65.524  1.00  0.00    -0.303 NA 
HETATM    9  C   UNL     1     -10.511  11.202  65.384  1.00  0.00    -0.259 C  
ENDROOT
BRANCH   9  10
HETATM   10  C   UNL     1     -11.108  11.826  66.617  1.00  0.00    -0.364 A  
HETATM   11  C   UNL     1     -11.499  13.166  66.646  1.00  0.00    -0.389 A  
HETATM   12  C   UNL     1     -11.970  13.737  67.835  1.00  0.00    -0.391 A  
HETATM   13  C   UNL     1     -12.063  12.994  69.019  1.00  0.00    -0.177 A  
HETATM   14  C   UNL     1     -11.674  11.650  68.983  1.00  0.00    -0.388 A  
HETATM   15  C   UNL     1     -11.209  11.067  67.793  1.00  0.00    -0.374 A  
BRANCH  13  16
HETATM   16  N   UNL     1     -12.480  13.586  70.231  1.00  0.00    -0.278 NA 
HETATM   17  H   UNL     1     -12.579  13.043  71.089  1.00  0.00     0.000 HD 
BRANCH  16  18
HETATM   18  N   UNL     1     -12.744  14.929  70.192  1.00  0.00    -0.568 NA 
HETATM   19  H   UNL     1     -13.614  15.267  69.779  1.00  0.00     0.000 HD 
BRANCH  18  20
HETATM   20  C   UNL     1     -11.884  15.777  70.683  1.00  0.00    -0.385 C  
HETATM   21  C   UNL     1     -11.980  15.974  72.104  1.00  0.00    -0.538 C  
HETATM   22  C   UNL     1     -10.930  16.452  69.857  1.00  0.00    -0.338 C  
HETATM   23  N   UNL     1     -10.146  16.971  69.173  1.00  0.00    -0.280 NA 
HETATM   24  N   UNL     1     -12.030  16.132  73.254  1.00  0.00    -0.462 NA 
ENDBRANCH  18  20
ENDBRANCH  16  18
ENDBRANCH  13  16
ENDBRANCH   9  10
TORSDOF 4
ENDMDL
MODEL       37
REMARK 921   NORMALIZED FREE ENERGY PREDICTED BY IDOCK:   -6.03 KCAL/MOL
REMARK 922        TOTAL FREE ENERGY PREDICTED BY IDOCK:   -8.15 KCAL/MOL
REMARK 923 INTER-LIGAND FREE ENERGY PREDICTED BY IDOCK:   -7.37 KCAL/MOL
REMARK 924 INTRA-LIGAND FREE ENERGY PREDICTED BY IDOCK:   -0.77 KCAL/MOL
REMARK 927      BINDING AFFINITY PREDICTED BY RF-SCORE:    0.00 PKD
ROOT
HETATM    1  C   UNL     1      -6.235  17.413  67.356  1.00  0.00    -0.166 C  
HETATM    2  C   UNL     1      -6.913  17.751  66.026  1.00  0.00    -0.335 C  
HETATM    3  C   UNL     1      -6.028  18.679  65.201  1.00  0.00    -0.294 C  
HETATM    4  C   UNL     1      -6.492  20.099  65.086  1.00  0.00    -0.286 C  
HETATM    5  N   UNL     1      -7.735  20.397  65.555  1.00  0.00    -0.492 N  
HETATM    6  O   UNL     1      -5.791  20.961  64.555  1.00  0.00    -0.242 OA 
HETATM    7  H   UNL     1      -8.013  21.377  65.509  1.00  0.00     0.000 HD 
HETATM    8  N   UNL     1      -8.643  19.541  66.074  1.00  0.00    -0.423 NA 
HETATM    9  C   UNL     1      -8.316  18.301  66.277  1.00  0.00    -0.203 C  
ENDROOT
BRANCH   9  10
HETATM   10  C   UNL     1      -9.388  17.381  66.796  1.00  0.00    -0.279 A  
HETATM   11  C   UNL     1     -10.169  17.715  67.904  1.00  0.00    -0.357 A  
HETATM   12  C   UNL     1     -11.098  16.800  68.414  1.00  0.00    -0.266 A  
HETATM   13  C   UNL     1     -11.273  15.535  67.838  1.00  0.00    -0.325 A  
HETATM   14  C   UNL     1     -10.491  15.206  66.725  1.00  0.00    -0.283 A  
HETATM   15  C   UNL     1      -9.563  16.122  66.202  1.00  0.00    -0.359 A  
BRANCH  13  16
HETATM   16  N   UNL     1     -12.167  14.590  68.389  1.00  0.00    -0.608 NA 
HETATM   17  H   UNL     1     -12.677  13.927  67.804  1.00  0.00     0.000 HD 
BRANCH  16  18
HETATM   18  N   UNL     1     -12.311  14.612  69.750  1.00  0.00    -0.484 NA 
HETATM   19  H   UNL     1     -12.298  15.501  70.251  1.00  0.00     0.000 HD 
BRANCH  18  20
HETATM   20  C   UNL     1     -12.465  13.497  70.407  1.00  0.00    -0.275 C  
HETATM   21  C   UNL     1     -11.831  12.354  69.806  1.00  0.00    -0.317 C  
HETATM   22  C   UNL     1     -13.212  13.431  71.626  1.00  0.00    -0.364 C  
HETATM   23  N   UNL     1     -13.801  13.404  72.628  1.00  0.00    -0.745 NA 
HETATM   24  N   UNL     1     -11.310  11.424  69.345  1.00  0.00    -0.274 NA 
ENDBRANCH  18  20
ENDBRANCH  16  18
ENDBRANCH  13  16
ENDBRANCH   9  10
TORSDOF 4
ENDMDL
MODEL       38
REMARK 921   NORMALIZED FREE ENERGY PREDICTED BY IDOCK:   -6.01 KCAL/MOL
REMARK 922        TOTAL FREE ENERGY PREDICTED BY IDOCK:   -8.13 KCAL/MOL
REMARK 923 INTER-LIGAND FREE ENERGY PREDICTED BY IDOCK:   -7.36 KCAL/MOL
REMARK 924 INTRA-LIGAND FREE ENERGY PREDICTED BY IDOCK:   -0.77 KCAL/MOL
REMARK 927      BINDING AFFINITY PREDICTED BY RF-SCORE:    0.00 PKD
ROOT
HETATM    1  C   UNL     1      -6.563  19.670  65.687  1.00  0.00    -0.280 C  
HETATM    2  C   UNL     1      -7.399  19.871  66.953  1.00  0.00    -0.259 C  
HETATM    3  C   UNL     1      -6.758  20.926  67.849  1.00  0.00    -0.337 C  
HETATM    4  C   UNL     1      -6.113  20.420  69.103  1.00  0.00    -0.337 C  
HETATM    5  N   UNL     1      -6.312  19.114  69.432  1.00  0.00    -0.289 N  
HETATM    6  O   UNL     1      -5.456  21.165  69.832  1.00  0.00    -0.501 OA 
HETATM    7  H   UNL     1      -5.827  18.779  70.265  1.00  0.00     0.000 HD 
HETATM    8  N   UNL     1      -7.080  18.212  68.782  1.00  0.00    -0.273 NA 
HETATM    9  C   UNL     1      -7.629  18.532  67.649  1.00  0.00    -0.230 C  
ENDROOT
BRANCH   9  10
HETATM   10  C   UNL     1      -8.524  17.508  67.004  1.00  0.00    -0.252 A  
HETATM   11  C   UNL     1      -8.149  16.167  66.897  1.00  0.00    -0.275 A  
HETATM   12  C   UNL     1      -8.967  15.258  66.215  1.00  0.00    -0.314 A  
HETATM   13  C   UNL     1     -10.173  15.658  65.624  1.00  0.00    -0.375 A  
HETATM   14  C   UNL     1     -10.546  17.003  65.736  1.00  0.00    -0.218 A  
HETATM   15  C   UNL     1      -9.735  17.918  66.427  1.00  0.00    -0.321 A  
BRANCH  13  16
HETATM   16  N   UNL     1     -10.967  14.755  64.883  1.00  0.00    -0.442 NA 
HETATM   17  H   UNL     1     -11.982  14.847  64.834  1.00  0.00     0.000 HD 
BRANCH  16  18
HETATM   18  N   UNL     1     -10.300  13.749  64.235  1.00  0.00    -0.697 NA 
HETATM   19  H   UNL     1      -9.579  13.974  63.550  1.00  0.00     0.000 HD 
BRANCH  18  20
HETATM   20  C   UNL     1     -10.589  12.505  64.494  1.00  0.00    -0.336 C  
HETATM   21  C   UNL     1     -11.374  12.304  65.682  1.00  0.00    -0.350 C  
HETATM   22  C   UNL     1     -10.147  11.434  63.653  1.00  0.00    -0.377 C  
HETATM   23  N   UNL     1      -9.800  10.581  62.943  1.00  0.00    -0.268 NA 
HETATM   24  N   UNL     1     -12.023  12.126  66.628  1.00  0.00    -0.629 NA 
ENDBRANCH  18  20
ENDBRANCH  16  18
ENDBRANCH  13  16
ENDBRANCH   9  10
TORSDOF 4
ENDMDL
MODEL       39
REMARK 921   NORMALIZED FREE ENERGY PREDICTED BY IDOCK:   -6.01 KCAL/MOL
REMARK 922        TOTAL FREE ENERGY PREDICTED BY IDOCK:   -8.13 KCAL/MOL
REMARK 923 INTER-LIGAND FREE ENERGY PREDICTED BY IDOCK:   -7.33 KCAL/MOL
REMARK 924 INTRA-LIGAND FREE ENERGY PREDICTED BY IDOCK:   -0.80 KCAL/MOL
REMARK 927      BINDING AFFINITY PREDICTED BY RF-SCORE:    0.00 PKD
ROOT
HETATM    1  C   UNL     1      -9.963   8.621  69.108  1.00  0.00    -0.193 C  
HETATM    2  C   UNL     1     -10.304   9.727  70.109  1.00  0.00    -0.335 C  
HETATM    3  C   UNL     1     -10.805   9.123  71.417  1.00  0.00    -0.419 C  
HETATM    4  C   UNL     1     -12.268   9.277  71.694  1.00  0.00    -0.370 C  
HETATM    5  N   UNL     1     -12.984  10.091  70.871  1.00  0.00    -0.504 N  
HETATM    6  O   UNL     1     -12.801   8.717  72.653  1.00  0.00    -0.383 OA 
HETATM    7  H   UNL     1     -13.987  10.145  71.050  1.00  0.00     0.000 HD 
HETATM    8  N   UNL     1     -12.518  10.835  69.844  1.00  0.00    -0.281 NA 
HETATM    9  C   UNL     1     -11.276  10.723  69.480  1.00  0.00    -0.281 C  
ENDROOT
BRANCH   9  10
HETATM   10  C   UNL     1     -10.798  11.623  68.373  1.00  0.00    -0.257 A  
HETATM   11  C   UNL     1      -9.501  12.141  68.355  1.00  0.00    -0.179 A  
HETATM   12  C   UNL     1      -9.116  13.044  67.357  1.00  0.00    -0.201 A  
HETATM   13  C   UNL     1     -10.006  13.454  66.356  1.00  0.00    -0.293 A  
HETATM   14  C   UNL     1     -11.303  12.929  66.375  1.00  0.00    -0.361 A  
HETATM   15  C   UNL     1     -11.695  12.016  67.368  1.00  0.00    -0.352 A  
BRANCH  13  16
HETATM   16  N   UNL     1      -9.636  14.411  65.386  1.00  0.00    -0.530 NA 
HETATM   17  H   UNL     1      -9.542  14.168  64.399  1.00  0.00     0.000 HD 
BRANCH  16  18
HETATM   18  N   UNL     1      -9.410  15.682  65.841  1.00  0.00    -0.340 NA 
HETATM   19  H   UNL     1      -8.537  15.907  66.317  1.00  0.00     0.000 HD 
BRANCH  18  20
HETATM   20  C   UNL     1     -10.313  16.606  65.666  1.00  0.00    -0.290 C  
HETATM   21  C   UNL     1     -11.307  16.295  64.675  1.00  0.00    -0.232 C  
HETATM   22  C   UNL     1     -10.298  17.832  66.406  1.00  0.00    -0.351 C  
HETATM   23  N   UNL     1     -10.282  18.808  67.037  1.00  0.00    -0.358 NA 
HETATM   24  N   UNL     1     -12.129  16.052  63.891  1.00  0.00    -0.819 NA 
ENDBRANCH  18  20
ENDBRANCH  16  18
ENDBRANCH  13  16
ENDBRANCH   9  10
TORSDOF 4
ENDMDL
MODEL       40
REMARK 921   NORMALIZED FREE ENERGY PREDICTED BY IDOCK:   -6.01 KCAL/MOL
REMARK 922        TOTAL FREE ENERGY PREDICTED BY IDOCK:   -8.13 KCAL/MOL
REMARK 923 INTER-LIGAND FREE ENERGY PREDICTED BY IDOCK:   -7.66 KCAL/MOL
REMARK 924 INTRA-LIGAND FREE ENERGY PREDICTED BY IDOCK:   -0.47 KCAL/MOL
REMARK 927      BINDING AFFINITY PREDICTED BY RF-SCORE:    0.00 PKD
ROOT
HETATM    1  C   UNL     1      -9.779  12.796  66.089  1.00  0.00    -0.246 C  
HETATM    2  C   UNL     1     -11.239  13.255  66.052  1.00  0.00    -0.316 C  
HETATM    3  C   UNL     1     -12.092  12.246  65.290  1.00  0.00    -0.361 C  
HETATM    4  C   UNL     1     -12.571  12.678  63.938  1.00  0.00    -0.337 C  
HETATM    5  N   UNL     1     -12.372  13.977  63.584  1.00  0.00    -1.059 N  
HETATM    6  O   UNL     1     -13.155  11.897  63.185  1.00  0.00    -0.605 OA 
HETATM    7  H   UNL     1     -12.665  14.239  62.642  1.00  0.00     0.000 HD 
HETATM    8  N   UNL     1     -11.833  14.960  64.339  1.00  0.00    -0.398 NA 
HETATM    9  C   UNL     1     -11.328  14.676  65.501  1.00  0.00    -0.341 C  
ENDROOT
BRANCH   9  10
HETATM   10  C   UNL     1     -10.800  15.821  66.322  1.00  0.00    -0.232 A  
HETATM   11  C   UNL     1     -10.753  15.765  67.716  1.00  0.00    -0.307 A  
HETATM   12  C   UNL     1     -10.337  16.880  68.454  1.00  0.00    -0.338 A  
HETATM   13  C   UNL     1      -9.960  18.074  67.826  1.00  0.00    -0.326 A  
HETATM   14  C   UNL     1     -10.005  18.125  66.429  1.00  0.00    -0.376 A  
HETATM   15  C   UNL     1     -10.412  17.007  65.682  1.00  0.00    -0.229 A  
BRANCH  13  16
HETATM   16  N   UNL     1      -9.599  19.218  68.572  1.00  0.00    -0.379 NA 
HETATM   17  H   UNL     1     -10.198  19.590  69.310  1.00  0.00     0.000 HD 
BRANCH  16  18
HETATM   18  N   UNL     1      -8.401  19.799  68.253  1.00  0.00    -0.306 NA 
HETATM   19  H   UNL     1      -8.380  20.645  67.683  1.00  0.00     0.000 HD 
BRANCH  18  20
HETATM   20  C   UNL     1      -7.288  19.272  68.677  1.00  0.00    -0.338 C  
HETATM   21  C   UNL     1      -6.699  19.938  69.807  1.00  0.00    -0.276 C  
HETATM   22  C   UNL     1      -6.706  18.123  68.052  1.00  0.00    -0.206 C  
HETATM   23  N   UNL     1      -6.265  17.173  67.546  1.00  0.00    -0.137 NA 
HETATM   24  N   UNL     1      -6.220  20.453  70.731  1.00  0.00    -0.542 NA 
ENDBRANCH  18  20
ENDBRANCH  16  18
ENDBRANCH  13  16
ENDBRANCH   9  10
TORSDOF 4
ENDMDL
MODEL       41
REMARK 921   NORMALIZED FREE ENERGY PREDICTED BY IDOCK:   -6.01 KCAL/MOL
REMARK 922        TOTAL FREE ENERGY PREDICTED BY IDOCK:   -8.12 KCAL/MOL
REMARK 923 INTER-LIGAND FREE ENERGY PREDICTED BY IDOCK:   -7.47 KCAL/MOL
REMARK 924 INTRA-LIGAND FREE ENERGY PREDICTED BY IDOCK:   -0.66 KCAL/MOL
REMARK 927      BINDING AFFINITY PREDICTED BY RF-SCORE:    0.00 PKD
ROOT
HETATM    1  C   UNL     1      -8.767   8.718  71.557  1.00  0.00    -0.274 C  
HETATM    2  C   UNL     1     -10.235   8.703  71.991  1.00  0.00    -0.407 C  
HETATM    3  C   UNL     1     -10.477   7.592  73.007  1.00  0.00    -0.396 C  
HETATM    4  C   UNL     1     -11.255   6.410  72.516  1.00  0.00    -0.272 C  
HETATM    5  N   UNL     1     -11.837   6.503  71.289  1.00  0.00    -0.337 N  
HETATM    6  O   UNL     1     -11.396   5.402  73.210  1.00  0.00    -0.289 OA 
HETATM    7  H   UNL     1     -12.323   5.671  70.955  1.00  0.00     0.000 HD 
HETATM    8  N   UNL     1     -11.843   7.573  70.463  1.00  0.00    -0.181 NA 
HETATM    9  C   UNL     1     -11.144   8.624  70.766  1.00  0.00    -0.255 C  
ENDROOT
BRANCH   9  10
HETATM   10  C   UNL     1     -11.242   9.807  69.841  1.00  0.00    -0.271 A  
HETATM   11  C   UNL     1     -11.798  11.019  70.255  1.00  0.00    -0.456 A  
HETATM   12  C   UNL     1     -11.953  12.072  69.344  1.00  0.00    -0.334 A  
HETATM   13  C   UNL     1     -11.559  11.946  68.006  1.00  0.00    -0.332 A  
HETATM   14  C   UNL     1     -10.998  10.731  67.596  1.00  0.00    -0.365 A  
HETATM   15  C   UNL     1     -10.832   9.674  68.506  1.00  0.00    -0.202 A  
BRANCH  13  16
HETATM   16  N   UNL     1     -11.771  12.986  67.074  1.00  0.00    -0.366 NA 
HETATM   17  H   UNL     1     -11.469  13.944  67.258  1.00  0.00     0.000 HD 
BRANCH  16  18
HETATM   18  N   UNL     1     -12.404  12.640  65.910  1.00  0.00    -0.595 NA 
HETATM   19  H   UNL     1     -13.212  12.019  65.933  1.00  0.00     0.000 HD 
BRANCH  18  20
HETATM   20  C   UNL     1     -11.972  13.105  64.771  1.00  0.00    -0.388 C  
HETATM   21  C   UNL     1     -11.133  12.201  64.032  1.00  0.00    -0.386 C  
HETATM   22  C   UNL     1     -12.312  14.417  64.310  1.00  0.00    -0.373 C  
HETATM   23  N   UNL     1     -12.622  15.475  63.941  1.00  0.00    -0.592 NA 
HETATM   24  N   UNL     1     -10.469  11.476  63.413  1.00  0.00    -0.397 NA 
ENDBRANCH  18  20
ENDBRANCH  16  18
ENDBRANCH  13  16
ENDBRANCH   9  10
TORSDOF 4
ENDMDL
MODEL       42
REMARK 921   NORMALIZED FREE ENERGY PREDICTED BY IDOCK:   -6.00 KCAL/MOL
REMARK 922        TOTAL FREE ENERGY PREDICTED BY IDOCK:   -8.11 KCAL/MOL
REMARK 923 INTER-LIGAND FREE ENERGY PREDICTED BY IDOCK:   -7.55 KCAL/MOL
REMARK 924 INTRA-LIGAND FREE ENERGY PREDICTED BY IDOCK:   -0.56 KCAL/MOL
REMARK 927      BINDING AFFINITY PREDICTED BY RF-SCORE:    0.00 PKD
ROOT
HETATM    1  C   UNL     1      -8.680   8.942  71.010  1.00  0.00    -0.276 C  
HETATM    2  C   UNL     1     -10.197   8.967  70.803  1.00  0.00    -0.282 C  
HETATM    3  C   UNL     1     -10.882   8.034  71.797  1.00  0.00    -0.297 C  
HETATM    4  C   UNL     1     -11.450   6.770  71.228  1.00  0.00    -0.302 C  
HETATM    5  N   UNL     1     -11.477   6.644  69.873  1.00  0.00    -0.522 N  
HETATM    6  O   UNL     1     -11.908   5.888  71.956  1.00  0.00    -0.267 OA 
HETATM    7  H   UNL     1     -11.825   5.757  69.508  1.00  0.00     0.000 HD 
HETATM    8  N   UNL     1     -11.097   7.561  68.956  1.00  0.00     0.044 NA 
HETATM    9  C   UNL     1     -10.532   8.664  69.344  1.00  0.00    -0.218 C  
ENDROOT
BRANCH   9  10
HETATM   10  C   UNL     1     -10.189   9.674  68.283  1.00  0.00    -0.216 A  
HETATM   11  C   UNL     1     -10.009  11.025  68.585  1.00  0.00    -0.205 A  
HETATM   12  C   UNL     1      -9.777  11.953  67.562  1.00  0.00    -0.185 A  
HETATM   13  C   UNL     1      -9.717  11.561  66.218  1.00  0.00    -0.215 A  
HETATM   14  C   UNL     1      -9.894  10.206  65.920  1.00  0.00    -0.308 A  
HETATM   15  C   UNL     1     -10.119   9.268  66.942  1.00  0.00    -0.324 A  
BRANCH  13  16
HETATM   16  N   UNL     1      -9.543  12.505  65.182  1.00  0.00    -0.468 NA 
HETATM   17  H   UNL     1      -9.082  12.262  64.305  1.00  0.00     0.000 HD 
BRANCH  16  18
HETATM   18  N   UNL     1     -10.029  13.764  65.418  1.00  0.00    -0.507 NA 
HETATM   19  H   UNL     1      -9.590  14.356  66.123  1.00  0.00     0.000 HD 
BRANCH  18  20
HETATM   20  C   UNL     1     -11.052  14.205  64.742  1.00  0.00    -0.387 C  
HETATM   21  C   UNL     1     -11.110  15.635  64.605  1.00  0.00    -0.373 C  
HETATM   22  C   UNL     1     -12.034  13.321  64.190  1.00  0.00    -0.447 C  
HETATM   23  N   UNL     1     -12.806  12.585  63.729  1.00  0.00    -0.759 NA 
HETATM   24  N   UNL     1     -11.163  16.787  64.468  1.00  0.00    -1.039 NA 
ENDBRANCH  18  20
ENDBRANCH  16  18
ENDBRANCH  13  16
ENDBRANCH   9  10
TORSDOF 4
ENDMDL
MODEL       43
REMARK 921   NORMALIZED FREE ENERGY PREDICTED BY IDOCK:   -5.98 KCAL/MOL
REMARK 922        TOTAL FREE ENERGY PREDICTED BY IDOCK:   -8.09 KCAL/MOL
REMARK 923 INTER-LIGAND FREE ENERGY PREDICTED BY IDOCK:   -7.83 KCAL/MOL
REMARK 924 INTRA-LIGAND FREE ENERGY PREDICTED BY IDOCK:   -0.26 KCAL/MOL
REMARK 927      BINDING AFFINITY PREDICTED BY RF-SCORE:    0.00 PKD
ROOT
HETATM    1  C   UNL     1     -10.480   9.326  69.036  1.00  0.00    -0.233 C  
HETATM    2  C   UNL     1     -10.936   9.539  70.482  1.00  0.00    -0.348 C  
HETATM    3  C   UNL     1     -11.109   8.197  71.186  1.00  0.00    -0.279 C  
HETATM    4  C   UNL     1     -12.520   7.774  71.458  1.00  0.00    -0.324 C  
HETATM    5  N   UNL     1     -13.506   8.684  71.233  1.00  0.00    -0.542 N  
HETATM    6  O   UNL     1     -12.778   6.655  71.902  1.00  0.00    -0.345 OA 
HETATM    7  H   UNL     1     -14.462   8.361  71.381  1.00  0.00     0.000 HD 
HETATM    8  N   UNL     1     -13.363   9.968  70.838  1.00  0.00    -0.325 NA 
HETATM    9  C   UNL     1     -12.187  10.415  70.513  1.00  0.00    -0.323 C  
ENDROOT
BRANCH   9  10
HETATM   10  C   UNL     1     -12.080  11.870  70.143  1.00  0.00    -0.382 A  
HETATM   11  C   UNL     1     -12.426  12.883  71.039  1.00  0.00    -0.374 A  
HETATM   12  C   UNL     1     -12.397  14.223  70.633  1.00  0.00    -0.431 A  
HETATM   13  C   UNL     1     -12.024  14.587  69.333  1.00  0.00    -0.322 A  
HETATM   14  C   UNL     1     -11.673  13.568  68.440  1.00  0.00    -0.393 A  
HETATM   15  C   UNL     1     -11.692  12.223  68.842  1.00  0.00    -0.380 A  
BRANCH  13  16
HETATM   16  N   UNL     1     -12.053  15.933  68.907  1.00  0.00    -0.498 NA 
HETATM   17  H   UNL     1     -12.922  16.394  68.637  1.00  0.00     0.000 HD 
BRANCH  16  18
HETATM   18  N   UNL     1     -10.850  16.587  68.874  1.00  0.00    -0.324 NA 
HETATM   19  H   UNL     1     -10.208  16.515  69.664  1.00  0.00     0.000 HD 
BRANCH  18  20
HETATM   20  C   UNL     1     -10.524  17.302  67.834  1.00  0.00    -0.382 C  
HETATM   21  C   UNL     1     -10.338  18.702  68.102  1.00  0.00    -0.359 C  
HETATM   22  C   UNL     1     -10.374  16.723  66.533  1.00  0.00    -0.301 C  
HETATM   23  N   UNL     1     -10.231  16.228  65.491  1.00  0.00    -0.529 NA 
HETATM   24  N   UNL     1     -10.164  19.832  68.303  1.00  0.00    -0.443 NA 
ENDBRANCH  18  20
ENDBRANCH  16  18
ENDBRANCH  13  16
ENDBRANCH   9  10
TORSDOF 4
ENDMDL
MODEL       44
REMARK 921   NORMALIZED FREE ENERGY PREDICTED BY IDOCK:   -5.97 KCAL/MOL
REMARK 922        TOTAL FREE ENERGY PREDICTED BY IDOCK:   -8.08 KCAL/MOL
REMARK 923 INTER-LIGAND FREE ENERGY PREDICTED BY IDOCK:   -7.43 KCAL/MOL
REMARK 924 INTRA-LIGAND FREE ENERGY PREDICTED BY IDOCK:   -0.65 KCAL/MOL
REMARK 927      BINDING AFFINITY PREDICTED BY RF-SCORE:    0.00 PKD
ROOT
HETATM    1  C   UNL     1      -8.903  16.317  66.285  1.00  0.00    -0.367 C  
HETATM    2  C   UNL     1     -10.231  16.976  66.668  1.00  0.00    -0.310 C  
HETATM    3  C   UNL     1     -10.117  18.494  66.569  1.00  0.00    -0.425 C  
HETATM    4  C   UNL     1     -10.087  19.237  67.869  1.00  0.00    -0.395 C  
HETATM    5  N   UNL     1     -10.350  18.533  69.004  1.00  0.00    -0.454 N  
HETATM    6  O   UNL     1      -9.868  20.448  67.910  1.00  0.00    -0.375 OA 
HETATM    7  H   UNL     1     -10.279  19.048  69.882  1.00  0.00     0.000 HD 
HETATM    8  N   UNL     1     -10.695  17.230  69.100  1.00  0.00    -0.219 NA 
HETATM    9  C   UNL     1     -10.686  16.482  68.039  1.00  0.00    -0.343 C  
ENDROOT
BRANCH   9  10
HETATM   10  C   UNL     1     -11.141  15.056  68.197  1.00  0.00    -0.296 A  
HETATM   11  C   UNL     1     -11.086  14.399  69.428  1.00  0.00    -0.294 A  
HETATM   12  C   UNL     1     -11.436  13.046  69.522  1.00  0.00    -0.289 A  
HETATM   13  C   UNL     1     -11.848  12.316  68.399  1.00  0.00    -0.304 A  
HETATM   14  C   UNL     1     -11.905  12.980  67.169  1.00  0.00    -0.431 A  
HETATM   15  C   UNL     1     -11.565  14.339  67.068  1.00  0.00    -0.406 A  
BRANCH  13  16
HETATM   16  N   UNL     1     -12.142  10.937  68.483  1.00  0.00    -0.812 NA 
HETATM   17  H   UNL     1     -12.860  10.578  69.113  1.00  0.00     0.000 HD 
BRANCH  16  18
HETATM   18  N   UNL     1     -11.411  10.110  67.673  1.00  0.00    -0.546 NA 
HETATM   19  H   UNL     1     -11.366  10.288  66.670  1.00  0.00     0.000 HD 
BRANCH  18  20
HETATM   20  C   UNL     1     -10.775   9.094  68.184  1.00  0.00    -0.131 C  
HETATM   21  C   UNL     1     -10.303   9.295  69.528  1.00  0.00    -0.216 C  
HETATM   22  C   UNL     1     -10.567   7.882  67.451  1.00  0.00    -0.272 C  
HETATM   23  N   UNL     1     -10.431   6.897  66.847  1.00  0.00    -0.276 NA 
HETATM   24  N   UNL     1      -9.931   9.433  70.619  1.00  0.00    -0.268 NA 
ENDBRANCH  18  20
ENDBRANCH  16  18
ENDBRANCH  13  16
ENDBRANCH   9  10
TORSDOF 4
ENDMDL
MODEL       45
REMARK 921   NORMALIZED FREE ENERGY PREDICTED BY IDOCK:   -5.95 KCAL/MOL
REMARK 922        TOTAL FREE ENERGY PREDICTED BY IDOCK:   -8.05 KCAL/MOL
REMARK 923 INTER-LIGAND FREE ENERGY PREDICTED BY IDOCK:   -7.31 KCAL/MOL
REMARK 924 INTRA-LIGAND FREE ENERGY PREDICTED BY IDOCK:   -0.74 KCAL/MOL
REMARK 927      BINDING AFFINITY PREDICTED BY RF-SCORE:    0.00 PKD
ROOT
HETATM    1  C   UNL     1      -9.144   8.847  71.401  1.00  0.00    -0.318 C  
HETATM    2  C   UNL     1     -10.461   8.776  72.179  1.00  0.00    -0.384 C  
HETATM    3  C   UNL     1     -10.542   7.472  72.965  1.00  0.00    -0.422 C  
HETATM    4  C   UNL     1     -11.512   6.453  72.450  1.00  0.00    -0.282 C  
HETATM    5  N   UNL     1     -12.362   6.836  71.458  1.00  0.00    -0.362 N  
HETATM    6  O   UNL     1     -11.565   5.319  72.928  1.00  0.00    -0.310 OA 
HETATM    7  H   UNL     1     -12.982   6.115  71.090  1.00  0.00     0.000 HD 
HETATM    8  N   UNL     1     -12.478   8.064  70.905  1.00  0.00    -0.100 NA 
HETATM    9  C   UNL     1     -11.641   9.000  71.236  1.00  0.00    -0.317 C  
ENDROOT
BRANCH   9  10
HETATM   10  C   UNL     1     -11.859  10.364  70.637  1.00  0.00    -0.445 A  
HETATM   11  C   UNL     1     -11.422  10.678  69.348  1.00  0.00    -0.356 A  
HETATM   12  C   UNL     1     -11.564  11.981  68.854  1.00  0.00    -0.377 A  
HETATM   13  C   UNL     1     -12.142  12.998  69.625  1.00  0.00    -0.241 A  
HETATM   14  C   UNL     1     -12.581  12.677  70.914  1.00  0.00    -0.338 A  
HETATM   15  C   UNL     1     -12.450  11.371  71.413  1.00  0.00    -0.370 A  
BRANCH  13  16
HETATM   16  N   UNL     1     -12.229  14.325  69.149  1.00  0.00    -0.513 NA 
HETATM   17  H   UNL     1     -12.487  15.100  69.760  1.00  0.00     0.000 HD 
BRANCH  16  18
HETATM   18  N   UNL     1     -11.949  14.515  67.822  1.00  0.00    -0.545 NA 
HETATM   19  H   UNL     1     -12.457  13.987  67.112  1.00  0.00     0.000 HD 
BRANCH  18  20
HETATM   20  C   UNL     1     -11.031  15.369  67.466  1.00  0.00    -0.315 C  
HETATM   21  C   UNL     1     -10.190  15.829  68.538  1.00  0.00    -0.216 C  
HETATM   22  C   UNL     1     -10.889  15.809  66.111  1.00  0.00    -0.240 C  
HETATM   23  N   UNL     1     -10.774  16.133  65.000  1.00  0.00    -0.626 NA 
HETATM   24  N   UNL     1      -9.490  16.197  69.388  1.00  0.00    -0.234 NA 
ENDBRANCH  18  20
ENDBRANCH  16  18
ENDBRANCH  13  16
ENDBRANCH   9  10
TORSDOF 4
ENDMDL
MODEL       46
REMARK 921   NORMALIZED FREE ENERGY PREDICTED BY IDOCK:   -5.93 KCAL/MOL
REMARK 922        TOTAL FREE ENERGY PREDICTED BY IDOCK:   -8.03 KCAL/MOL
REMARK 923 INTER-LIGAND FREE ENERGY PREDICTED BY IDOCK:   -7.39 KCAL/MOL
REMARK 924 INTRA-LIGAND FREE ENERGY PREDICTED BY IDOCK:   -0.64 KCAL/MOL
REMARK 927      BINDING AFFINITY PREDICTED BY RF-SCORE:    0.00 PKD
ROOT
HETATM    1  C   UNL     1      -9.237  11.804  65.511  1.00  0.00    -0.067 C  
HETATM    2  C   UNL     1     -10.694  11.366  65.340  1.00  0.00    -0.313 C  
HETATM    3  C   UNL     1     -11.226  11.817  63.984  1.00  0.00    -0.461 C  
HETATM    4  C   UNL     1     -12.217  12.940  64.007  1.00  0.00    -0.426 C  
HETATM    5  N   UNL     1     -12.697  13.333  65.218  1.00  0.00    -0.629 N  
HETATM    6  O   UNL     1     -12.612  13.468  62.966  1.00  0.00    -0.716 OA 
HETATM    7  H   UNL     1     -13.336  14.129  65.215  1.00  0.00     0.000 HD 
HETATM    8  N   UNL     1     -12.426  12.788  66.425  1.00  0.00    -0.355 NA 
HETATM    9  C   UNL     1     -11.530  11.852  66.521  1.00  0.00    -0.314 C  
ENDROOT
BRANCH   9  10
HETATM   10  C   UNL     1     -11.317  11.239  67.879  1.00  0.00    -0.367 A  
HETATM   11  C   UNL     1     -10.675  10.010  68.037  1.00  0.00    -0.303 A  
HETATM   12  C   UNL     1     -10.569   9.427  69.307  1.00  0.00    -0.239 A  
HETATM   13  C   UNL     1     -11.097  10.050  70.445  1.00  0.00    -0.327 A  
HETATM   14  C   UNL     1     -11.736  11.284  70.282  1.00  0.00    -0.415 A  
HETATM   15  C   UNL     1     -11.838  11.879  69.014  1.00  0.00    -0.368 A  
BRANCH  13  16
HETATM   16  N   UNL     1     -11.044   9.434  71.715  1.00  0.00    -0.342 NA 
HETATM   17  H   UNL     1     -10.956   9.978  72.574  1.00  0.00     0.000 HD 
BRANCH  16  18
HETATM   18  N   UNL     1     -11.118   8.066  71.731  1.00  0.00    -0.249 NA 
HETATM   19  H   UNL     1     -11.714   7.580  71.061  1.00  0.00     0.000 HD 
BRANCH  18  20
HETATM   20  C   UNL     1     -10.427   7.387  72.602  1.00  0.00    -0.255 C  
HETATM   21  C   UNL     1      -9.214   8.026  73.036  1.00  0.00    -0.270 C  
HETATM   22  C   UNL     1     -10.853   6.105  73.075  1.00  0.00    -0.257 C  
HETATM   23  N   UNL     1     -11.231   5.077  73.465  1.00  0.00    -0.320 NA 
HETATM   24  N   UNL     1      -8.241   8.535  73.413  1.00  0.00    -0.402 NA 
ENDBRANCH  18  20
ENDBRANCH  16  18
ENDBRANCH  13  16
ENDBRANCH   9  10
TORSDOF 4
ENDMDL
MODEL       47
REMARK 921   NORMALIZED FREE ENERGY PREDICTED BY IDOCK:   -5.92 KCAL/MOL
REMARK 922        TOTAL FREE ENERGY PREDICTED BY IDOCK:   -8.01 KCAL/MOL
REMARK 923 INTER-LIGAND FREE ENERGY PREDICTED BY IDOCK:   -7.38 KCAL/MOL
REMARK 924 INTRA-LIGAND FREE ENERGY PREDICTED BY IDOCK:   -0.63 KCAL/MOL
REMARK 927      BINDING AFFINITY PREDICTED BY RF-SCORE:    0.00 PKD
ROOT
HETATM    1  C   UNL     1     -11.431  14.924  68.130  1.00  0.00    -0.348 C  
HETATM    2  C   UNL     1     -10.882  14.214  66.890  1.00  0.00    -0.296 C  
HETATM    3  C   UNL     1     -11.106  15.069  65.647  1.00  0.00    -0.349 C  
HETATM    4  C   UNL     1     -12.157  14.584  64.696  1.00  0.00    -0.473 C  
HETATM    5  N   UNL     1     -12.682  13.348  64.913  1.00  0.00    -0.686 N  
HETATM    6  O   UNL     1     -12.509  15.262  63.730  1.00  0.00    -0.698 OA 
HETATM    7  H   UNL     1     -13.428  13.056  64.281  1.00  0.00     0.000 HD 
HETATM    8  N   UNL     1     -12.328  12.462  65.871  1.00  0.00    -0.577 NA 
HETATM    9  C   UNL     1     -11.474  12.810  66.784  1.00  0.00    -0.343 C  
ENDROOT
BRANCH   9  10
HETATM   10  C   UNL     1     -11.069  11.761  67.786  1.00  0.00    -0.302 A  
HETATM   11  C   UNL     1     -11.879  11.436  68.875  1.00  0.00    -0.413 A  
HETATM   12  C   UNL     1     -11.435  10.518  69.835  1.00  0.00    -0.384 A  
HETATM   13  C   UNL     1     -10.180   9.904  69.736  1.00  0.00    -0.246 A  
HETATM   14  C   UNL     1      -9.373  10.230  68.640  1.00  0.00    -0.162 A  
HETATM   15  C   UNL     1      -9.816  11.143  67.668  1.00  0.00    -0.191 A  
BRANCH  13  16
HETATM   16  N   UNL     1      -9.707   9.025  70.735  1.00  0.00    -0.224 NA 
HETATM   17  H   UNL     1      -9.454   9.355  71.667  1.00  0.00     0.000 HD 
BRANCH  16  18
HETATM   18  N   UNL     1      -9.605   7.705  70.385  1.00  0.00    -0.168 NA 
HETATM   19  H   UNL     1      -8.688   7.266  70.309  1.00  0.00     0.000 HD 
BRANCH  18  20
HETATM   20  C   UNL     1     -10.682   7.009  70.151  1.00  0.00    -0.240 C  
HETATM   21  C   UNL     1     -10.838   6.586  68.785  1.00  0.00    -0.299 C  
HETATM   22  C   UNL     1     -11.627   6.703  71.181  1.00  0.00    -0.332 C  
HETATM   23  N   UNL     1     -12.369   6.443  72.038  1.00  0.00    -0.303 NA 
HETATM   24  N   UNL     1     -10.971   6.220  67.691  1.00  0.00    -0.343 NA 
ENDBRANCH  18  20
ENDBRANCH  16  18
ENDBRANCH  13  16
ENDBRANCH   9  10
TORSDOF 4
ENDMDL
MODEL       48
REMARK 921   NORMALIZED FREE ENERGY PREDICTED BY IDOCK:   -5.91 KCAL/MOL
REMARK 922        TOTAL FREE ENERGY PREDICTED BY IDOCK:   -8.00 KCAL/MOL
REMARK 923 INTER-LIGAND FREE ENERGY PREDICTED BY IDOCK:   -7.24 KCAL/MOL
REMARK 924 INTRA-LIGAND FREE ENERGY PREDICTED BY IDOCK:   -0.76 KCAL/MOL
REMARK 927      BINDING AFFINITY PREDICTED BY RF-SCORE:    0.00 PKD
ROOT
HETATM    1  C   UNL     1     -10.742  19.674  66.203  1.00  0.00    -0.520 C  
HETATM    2  C   UNL     1      -9.599  19.111  67.052  1.00  0.00    -0.378 C  
HETATM    3  C   UNL     1      -8.479  20.139  67.180  1.00  0.00    -0.403 C  
HETATM    4  C   UNL     1      -7.226  19.844  66.414  1.00  0.00    -0.264 C  
HETATM    5  N   UNL     1      -7.116  18.619  65.832  1.00  0.00    -0.264 N  
HETATM    6  O   UNL     1      -6.311  20.665  66.342  1.00  0.00    -0.216 OA 
HETATM    7  H   UNL     1      -6.275  18.456  65.277  1.00  0.00     0.000 HD 
HETATM    8  N   UNL     1      -7.993  17.594  65.905  1.00  0.00    -0.555 NA 
HETATM    9  C   UNL     1      -9.140  17.768  66.490  1.00  0.00    -0.264 C  
ENDROOT
BRANCH   9  10
HETATM   10  C   UNL     1     -10.048  16.573  66.597  1.00  0.00    -0.299 A  
HETATM   11  C   UNL     1     -10.589  16.169  67.819  1.00  0.00    -0.309 A  
HETATM   12  C   UNL     1     -11.360  15.003  67.898  1.00  0.00    -0.344 A  
HETATM   13  C   UNL     1     -11.612  14.213  66.769  1.00  0.00    -0.391 A  
HETATM   14  C   UNL     1     -11.071  14.624  65.546  1.00  0.00    -0.345 A  
HETATM   15  C   UNL     1     -10.304  15.797  65.457  1.00  0.00    -0.430 A  
BRANCH  13  16
HETATM   16  N   UNL     1     -12.338  13.005  66.860  1.00  0.00    -0.334 NA 
HETATM   17  H   UNL     1     -13.313  12.985  67.161  1.00  0.00     0.000 HD 
BRANCH  16  18
HETATM   18  N   UNL     1     -11.663  11.862  66.523  1.00  0.00    -0.562 NA 
HETATM   19  H   UNL     1     -11.445  11.668  65.546  1.00  0.00     0.000 HD 
BRANCH  18  20
HETATM   20  C   UNL     1     -11.300  11.023  67.451  1.00  0.00    -0.230 C  
HETATM   21  C   UNL     1     -10.627   9.847  66.968  1.00  0.00    -0.203 C  
HETATM   22  C   UNL     1     -11.562  11.265  68.838  1.00  0.00    -0.319 C  
HETATM   23  N   UNL     1     -11.761  11.493  69.960  1.00  0.00    -0.331 NA 
HETATM   24  N   UNL     1     -10.065   8.901  66.597  1.00  0.00    -0.279 NA 
ENDBRANCH  18  20
ENDBRANCH  16  18
ENDBRANCH  13  16
ENDBRANCH   9  10
TORSDOF 4
ENDMDL
MODEL       49
REMARK 921   NORMALIZED FREE ENERGY PREDICTED BY IDOCK:   -5.90 KCAL/MOL
REMARK 922        TOTAL FREE ENERGY PREDICTED BY IDOCK:   -7.99 KCAL/MOL
REMARK 923 INTER-LIGAND FREE ENERGY PREDICTED BY IDOCK:   -7.36 KCAL/MOL
REMARK 924 INTRA-LIGAND FREE ENERGY PREDICTED BY IDOCK:   -0.62 KCAL/MOL
REMARK 927      BINDING AFFINITY PREDICTED BY RF-SCORE:    0.00 PKD
ROOT
HETATM    1  C   UNL     1     -11.552   6.545  69.806  1.00  0.00    -0.392 C  
HETATM    2  C   UNL     1     -10.511   6.995  70.834  1.00  0.00    -0.233 C  
HETATM    3  C   UNL     1     -10.041   5.807  71.668  1.00  0.00    -0.241 C  
HETATM    4  C   UNL     1     -10.517   5.771  73.088  1.00  0.00    -0.226 C  
HETATM    5  N   UNL     1     -11.159   6.872  73.566  1.00  0.00    -0.517 N  
HETATM    6  O   UNL     1     -10.306   4.796  73.810  1.00  0.00    -0.176 OA 
HETATM    7  H   UNL     1     -11.515   6.809  74.520  1.00  0.00     0.000 HD 
HETATM    8  N   UNL     1     -11.377   8.040  72.922  1.00  0.00    -0.382 NA 
HETATM    9  C   UNL     1     -11.061   8.151  71.667  1.00  0.00    -0.255 C  
ENDROOT
BRANCH   9  10
HETATM   10  C   UNL     1     -11.268   9.494  71.021  1.00  0.00    -0.432 A  
HETATM   11  C   UNL     1     -12.292  10.354  71.424  1.00  0.00    -0.500 A  
HETATM   12  C   UNL     1     -12.510  11.559  70.744  1.00  0.00    -0.444 A  
HETATM   13  C   UNL     1     -11.720  11.937  69.651  1.00  0.00    -0.343 A  
HETATM   14  C   UNL     1     -10.693  11.074  69.253  1.00  0.00    -0.263 A  
HETATM   15  C   UNL     1     -10.462   9.868  69.935  1.00  0.00    -0.309 A  
BRANCH  13  16
HETATM   16  N   UNL     1     -11.979  13.122  68.928  1.00  0.00    -0.306 NA 
HETATM   17  H   UNL     1     -11.740  13.213  67.940  1.00  0.00     0.000 HD 
BRANCH  16  18
HETATM   18  N   UNL     1     -12.568  14.143  69.625  1.00  0.00    -0.459 NA 
HETATM   19  H   UNL     1     -13.562  14.100  69.851  1.00  0.00     0.000 HD 
BRANCH  18  20
HETATM   20  C   UNL     1     -11.859  15.170  70.000  1.00  0.00    -0.325 C  
HETATM   21  C   UNL     1     -11.710  15.310  71.424  1.00  0.00    -0.389 C  
HETATM   22  C   UNL     1     -11.285  16.081  69.056  1.00  0.00    -0.347 C  
HETATM   23  N   UNL     1     -10.806  16.793  68.272  1.00  0.00    -0.366 NA 
HETATM   24  N   UNL     1     -11.563  15.428  72.570  1.00  0.00    -0.459 NA 
ENDBRANCH  18  20
ENDBRANCH  16  18
ENDBRANCH  13  16
ENDBRANCH   9  10
TORSDOF 4
ENDMDL
MODEL       50
REMARK 921   NORMALIZED FREE ENERGY PREDICTED BY IDOCK:   -5.89 KCAL/MOL
REMARK 922        TOTAL FREE ENERGY PREDICTED BY IDOCK:   -7.97 KCAL/MOL
REMARK 923 INTER-LIGAND FREE ENERGY PREDICTED BY IDOCK:   -7.55 KCAL/MOL
REMARK 924 INTRA-LIGAND FREE ENERGY PREDICTED BY IDOCK:   -0.42 KCAL/MOL
REMARK 927      BINDING AFFINITY PREDICTED BY RF-SCORE:    0.00 PKD
ROOT
HETATM    1  C   UNL     1     -10.175   9.227  69.727  1.00  0.00    -0.225 C  
HETATM    2  C   UNL     1     -10.964   9.475  71.015  1.00  0.00    -0.424 C  
HETATM    3  C   UNL     1     -11.216   8.158  71.744  1.00  0.00    -0.329 C  
HETATM    4  C   UNL     1     -12.624   7.649  71.714  1.00  0.00    -0.331 C  
HETATM    5  N   UNL     1     -13.583   8.475  71.215  1.00  0.00    -0.558 N  
HETATM    6  O   UNL     1     -12.912   6.536  72.156  1.00  0.00    -0.187 OA 
HETATM    7  H   UNL     1     -14.527   8.092  71.162  1.00  0.00     0.000 HD 
HETATM    8  N   UNL     1     -13.428   9.747  70.784  1.00  0.00    -0.156 NA 
HETATM    9  C   UNL     1     -12.238  10.260  70.708  1.00  0.00    -0.350 C  
ENDROOT
BRANCH   9  10
HETATM   10  C   UNL     1     -12.133  11.699  70.282  1.00  0.00    -0.443 A  
HETATM   11  C   UNL     1     -12.460  12.746  71.146  1.00  0.00    -0.335 A  
HETATM   12  C   UNL     1     -12.434  14.071  70.691  1.00  0.00    -0.435 A  
HETATM   13  C   UNL     1     -12.084  14.385  69.372  1.00  0.00    -0.297 A  
HETATM   14  C   UNL     1     -11.753  13.333  68.511  1.00  0.00    -0.388 A  
HETATM   15  C   UNL     1     -11.768  12.003  68.962  1.00  0.00    -0.382 A  
BRANCH  13  16
HETATM   16  N   UNL     1     -12.117  15.715  68.897  1.00  0.00    -0.584 NA 
HETATM   17  H   UNL     1     -12.978  16.144  68.556  1.00  0.00     0.000 HD 
BRANCH  16  18
HETATM   18  N   UNL     1     -10.930  16.398  68.919  1.00  0.00    -0.323 NA 
HETATM   19  H   UNL     1     -10.372  16.426  69.772  1.00  0.00     0.000 HD 
BRANCH  18  20
HETATM   20  C   UNL     1     -10.513  17.013  67.848  1.00  0.00    -0.354 C  
HETATM   21  C   UNL     1     -10.033  16.147  66.806  1.00  0.00    -0.258 C  
HETATM   22  C   UNL     1     -10.533  18.440  67.737  1.00  0.00    -0.409 C  
HETATM   23  N   UNL     1     -10.583  19.599  67.657  1.00  0.00    -0.444 NA 
HETATM   24  N   UNL     1      -9.659  15.461  65.946  1.00  0.00    -0.343 NA 
ENDBRANCH  18  20
ENDBRANCH  16  18
ENDBRANCH  13  16
ENDBRANCH   9  10
TORSDOF 4
ENDMDL
MODEL       51
REMARK 921   NORMALIZED FREE ENERGY PREDICTED BY IDOCK:   -5.89 KCAL/MOL
REMARK 922        TOTAL FREE ENERGY PREDICTED BY IDOCK:   -7.97 KCAL/MOL
REMARK 923 INTER-LIGAND FREE ENERGY PREDICTED BY IDOCK:   -7.66 KCAL/MOL
REMARK 924 INTRA-LIGAND FREE ENERGY PREDICTED BY IDOCK:   -0.31 KCAL/MOL
REMARK 927      BINDING AFFINITY PREDICTED BY RF-SCORE:    0.00 PKD
ROOT
HETATM    1  C   UNL     1     -12.068  12.098  64.005  1.00  0.00    -0.540 C  
HETATM    2  C   UNL     1     -10.592  11.944  64.380  1.00  0.00    -0.366 C  
HETATM    3  C   UNL     1      -9.798  11.407  63.193  1.00  0.00    -0.413 C  
HETATM    4  C   UNL     1      -9.332   9.988  63.302  1.00  0.00    -0.256 C  
HETATM    5  N   UNL     1      -9.485   9.363  64.502  1.00  0.00    -0.413 N  
HETATM    6  O   UNL     1      -8.797   9.414  62.352  1.00  0.00    -0.224 OA 
HETATM    7  H   UNL     1      -9.204   8.384  64.540  1.00  0.00     0.000 HD 
HETATM    8  N   UNL     1      -9.967   9.894  65.647  1.00  0.00    -0.295 NA 
HETATM    9  C   UNL     1     -10.457  11.096  65.643  1.00  0.00    -0.248 C  
ENDROOT
BRANCH   9  10
HETATM   10  C   UNL     1     -10.919  11.657  66.961  1.00  0.00    -0.338 A  
HETATM   11  C   UNL     1     -11.056  10.853  68.094  1.00  0.00    -0.337 A  
HETATM   12  C   UNL     1     -11.570  11.388  69.282  1.00  0.00    -0.384 A  
HETATM   13  C   UNL     1     -11.960  12.731  69.372  1.00  0.00    -0.263 A  
HETATM   14  C   UNL     1     -11.817  13.534  68.235  1.00  0.00    -0.401 A  
HETATM   15  C   UNL     1     -11.294  13.007  67.043  1.00  0.00    -0.343 A  
BRANCH  13  16
HETATM   16  N   UNL     1     -12.535  13.255  70.550  1.00  0.00    -0.296 NA 
HETATM   17  H   UNL     1     -12.531  12.735  71.428  1.00  0.00     0.000 HD 
BRANCH  16  18
HETATM   18  N   UNL     1     -13.099  14.499  70.450  1.00  0.00    -0.519 NA 
HETATM   19  H   UNL     1     -13.910  14.645  69.850  1.00  0.00     0.000 HD 
BRANCH  18  20
HETATM   20  C   UNL     1     -12.599  15.497  71.123  1.00  0.00    -0.448 C  
HETATM   21  C   UNL     1     -11.556  16.217  70.444  1.00  0.00    -0.277 C  
HETATM   22  C   UNL     1     -13.059  15.833  72.436  1.00  0.00    -0.465 C  
HETATM   23  N   UNL     1     -13.465  16.105  73.491  1.00  0.00    -0.605 NA 
HETATM   24  N   UNL     1     -10.725  16.821  69.902  1.00  0.00    -0.233 NA 
ENDBRANCH  18  20
ENDBRANCH  16  18
ENDBRANCH  13  16
ENDBRANCH   9  10
TORSDOF 4
ENDMDL
MODEL       52
REMARK 921   NORMALIZED FREE ENERGY PREDICTED BY IDOCK:   -5.87 KCAL/MOL
REMARK 922        TOTAL FREE ENERGY PREDICTED BY IDOCK:   -7.95 KCAL/MOL
REMARK 923 INTER-LIGAND FREE ENERGY PREDICTED BY IDOCK:   -7.14 KCAL/MOL
REMARK 924 INTRA-LIGAND FREE ENERGY PREDICTED BY IDOCK:   -0.81 KCAL/MOL
REMARK 927      BINDING AFFINITY PREDICTED BY RF-SCORE:    0.00 PKD
ROOT
HETATM    1  C   UNL     1     -10.753  19.815  66.481  1.00  0.00    -0.508 C  
HETATM    2  C   UNL     1      -9.583  19.188  67.243  1.00  0.00    -0.375 C  
HETATM    3  C   UNL     1      -8.446  20.195  67.391  1.00  0.00    -0.398 C  
HETATM    4  C   UNL     1      -7.229  19.940  66.556  1.00  0.00    -0.254 C  
HETATM    5  N   UNL     1      -7.158  18.755  65.890  1.00  0.00    -0.262 N  
HETATM    6  O   UNL     1      -6.308  20.756  66.499  1.00  0.00    -0.225 OA 
HETATM    7  H   UNL     1      -6.343  18.621  65.291  1.00  0.00     0.000 HD 
HETATM    8  N   UNL     1      -8.044  17.735  65.932  1.00  0.00    -0.544 NA 
HETATM    9  C   UNL     1      -9.162  17.881  66.575  1.00  0.00    -0.273 C  
ENDROOT
BRANCH   9  10
HETATM   10  C   UNL     1     -10.080  16.689  66.642  1.00  0.00    -0.305 A  
HETATM   11  C   UNL     1     -10.609  16.237  67.852  1.00  0.00    -0.318 A  
HETATM   12  C   UNL     1     -11.390  15.075  67.890  1.00  0.00    -0.344 A  
HETATM   13  C   UNL     1     -11.661  14.336  66.731  1.00  0.00    -0.405 A  
HETATM   14  C   UNL     1     -11.131  14.796  65.520  1.00  0.00    -0.346 A  
HETATM   15  C   UNL     1     -10.356  15.965  65.472  1.00  0.00    -0.425 A  
BRANCH  13  16
HETATM   16  N   UNL     1     -12.397  13.132  66.779  1.00  0.00    -0.328 NA 
HETATM   17  H   UNL     1     -13.275  13.057  67.293  1.00  0.00     0.000 HD 
BRANCH  16  18
HETATM   18  N   UNL     1     -11.867  12.068  66.097  1.00  0.00    -0.555 NA 
HETATM   19  H   UNL     1     -12.036  11.969  65.096  1.00  0.00     0.000 HD 
BRANCH  18  20
HETATM   20  C   UNL     1     -11.148  11.184  66.727  1.00  0.00    -0.214 C  
HETATM   21  C   UNL     1     -11.426  11.075  68.134  1.00  0.00    -0.302 C  
HETATM   22  C   UNL     1     -10.158  10.394  66.058  1.00  0.00    -0.243 C  
HETATM   23  N   UNL     1      -9.378   9.745  65.491  1.00  0.00    -0.220 NA 
HETATM   24  N   UNL     1     -11.651  10.960  69.267  1.00  0.00    -0.292 NA 
ENDBRANCH  18  20
ENDBRANCH  16  18
ENDBRANCH  13  16
ENDBRANCH   9  10
TORSDOF 4
ENDMDL
MODEL       53
REMARK 921   NORMALIZED FREE ENERGY PREDICTED BY IDOCK:   -5.86 KCAL/MOL
REMARK 922        TOTAL FREE ENERGY PREDICTED BY IDOCK:   -7.94 KCAL/MOL
REMARK 923 INTER-LIGAND FREE ENERGY PREDICTED BY IDOCK:   -7.34 KCAL/MOL
REMARK 924 INTRA-LIGAND FREE ENERGY PREDICTED BY IDOCK:   -0.60 KCAL/MOL
REMARK 927      BINDING AFFINITY PREDICTED BY RF-SCORE:    0.00 PKD
ROOT
HETATM    1  C   UNL     1      -9.842  20.797  67.103  1.00  0.00    -0.402 C  
HETATM    2  C   UNL     1      -8.599  19.976  67.459  1.00  0.00    -0.401 C  
HETATM    3  C   UNL     1      -7.346  20.839  67.351  1.00  0.00    -0.390 C  
HETATM    4  C   UNL     1      -6.445  20.546  66.191  1.00  0.00    -0.230 C  
HETATM    5  N   UNL     1      -6.709  19.435  65.451  1.00  0.00    -0.277 N  
HETATM    6  O   UNL     1      -5.477  21.264  65.935  1.00  0.00    -0.222 OA 
HETATM    7  H   UNL     1      -6.111  19.280  64.639  1.00  0.00     0.000 HD 
HETATM    8  N   UNL     1      -7.673  18.514  65.670  1.00  0.00    -0.483 NA 
HETATM    9  C   UNL     1      -8.547  18.708  66.610  1.00  0.00    -0.297 C  
ENDROOT
BRANCH   9  10
HETATM   10  C   UNL     1      -9.557  17.617  66.849  1.00  0.00    -0.286 A  
HETATM   11  C   UNL     1      -9.985  17.282  68.135  1.00  0.00    -0.303 A  
HETATM   12  C   UNL     1     -10.860  16.206  68.329  1.00  0.00    -0.326 A  
HETATM   13  C   UNL     1     -11.328  15.439  67.254  1.00  0.00    -0.220 A  
HETATM   14  C   UNL     1     -10.899  15.782  65.966  1.00  0.00    -0.256 A  
HETATM   15  C   UNL     1     -10.029  16.865  65.763  1.00  0.00    -0.209 A  
BRANCH  13  16
HETATM   16  N   UNL     1     -12.161  14.317  67.455  1.00  0.00    -0.604 NA 
HETATM   17  H   UNL     1     -12.327  13.929  68.384  1.00  0.00     0.000 HD 
BRANCH  16  18
HETATM   18  N   UNL     1     -12.735  13.777  66.335  1.00  0.00    -0.377 NA 
HETATM   19  H   UNL     1     -13.569  14.205  65.933  1.00  0.00     0.000 HD 
BRANCH  18  20
HETATM   20  C   UNL     1     -12.216  12.716  65.784  1.00  0.00    -0.361 C  
HETATM   21  C   UNL     1     -11.383  11.933  66.655  1.00  0.00    -0.337 C  
HETATM   22  C   UNL     1     -12.463  12.375  64.415  1.00  0.00    -0.433 C  
HETATM   23  N   UNL     1     -12.697  12.102  63.310  1.00  0.00    -0.699 NA 
HETATM   24  N   UNL     1     -10.722  11.279  67.350  1.00  0.00    -0.227 NA 
ENDBRANCH  18  20
ENDBRANCH  16  18
ENDBRANCH  13  16
ENDBRANCH   9  10
TORSDOF 4
ENDMDL
MODEL       54
REMARK 921   NORMALIZED FREE ENERGY PREDICTED BY IDOCK:   -5.84 KCAL/MOL
REMARK 922        TOTAL FREE ENERGY PREDICTED BY IDOCK:   -7.92 KCAL/MOL
REMARK 923 INTER-LIGAND FREE ENERGY PREDICTED BY IDOCK:   -7.32 KCAL/MOL
REMARK 924 INTRA-LIGAND FREE ENERGY PREDICTED BY IDOCK:   -0.60 KCAL/MOL
REMARK 927      BINDING AFFINITY PREDICTED BY RF-SCORE:    0.00 PKD
ROOT
HETATM    1  C   UNL     1     -10.422   8.539  70.549  1.00  0.00    -0.230 C  
HETATM    2  C   UNL     1     -11.274   9.643  71.181  1.00  0.00    -0.454 C  
HETATM    3  C   UNL     1     -12.113   9.078  72.322  1.00  0.00    -0.358 C  
HETATM    4  C   UNL     1     -13.582   8.953  72.059  1.00  0.00    -0.441 C  
HETATM    5  N   UNL     1     -14.069   9.518  70.920  1.00  0.00    -0.320 N  
HETATM    6  O   UNL     1     -14.331   8.391  72.859  1.00  0.00    -0.315 OA 
HETATM    7  H   UNL     1     -15.064   9.382  70.738  1.00  0.00     0.000 HD 
HETATM    8  N   UNL     1     -13.386  10.239  70.005  1.00  0.00     0.203 NA 
HETATM    9  C   UNL     1     -12.096  10.351  70.106  1.00  0.00    -0.256 C  
ENDROOT
BRANCH   9  10
HETATM   10  C   UNL     1     -11.397  11.220  69.095  1.00  0.00    -0.349 A  
HETATM   11  C   UNL     1     -11.017  12.530  69.390  1.00  0.00    -0.055 A  
HETATM   12  C   UNL     1     -10.446  13.339  68.399  1.00  0.00    -0.261 A  
HETATM   13  C   UNL     1     -10.242  12.868  67.096  1.00  0.00    -0.239 A  
HETATM   14  C   UNL     1     -10.621  11.552  66.806  1.00  0.00    -0.289 A  
HETATM   15  C   UNL     1     -11.185  10.732  67.797  1.00  0.00    -0.385 A  
BRANCH  13  16
HETATM   16  N   UNL     1      -9.723  13.703  66.082  1.00  0.00    -0.380 NA 
HETATM   17  H   UNL     1      -9.116  14.494  66.295  1.00  0.00     0.000 HD 
BRANCH  16  18
HETATM   18  N   UNL     1     -10.080  13.392  64.797  1.00  0.00    -0.596 NA 
HETATM   19  H   UNL     1      -9.519  12.734  64.256  1.00  0.00     0.000 HD 
BRANCH  18  20
HETATM   20  C   UNL     1     -11.137  13.937  64.265  1.00  0.00    -0.233 C  
HETATM   21  C   UNL     1     -12.071  13.005  63.692  1.00  0.00    -0.531 C  
HETATM   22  C   UNL     1     -11.336  15.355  64.255  1.00  0.00    -0.126 C  
HETATM   23  N   UNL     1     -11.491  16.507  64.281  1.00  0.00    -1.008 NA 
HETATM   24  N   UNL     1     -12.844  12.265  63.242  1.00  0.00    -0.695 NA 
ENDBRANCH  18  20
ENDBRANCH  16  18
ENDBRANCH  13  16
ENDBRANCH   9  10
TORSDOF 4
ENDMDL
MODEL       55
REMARK 921   NORMALIZED FREE ENERGY PREDICTED BY IDOCK:   -5.83 KCAL/MOL
REMARK 922        TOTAL FREE ENERGY PREDICTED BY IDOCK:   -7.91 KCAL/MOL
REMARK 923 INTER-LIGAND FREE ENERGY PREDICTED BY IDOCK:   -7.32 KCAL/MOL
REMARK 924 INTRA-LIGAND FREE ENERGY PREDICTED BY IDOCK:   -0.59 KCAL/MOL
REMARK 927      BINDING AFFINITY PREDICTED BY RF-SCORE:    0.00 PKD
ROOT
HETATM    1  C   UNL     1      -8.443  14.313  67.432  1.00  0.00    -0.216 C  
HETATM    2  C   UNL     1      -9.751  14.780  66.790  1.00  0.00    -0.264 C  
HETATM    3  C   UNL     1      -9.511  16.026  65.943  1.00  0.00    -0.351 C  
HETATM    4  C   UNL     1     -10.047  17.310  66.496  1.00  0.00    -0.309 C  
HETATM    5  N   UNL     1     -10.853  17.239  67.590  1.00  0.00    -0.297 N  
HETATM    6  O   UNL     1      -9.798  18.391  65.962  1.00  0.00    -0.489 OA 
HETATM    7  H   UNL     1     -11.170  18.128  67.978  1.00  0.00     0.000 HD 
HETATM    8  N   UNL     1     -11.283  16.123  68.221  1.00  0.00    -0.357 NA 
HETATM    9  C   UNL     1     -10.825  14.963  67.861  1.00  0.00    -0.276 C  
ENDROOT
BRANCH   9  10
HETATM   10  C   UNL     1     -11.388  13.753  68.557  1.00  0.00    -0.318 A  
HETATM   11  C   UNL     1     -11.832  13.806  69.880  1.00  0.00    -0.394 A  
HETATM   12  C   UNL     1     -12.270  12.643  70.524  1.00  0.00    -0.383 A  
HETATM   13  C   UNL     1     -12.278  11.403  69.872  1.00  0.00    -0.277 A  
HETATM   14  C   UNL     1     -11.836  11.355  68.545  1.00  0.00    -0.364 A  
HETATM   15  C   UNL     1     -11.403  12.519  67.889  1.00  0.00    -0.343 A  
BRANCH  13  16
HETATM   16  N   UNL     1     -12.662  10.220  70.541  1.00  0.00    -0.505 NA 
HETATM   17  H   UNL     1     -13.609   9.847  70.474  1.00  0.00     0.000 HD 
BRANCH  16  18
HETATM   18  N   UNL     1     -11.693   9.600  71.286  1.00  0.00    -0.353 NA 
HETATM   19  H   UNL     1     -10.750   9.988  71.321  1.00  0.00     0.000 HD 
BRANCH  18  20
HETATM   20  C   UNL     1     -11.976   8.515  71.949  1.00  0.00    -0.345 C  
HETATM   21  C   UNL     1     -10.919   8.038  72.799  1.00  0.00    -0.382 C  
HETATM   22  C   UNL     1     -13.242   7.859  71.825  1.00  0.00    -0.329 C  
HETATM   23  N   UNL     1     -14.287   7.357  71.730  1.00  0.00    -0.442 NA 
HETATM   24  N   UNL     1     -10.084   7.649  73.506  1.00  0.00    -0.322 NA 
ENDBRANCH  18  20
ENDBRANCH  16  18
ENDBRANCH  13  16
ENDBRANCH   9  10
TORSDOF 4
ENDMDL
MODEL       56
REMARK 921   NORMALIZED FREE ENERGY PREDICTED BY IDOCK:   -5.77 KCAL/MOL
REMARK 922        TOTAL FREE ENERGY PREDICTED BY IDOCK:   -7.83 KCAL/MOL
REMARK 923 INTER-LIGAND FREE ENERGY PREDICTED BY IDOCK:   -7.23 KCAL/MOL
REMARK 924 INTRA-LIGAND FREE ENERGY PREDICTED BY IDOCK:   -0.60 KCAL/MOL
REMARK 927      BINDING AFFINITY PREDICTED BY RF-SCORE:    0.00 PKD
ROOT
HETATM    1  C   UNL     1     -11.410   6.291  69.528  1.00  0.00    -0.475 C  
HETATM    2  C   UNL     1     -10.503   6.769  70.665  1.00  0.00    -0.243 C  
HETATM    3  C   UNL     1     -10.207   5.620  71.624  1.00  0.00    -0.261 C  
HETATM    4  C   UNL     1     -10.877   5.691  72.962  1.00  0.00    -0.271 C  
HETATM    5  N   UNL     1     -11.529   6.843  73.281  1.00  0.00    -0.470 N  
HETATM    6  O   UNL     1     -10.812   4.757  73.762  1.00  0.00    -0.270 OA 
HETATM    7  H   UNL     1     -12.017   6.853  74.177  1.00  0.00     0.000 HD 
HETATM    8  N   UNL     1     -11.604   7.974  72.545  1.00  0.00    -0.390 NA 
HETATM    9  C   UNL     1     -11.112   7.994  71.343  1.00  0.00    -0.241 C  
ENDROOT
BRANCH   9  10
HETATM   10  C   UNL     1     -11.167   9.300  70.597  1.00  0.00    -0.333 A  
HETATM   11  C   UNL     1     -10.239   9.618  69.604  1.00  0.00    -0.239 A  
HETATM   12  C   UNL     1     -10.266  10.876  68.990  1.00  0.00    -0.219 A  
HETATM   13  C   UNL     1     -11.213  11.845  69.346  1.00  0.00    -0.211 A  
HETATM   14  C   UNL     1     -12.144  11.520  70.339  1.00  0.00    -0.471 A  
HETATM   15  C   UNL     1     -12.128  10.257  70.954  1.00  0.00    -0.468 A  
BRANCH  13  16
HETATM   16  N   UNL     1     -11.202  13.134  68.770  1.00  0.00    -0.266 NA 
HETATM   17  H   UNL     1     -11.492  13.295  67.805  1.00  0.00     0.000 HD 
BRANCH  16  18
HETATM   18  N   UNL     1     -10.781  14.157  69.577  1.00  0.00    -0.437 NA 
HETATM   19  H   UNL     1      -9.912  14.068  70.103  1.00  0.00     0.000 HD 
BRANCH  18  20
HETATM   20  C   UNL     1     -11.492  15.246  69.674  1.00  0.00    -0.305 C  
HETATM   21  C   UNL     1     -11.094  16.304  68.785  1.00  0.00    -0.355 C  
HETATM   22  C   UNL     1     -12.576  15.363  70.601  1.00  0.00    -0.439 C  
HETATM   23  N   UNL     1     -13.470  15.429  71.343  1.00  0.00    -0.502 NA 
HETATM   24  N   UNL     1     -10.799  17.162  68.061  1.00  0.00    -0.366 NA 
ENDBRANCH  18  20
ENDBRANCH  16  18
ENDBRANCH  13  16
ENDBRANCH   9  10
TORSDOF 4
ENDMDL
MODEL       57
REMARK 921   NORMALIZED FREE ENERGY PREDICTED BY IDOCK:   -5.76 KCAL/MOL
REMARK 922        TOTAL FREE ENERGY PREDICTED BY IDOCK:   -7.81 KCAL/MOL
REMARK 923 INTER-LIGAND FREE ENERGY PREDICTED BY IDOCK:   -7.29 KCAL/MOL
REMARK 924 INTRA-LIGAND FREE ENERGY PREDICTED BY IDOCK:   -0.53 KCAL/MOL
REMARK 927      BINDING AFFINITY PREDICTED BY RF-SCORE:    0.00 PKD
ROOT
HETATM    1  C   UNL     1     -12.642  14.081  65.621  1.00  0.00    -0.542 C  
HETATM    2  C   UNL     1     -11.415  13.658  66.433  1.00  0.00    -0.358 C  
HETATM    3  C   UNL     1     -11.568  12.218  66.912  1.00  0.00    -0.427 C  
HETATM    4  C   UNL     1     -11.828  12.036  68.377  1.00  0.00    -0.300 C  
HETATM    5  N   UNL     1     -11.719  13.132  69.177  1.00  0.00    -0.307 N  
HETATM    6  O   UNL     1     -12.095  10.930  68.847  1.00  0.00    -0.463 OA 
HETATM    7  H   UNL     1     -11.945  12.995  70.163  1.00  0.00     0.000 HD 
HETATM    8  N   UNL     1     -11.346  14.379  68.815  1.00  0.00    -0.257 NA 
HETATM    9  C   UNL     1     -11.161  14.657  67.560  1.00  0.00    -0.333 C  
ENDROOT
BRANCH   9  10
HETATM   10  C   UNL     1     -10.684  16.044  67.224  1.00  0.00    -0.295 A  
HETATM   11  C   UNL     1     -10.879  17.119  68.094  1.00  0.00    -0.316 A  
HETATM   12  C   UNL     1     -10.500  18.412  67.713  1.00  0.00    -0.433 A  
HETATM   13  C   UNL     1      -9.920  18.667  66.463  1.00  0.00    -0.380 A  
HETATM   14  C   UNL     1      -9.723  17.586  65.597  1.00  0.00     0.222 A  
HETATM   15  C   UNL     1     -10.092  16.285  65.975  1.00  0.00    -0.377 A  
BRANCH  13  16
HETATM   16  N   UNL     1      -9.594  19.980  66.056  1.00  0.00    -0.538 NA 
HETATM   17  H   UNL     1     -10.011  20.406  65.228  1.00  0.00     0.000 HD 
BRANCH  16  18
HETATM   18  N   UNL     1      -8.686  20.650  66.832  1.00  0.00    -0.572 NA 
HETATM   19  H   UNL     1      -9.000  21.386  67.465  1.00  0.00     0.000 HD 
BRANCH  18  20
HETATM   20  C   UNL     1      -7.420  20.347  66.763  1.00  0.00    -0.280 C  
HETATM   21  C   UNL     1      -6.694  20.517  67.992  1.00  0.00    -0.295 C  
HETATM   22  C   UNL     1      -6.816  19.888  65.549  1.00  0.00    -0.300 C  
HETATM   23  N   UNL     1      -6.350  19.493  64.560  1.00  0.00    -0.401 NA 
HETATM   24  N   UNL     1      -6.096  20.629  68.982  1.00  0.00    -0.333 NA 
ENDBRANCH  18  20
ENDBRANCH  16  18
ENDBRANCH  13  16
ENDBRANCH   9  10
TORSDOF 4
ENDMDL
MODEL       58
REMARK 921   NORMALIZED FREE ENERGY PREDICTED BY IDOCK:   -5.75 KCAL/MOL
REMARK 922        TOTAL FREE ENERGY PREDICTED BY IDOCK:   -7.80 KCAL/MOL
REMARK 923 INTER-LIGAND FREE ENERGY PREDICTED BY IDOCK:   -7.10 KCAL/MOL
REMARK 924 INTRA-LIGAND FREE ENERGY PREDICTED BY IDOCK:   -0.70 KCAL/MOL
REMARK 927      BINDING AFFINITY PREDICTED BY RF-SCORE:    0.00 PKD
ROOT
HETATM    1  C   UNL     1     -11.811  14.811  68.473  1.00  0.00    -0.340 C  
HETATM    2  C   UNL     1     -11.114  14.101  67.309  1.00  0.00    -0.315 C  
HETATM    3  C   UNL     1     -11.245  14.925  66.032  1.00  0.00    -0.327 C  
HETATM    4  C   UNL     1     -12.176  14.381  64.992  1.00  0.00    -0.414 C  
HETATM    5  N   UNL     1     -12.674  13.129  65.183  1.00  0.00    -0.659 N  
HETATM    6  O   UNL     1     -12.456  15.028  63.981  1.00  0.00    -0.796 OA 
HETATM    7  H   UNL     1     -13.342  12.797  64.487  1.00  0.00     0.000 HD 
HETATM    8  N   UNL     1     -12.384  12.276  66.190  1.00  0.00    -0.460 NA 
HETATM    9  C   UNL     1     -11.638  12.673  67.176  1.00  0.00    -0.368 C  
ENDROOT
BRANCH   9  10
HETATM   10  C   UNL     1     -11.297  11.659  68.234  1.00  0.00    -0.348 A  
HETATM   11  C   UNL     1     -12.158  11.392  69.301  1.00  0.00    -0.356 A  
HETATM   12  C   UNL     1     -11.771  10.507  70.315  1.00  0.00    -0.420 A  
HETATM   13  C   UNL     1     -10.525   9.867  70.293  1.00  0.00    -0.291 A  
HETATM   14  C   UNL     1      -9.667  10.135  69.220  1.00  0.00    -0.238 A  
HETATM   15  C   UNL     1     -10.051  11.015  68.195  1.00  0.00    -0.195 A  
BRANCH  13  16
HETATM   16  N   UNL     1     -10.111   9.022  71.346  1.00  0.00    -0.308 NA 
HETATM   17  H   UNL     1     -10.767   8.412  71.836  1.00  0.00     0.000 HD 
BRANCH  16  18
HETATM   18  N   UNL     1      -8.782   9.065  71.674  1.00  0.00    -0.353 NA 
HETATM   19  H   UNL     1      -8.143   9.651  71.137  1.00  0.00     0.000 HD 
BRANCH  18  20
HETATM   20  C   UNL     1      -8.335   8.356  72.672  1.00  0.00    -0.139 C  
HETATM   21  C   UNL     1      -9.342   7.616  73.383  1.00  0.00    -0.268 C  
HETATM   22  C   UNL     1      -6.947   8.331  73.022  1.00  0.00    -0.101 C  
HETATM   23  N   UNL     1      -5.812   8.304  73.273  1.00  0.00    -0.064 NA 
HETATM   24  N   UNL     1     -10.139   6.997  73.956  1.00  0.00    -0.341 NA 
ENDBRANCH  18  20
ENDBRANCH  16  18
ENDBRANCH  13  16
ENDBRANCH   9  10
TORSDOF 4
ENDMDL
MODEL       59
REMARK 921   NORMALIZED FREE ENERGY PREDICTED BY IDOCK:   -5.74 KCAL/MOL
REMARK 922        TOTAL FREE ENERGY PREDICTED BY IDOCK:   -7.79 KCAL/MOL
REMARK 923 INTER-LIGAND FREE ENERGY PREDICTED BY IDOCK:   -7.23 KCAL/MOL
REMARK 924 INTRA-LIGAND FREE ENERGY PREDICTED BY IDOCK:   -0.56 KCAL/MOL
REMARK 927      BINDING AFFINITY PREDICTED BY RF-SCORE:    0.00 PKD
ROOT
HETATM    1  C   UNL     1     -11.782  12.780  67.695  1.00  0.00    -0.422 C  
HETATM    2  C   UNL     1     -12.105  13.705  66.519  1.00  0.00    -0.469 C  
HETATM    3  C   UNL     1     -12.968  12.976  65.494  1.00  0.00     0.113 C  
HETATM    4  C   UNL     1     -12.291  12.605  64.210  1.00  0.00    -0.435 C  
HETATM    5  N   UNL     1     -11.044  13.102  63.987  1.00  0.00    -0.488 N  
HETATM    6  O   UNL     1     -12.855  11.903  63.369  1.00  0.00    -0.715 OA 
HETATM    7  H   UNL     1     -10.584  12.799  63.129  1.00  0.00     0.000 HD 
HETATM    8  N   UNL     1     -10.347  13.951  64.774  1.00  0.00    -0.424 NA 
HETATM    9  C   UNL     1     -10.817  14.283  65.938  1.00  0.00    -0.300 C  
ENDROOT
BRANCH   9  10
HETATM   10  C   UNL     1     -10.028  15.282  66.741  1.00  0.00    -0.249 A  
HETATM   11  C   UNL     1     -10.610  16.017  67.775  1.00  0.00    -0.309 A  
HETATM   12  C   UNL     1      -9.871  17.000  68.445  1.00  0.00    -0.283 A  
HETATM   13  C   UNL     1      -8.540  17.275  68.105  1.00  0.00    -0.242 A  
HETATM   14  C   UNL     1      -7.960  16.533  67.070  1.00  0.00    -0.239 A  
HETATM   15  C   UNL     1      -8.692  15.540  66.399  1.00  0.00    -0.333 A  
BRANCH  13  16
HETATM   16  N   UNL     1      -7.815  18.308  68.739  1.00  0.00    -0.291 NA 
HETATM   17  H   UNL     1      -6.926  18.131  69.207  1.00  0.00     0.000 HD 
BRANCH  16  18
HETATM   18  N   UNL     1      -8.369  19.559  68.691  1.00  0.00    -0.352 NA 
HETATM   19  H   UNL     1      -8.762  19.976  69.535  1.00  0.00     0.000 HD 
BRANCH  18  20
HETATM   20  C   UNL     1      -8.395  20.217  67.566  1.00  0.00    -0.332 C  
HETATM   21  C   UNL     1      -7.155  20.854  67.214  1.00  0.00    -0.370 C  
HETATM   22  C   UNL     1      -9.575  20.294  66.759  1.00  0.00    -0.411 C  
HETATM   23  N   UNL     1     -10.537  20.321  66.106  1.00  0.00    -0.252 NA 
HETATM   24  N   UNL     1      -6.156  21.359  66.905  1.00  0.00    -0.422 NA 
ENDBRANCH  18  20
ENDBRANCH  16  18
ENDBRANCH  13  16
ENDBRANCH   9  10
TORSDOF 4
ENDMDL
MODEL       60
REMARK 921   NORMALIZED FREE ENERGY PREDICTED BY IDOCK:   -5.72 KCAL/MOL
REMARK 922        TOTAL FREE ENERGY PREDICTED BY IDOCK:   -7.76 KCAL/MOL
REMARK 923 INTER-LIGAND FREE ENERGY PREDICTED BY IDOCK:   -7.21 KCAL/MOL
REMARK 924 INTRA-LIGAND FREE ENERGY PREDICTED BY IDOCK:   -0.55 KCAL/MOL
REMARK 927      BINDING AFFINITY PREDICTED BY RF-SCORE:    0.00 PKD
ROOT
HETATM    1  C   UNL     1     -12.525  12.320  71.112  1.00  0.00    -0.328 C  
HETATM    2  C   UNL     1     -12.433  10.946  70.444  1.00  0.00    -0.411 C  
HETATM    3  C   UNL     1     -12.781   9.846  71.442  1.00  0.00    -0.503 C  
HETATM    4  C   UNL     1     -11.638   9.003  71.917  1.00  0.00    -0.370 C  
HETATM    5  N   UNL     1     -10.439   9.156  71.292  1.00  0.00    -0.302 N  
HETATM    6  O   UNL     1     -11.783   8.175  72.818  1.00  0.00    -0.403 OA 
HETATM    7  H   UNL     1      -9.663   8.606  71.661  1.00  0.00     0.000 HD 
HETATM    8  N   UNL     1     -10.159   9.953  70.237  1.00  0.00    -0.266 NA 
HETATM    9  C   UNL     1     -11.063  10.771  69.791  1.00  0.00    -0.281 C  
ENDROOT
BRANCH   9  10
HETATM   10  C   UNL     1     -10.716  11.587  68.574  1.00  0.00    -0.242 A  
HETATM   11  C   UNL     1      -9.402  11.972  68.299  1.00  0.00    -0.197 A  
HETATM   12  C   UNL     1      -9.126  12.803  67.206  1.00  0.00    -0.200 A  
HETATM   13  C   UNL     1     -10.143  13.268  66.363  1.00  0.00    -0.290 A  
HETATM   14  C   UNL     1     -11.457  12.876  66.641  1.00  0.00    -0.393 A  
HETATM   15  C   UNL     1     -11.742  12.036  67.730  1.00  0.00    -0.379 A  
BRANCH  13  16
HETATM   16  N   UNL     1      -9.871  14.155  65.298  1.00  0.00    -0.579 NA 
HETATM   17  H   UNL     1      -9.341  13.862  64.476  1.00  0.00     0.000 HD 
BRANCH  16  18
HETATM   18  N   UNL     1     -10.358  15.428  65.427  1.00  0.00    -0.375 NA 
HETATM   19  H   UNL     1     -11.117  15.748  64.825  1.00  0.00     0.000 HD 
BRANCH  18  20
HETATM   20  C   UNL     1      -9.851  16.232  66.319  1.00  0.00    -0.313 C  
HETATM   21  C   UNL     1     -10.655  16.405  67.498  1.00  0.00    -0.309 C  
HETATM   22  C   UNL     1      -8.593  16.886  66.122  1.00  0.00    -0.242 C  
HETATM   23  N   UNL     1      -7.557  17.387  65.954  1.00  0.00    -0.483 NA 
HETATM   24  N   UNL     1     -11.283  16.542  68.465  1.00  0.00    -0.345 NA 
ENDBRANCH  18  20
ENDBRANCH  16  18
ENDBRANCH  13  16
ENDBRANCH   9  10
TORSDOF 4
ENDMDL
MODEL       61
REMARK 921   NORMALIZED FREE ENERGY PREDICTED BY IDOCK:   -5.71 KCAL/MOL
REMARK 922        TOTAL FREE ENERGY PREDICTED BY IDOCK:   -7.75 KCAL/MOL
REMARK 923 INTER-LIGAND FREE ENERGY PREDICTED BY IDOCK:   -6.93 KCAL/MOL
REMARK 924 INTRA-LIGAND FREE ENERGY PREDICTED BY IDOCK:   -0.82 KCAL/MOL
REMARK 927      BINDING AFFINITY PREDICTED BY RF-SCORE:    0.00 PKD
ROOT
HETATM    1  C   UNL     1     -10.527  19.480  67.994  1.00  0.00    -0.528 C  
HETATM    2  C   UNL     1      -9.135  18.855  68.127  1.00  0.00    -0.351 C  
HETATM    3  C   UNL     1      -8.086  19.941  68.344  1.00  0.00    -0.239 C  
HETATM    4  C   UNL     1      -7.173  20.213  67.189  1.00  0.00    -0.257 C  
HETATM    5  N   UNL     1      -7.225  19.360  66.129  1.00  0.00    -0.253 N  
HETATM    6  O   UNL     1      -6.377  21.153  67.208  1.00  0.00    -0.298 OA 
HETATM    7  H   UNL     1      -6.628  19.589  65.335  1.00  0.00     0.000 HD 
HETATM    8  N   UNL     1      -7.976  18.243  66.011  1.00  0.00    -0.498 NA 
HETATM    9  C   UNL     1      -8.848  17.954  66.929  1.00  0.00    -0.253 C  
ENDROOT
BRANCH   9  10
HETATM   10  C   UNL     1      -9.610  16.664  66.775  1.00  0.00    -0.270 A  
HETATM   11  C   UNL     1      -9.708  15.741  67.817  1.00  0.00    -0.216 A  
HETATM   12  C   UNL     1     -10.350  14.513  67.614  1.00  0.00    -0.237 A  
HETATM   13  C   UNL     1     -10.908  14.175  66.374  1.00  0.00    -0.304 A  
HETATM   14  C   UNL     1     -10.811  15.106  65.334  1.00  0.00    -0.393 A  
HETATM   15  C   UNL     1     -10.176  16.343  65.533  1.00  0.00    -0.296 A  
BRANCH  13  16
HETATM   16  N   UNL     1     -11.502  12.913  66.152  1.00  0.00    -0.330 NA 
HETATM   17  H   UNL     1     -12.494  12.747  66.325  1.00  0.00     0.000 HD 
BRANCH  16  18
HETATM   18  N   UNL     1     -10.674  11.924  65.692  1.00  0.00    -0.271 NA 
HETATM   19  H   UNL     1      -9.921  11.573  66.283  1.00  0.00     0.000 HD 
BRANCH  18  20
HETATM   20  C   UNL     1     -10.849  11.432  64.498  1.00  0.00    -0.309 C  
HETATM   21  C   UNL     1     -12.025  11.906  63.818  1.00  0.00    -0.445 C  
HETATM   22  C   UNL     1      -9.936  10.490  63.925  1.00  0.00    -0.282 C  
HETATM   23  N   UNL     1      -9.168   9.745  63.467  1.00  0.00    -0.243 NA 
HETATM   24  N   UNL     1     -12.959  12.293  63.248  1.00  0.00    -0.655 NA 
ENDBRANCH  18  20
ENDBRANCH  16  18
ENDBRANCH  13  16
ENDBRANCH   9  10
TORSDOF 4
ENDMDL
MODEL       62
REMARK 921   NORMALIZED FREE ENERGY PREDICTED BY IDOCK:   -5.69 KCAL/MOL
REMARK 922        TOTAL FREE ENERGY PREDICTED BY IDOCK:   -7.73 KCAL/MOL
REMARK 923 INTER-LIGAND FREE ENERGY PREDICTED BY IDOCK:   -7.38 KCAL/MOL
REMARK 924 INTRA-LIGAND FREE ENERGY PREDICTED BY IDOCK:   -0.35 KCAL/MOL
REMARK 927      BINDING AFFINITY PREDICTED BY RF-SCORE:    0.00 PKD
ROOT
HETATM    1  C   UNL     1     -10.054  10.956  67.162  1.00  0.00    -0.235 C  
HETATM    2  C   UNL     1     -11.522  11.384  67.216  1.00  0.00    -0.301 C  
HETATM    3  C   UNL     1     -11.827  12.374  66.096  1.00  0.00    -0.442 C  
HETATM    4  C   UNL     1     -12.042  13.796  66.516  1.00  0.00    -0.443 C  
HETATM    5  N   UNL     1     -12.136  14.053  67.849  1.00  0.00    -0.510 N  
HETATM    6  O   UNL     1     -12.166  14.697  65.686  1.00  0.00    -0.295 OA 
HETATM    7  H   UNL     1     -12.236  15.033  68.115  1.00  0.00     0.000 HD 
HETATM    8  N   UNL     1     -12.112  13.158  68.861  1.00  0.00    -0.264 NA 
HETATM    9  C   UNL     1     -11.865  11.908  68.609  1.00  0.00    -0.308 C  
ENDROOT
BRANCH   9  10
HETATM   10  C   UNL     1     -11.915  10.948  69.767  1.00  0.00    -0.423 A  
HETATM   11  C   UNL     1     -10.775  10.280  70.217  1.00  0.00    -0.310 A  
HETATM   12  C   UNL     1     -10.872   9.329  71.241  1.00  0.00    -0.417 A  
HETATM   13  C   UNL     1     -12.100   9.020  71.840  1.00  0.00    -0.378 A  
HETATM   14  C   UNL     1     -13.240   9.695  71.388  1.00  0.00    -0.469 A  
HETATM   15  C   UNL     1     -13.149  10.657  70.369  1.00  0.00    -0.099 A  
BRANCH  13  16
HETATM   16  N   UNL     1     -12.207   8.018  72.829  1.00  0.00    -0.614 NA 
HETATM   17  H   UNL     1     -12.061   8.220  73.818  1.00  0.00     0.000 HD 
BRANCH  16  18
HETATM   18  N   UNL     1     -12.519   6.759  72.388  1.00  0.00    -0.519 NA 
HETATM   19  H   UNL     1     -13.482   6.528  72.145  1.00  0.00     0.000 HD 
BRANCH  18  20
HETATM   20  C   UNL     1     -11.585   5.857  72.280  1.00  0.00    -0.282 C  
HETATM   21  C   UNL     1     -11.112   5.640  70.940  1.00  0.00    -0.129 C  
HETATM   22  C   UNL     1     -11.085   5.144  73.416  1.00  0.00    -0.320 C  
HETATM   23  N   UNL     1     -10.674   4.594  74.355  1.00  0.00    -0.335 NA 
HETATM   24  N   UNL     1     -10.704   5.466  69.866  1.00  0.00    -0.290 NA 
ENDBRANCH  18  20
ENDBRANCH  16  18
ENDBRANCH  13  16
ENDBRANCH   9  10
TORSDOF 4
ENDMDL
MODEL       63
REMARK 921   NORMALIZED FREE ENERGY PREDICTED BY IDOCK:   -5.68 KCAL/MOL
REMARK 922        TOTAL FREE ENERGY PREDICTED BY IDOCK:   -7.72 KCAL/MOL
REMARK 923 INTER-LIGAND FREE ENERGY PREDICTED BY IDOCK:   -7.05 KCAL/MOL
REMARK 924 INTRA-LIGAND FREE ENERGY PREDICTED BY IDOCK:   -0.66 KCAL/MOL
REMARK 927      BINDING AFFINITY PREDICTED BY RF-SCORE:    0.00 PKD
ROOT
HETATM    1  C   UNL     1     -10.642   9.924  67.441  1.00  0.00    -0.338 C  
HETATM    2  C   UNL     1     -10.297  10.761  68.675  1.00  0.00    -0.208 C  
HETATM    3  C   UNL     1     -10.397   9.910  69.937  1.00  0.00    -0.298 C  
HETATM    4  C   UNL     1     -11.562  10.199  70.834  1.00  0.00    -0.372 C  
HETATM    5  N   UNL     1     -12.315  11.299  70.557  1.00  0.00    -0.352 N  
HETATM    6  O   UNL     1     -11.812   9.489  71.809  1.00  0.00    -0.377 OA 
HETATM    7  H   UNL     1     -13.129  11.451  71.152  1.00  0.00     0.000 HD 
HETATM    8  N   UNL     1     -12.105  12.212  69.584  1.00  0.00    -0.256 NA 
HETATM    9  C   UNL     1     -11.161  12.020  68.713  1.00  0.00    -0.263 C  
ENDROOT
BRANCH   9  10
HETATM   10  C   UNL     1     -10.933  13.103  67.692  1.00  0.00    -0.282 A  
HETATM   11  C   UNL     1      -9.651  13.555  67.375  1.00  0.00    -0.227 A  
HETATM   12  C   UNL     1      -9.480  14.622  66.485  1.00  0.00    -0.319 A  
HETATM   13  C   UNL     1     -10.574  15.264  65.891  1.00  0.00    -0.335 A  
HETATM   14  C   UNL     1     -11.857  14.804  66.209  1.00  0.00    -0.215 A  
HETATM   15  C   UNL     1     -12.037  13.729  67.093  1.00  0.00    -0.416 A  
BRANCH  13  16
HETATM   16  N   UNL     1     -10.404  16.379  65.041  1.00  0.00    -0.595 NA 
HETATM   17  H   UNL     1     -10.115  16.275  64.068  1.00  0.00     0.000 HD 
BRANCH  16  18
HETATM   18  N   UNL     1     -10.647  17.608  65.594  1.00  0.00    -0.569 NA 
HETATM   19  H   UNL     1     -11.565  18.040  65.493  1.00  0.00     0.000 HD 
BRANCH  18  20
HETATM   20  C   UNL     1      -9.705  18.225  66.250  1.00  0.00    -0.291 C  
HETATM   21  C   UNL     1     -10.172  19.118  67.275  1.00  0.00    -0.398 C  
HETATM   22  C   UNL     1      -8.318  18.022  65.956  1.00  0.00    -0.033 C  
HETATM   23  N   UNL     1      -7.198  17.823  65.719  1.00  0.00    -0.495 NA 
HETATM   24  N   UNL     1     -10.532  19.829  68.120  1.00  0.00    -0.417 NA 
ENDBRANCH  18  20
ENDBRANCH  16  18
ENDBRANCH  13  16
ENDBRANCH   9  10
TORSDOF 4
ENDMDL
MODEL       64
REMARK 921   NORMALIZED FREE ENERGY PREDICTED BY IDOCK:   -5.67 KCAL/MOL
REMARK 922        TOTAL FREE ENERGY PREDICTED BY IDOCK:   -7.70 KCAL/MOL
REMARK 923 INTER-LIGAND FREE ENERGY PREDICTED BY IDOCK:   -6.94 KCAL/MOL
REMARK 924 INTRA-LIGAND FREE ENERGY PREDICTED BY IDOCK:   -0.77 KCAL/MOL
REMARK 927      BINDING AFFINITY PREDICTED BY RF-SCORE:    0.00 PKD
ROOT
HETATM    1  C   UNL     1     -10.530  10.900  64.294  1.00  0.00    -0.405 C  
HETATM    2  C   UNL     1      -9.839  10.598  65.627  1.00  0.00    -0.307 C  
HETATM    3  C   UNL     1      -9.608   9.098  65.776  1.00  0.00    -0.323 C  
HETATM    4  C   UNL     1     -10.473   8.396  66.777  1.00  0.00    -0.245 C  
HETATM    5  N   UNL     1     -11.246   9.165  67.592  1.00  0.00    -0.341 N  
HETATM    6  O   UNL     1     -10.462   7.169  66.886  1.00  0.00    -0.281 OA 
HETATM    7  H   UNL     1     -11.861   8.665  68.235  1.00  0.00     0.000 HD 
HETATM    8  N   UNL     1     -11.290  10.514  67.647  1.00  0.00    -0.424 NA 
HETATM    9  C   UNL     1     -10.628  11.216  66.779  1.00  0.00    -0.263 C  
ENDROOT
BRANCH   9  10
HETATM   10  C   UNL     1     -10.663  12.713  66.930  1.00  0.00    -0.264 A  
HETATM   11  C   UNL     1      -9.556  13.508  66.629  1.00  0.00    -0.282 A  
HETATM   12  C   UNL     1      -9.594  14.889  66.863  1.00  0.00    -0.256 A  
HETATM   13  C   UNL     1     -10.730  15.510  67.399  1.00  0.00    -0.301 A  
HETATM   14  C   UNL     1     -11.839  14.709  67.695  1.00  0.00    -0.366 A  
HETATM   15  C   UNL     1     -11.811  13.326  67.455  1.00  0.00    -0.403 A  
BRANCH  13  16
HETATM   16  N   UNL     1     -10.747  16.891  67.691  1.00  0.00    -0.321 NA 
HETATM   17  H   UNL     1     -11.552  17.478  67.471  1.00  0.00     0.000 HD 
BRANCH  16  18
HETATM   18  N   UNL     1      -9.623  17.401  68.287  1.00  0.00    -0.280 NA 
HETATM   19  H   UNL     1      -9.114  16.846  68.975  1.00  0.00     0.000 HD 
BRANCH  18  20
HETATM   20  C   UNL     1      -9.205  18.595  67.975  1.00  0.00    -0.304 C  
HETATM   21  C   UNL     1      -9.961  19.244  66.938  1.00  0.00    -0.356 C  
HETATM   22  C   UNL     1      -8.078  19.196  68.620  1.00  0.00    -0.370 C  
HETATM   23  N   UNL     1      -7.176  19.677  69.174  1.00  0.00    -0.353 NA 
HETATM   24  N   UNL     1     -10.572  19.790  66.115  1.00  0.00    -0.489 NA 
ENDBRANCH  18  20
ENDBRANCH  16  18
ENDBRANCH  13  16
ENDBRANCH   9  10
TORSDOF 4
ENDMDL
MODEL       65
REMARK 921   NORMALIZED FREE ENERGY PREDICTED BY IDOCK:   -5.67 KCAL/MOL
REMARK 922        TOTAL FREE ENERGY PREDICTED BY IDOCK:   -7.70 KCAL/MOL
REMARK 923 INTER-LIGAND FREE ENERGY PREDICTED BY IDOCK:   -7.26 KCAL/MOL
REMARK 924 INTRA-LIGAND FREE ENERGY PREDICTED BY IDOCK:   -0.44 KCAL/MOL
REMARK 927      BINDING AFFINITY PREDICTED BY RF-SCORE:    0.00 PKD
ROOT
HETATM    1  C   UNL     1      -9.215  11.337  64.908  1.00  0.00    -0.130 C  
HETATM    2  C   UNL     1     -10.738  11.178  64.926  1.00  0.00    -0.318 C  
HETATM    3  C   UNL     1     -11.372  12.033  63.833  1.00  0.00    -0.503 C  
HETATM    4  C   UNL     1     -12.115  13.248  64.297  1.00  0.00    -0.416 C  
HETATM    5  N   UNL     1     -12.324  13.387  65.635  1.00  0.00    -0.456 N  
HETATM    6  O   UNL     1     -12.554  14.076  63.497  1.00  0.00    -0.842 OA 
HETATM    7  H   UNL     1     -12.792  14.244  65.933  1.00  0.00     0.000 HD 
HETATM    8  N   UNL     1     -11.983  12.519  66.613  1.00  0.00    -0.574 NA 
HETATM    9  C   UNL     1     -11.279  11.467  66.324  1.00  0.00    -0.222 C  
ENDROOT
BRANCH   9  10
HETATM   10  C   UNL     1     -10.986  10.505  67.443  1.00  0.00    -0.352 A  
HETATM   11  C   UNL     1     -10.946  10.918  68.776  1.00  0.00    -0.285 A  
HETATM   12  C   UNL     1     -10.586  10.016  69.784  1.00  0.00    -0.301 A  
HETATM   13  C   UNL     1     -10.256   8.686  69.494  1.00  0.00    -0.209 A  
HETATM   14  C   UNL     1     -10.301   8.275  68.157  1.00  0.00    -0.253 A  
HETATM   15  C   UNL     1     -10.671   9.172  67.141  1.00  0.00    -0.213 A  
BRANCH  13  16
HETATM   16  N   UNL     1      -9.834   7.792  70.503  1.00  0.00    -0.183 NA 
HETATM   17  H   UNL     1      -8.847   7.658  70.724  1.00  0.00     0.000 HD 
BRANCH  16  18
HETATM   18  N   UNL     1     -10.821   7.117  71.169  1.00  0.00    -0.237 NA 
HETATM   19  H   UNL     1     -11.197   6.250  70.783  1.00  0.00     0.000 HD 
BRANCH  18  20
HETATM   20  C   UNL     1     -11.282   7.581  72.296  1.00  0.00    -0.283 C  
HETATM   21  C   UNL     1     -10.569   7.139  73.464  1.00  0.00    -0.374 C  
HETATM   22  C   UNL     1     -12.412   8.458  72.350  1.00  0.00    -0.331 C  
HETATM   23  N   UNL     1     -13.316   9.189  72.370  1.00  0.00    -0.461 NA 
HETATM   24  N   UNL     1      -9.993   6.807  74.416  1.00  0.00    -0.321 NA 
ENDBRANCH  18  20
ENDBRANCH  16  18
ENDBRANCH  13  16
ENDBRANCH   9  10
TORSDOF 4
ENDMDL
MODEL       66
REMARK 921   NORMALIZED FREE ENERGY PREDICTED BY IDOCK:   -5.65 KCAL/MOL
REMARK 922        TOTAL FREE ENERGY PREDICTED BY IDOCK:   -7.68 KCAL/MOL
REMARK 923 INTER-LIGAND FREE ENERGY PREDICTED BY IDOCK:   -7.19 KCAL/MOL
REMARK 924 INTRA-LIGAND FREE ENERGY PREDICTED BY IDOCK:   -0.49 KCAL/MOL
REMARK 927      BINDING AFFINITY PREDICTED BY RF-SCORE:    0.00 PKD
ROOT
HETATM    1  C   UNL     1      -9.251  13.910  67.779  1.00  0.00    -0.197 C  
HETATM    2  C   UNL     1     -10.667  14.489  67.735  1.00  0.00    -0.256 C  
HETATM    3  C   UNL     1     -10.643  15.906  67.170  1.00  0.00    -0.316 C  
HETATM    4  C   UNL     1     -10.890  17.010  68.152  1.00  0.00    -0.338 C  
HETATM    5  N   UNL     1     -11.297  16.661  69.404  1.00  0.00    -0.268 N  
HETATM    6  O   UNL     1     -10.765  18.192  67.832  1.00  0.00    -0.396 OA 
HETATM    7  H   UNL     1     -11.415  17.425  70.069  1.00  0.00     0.000 HD 
HETATM    8  N   UNL     1     -11.563  15.419  69.864  1.00  0.00    -0.297 NA 
HETATM    9  C   UNL     1     -11.318  14.388  69.113  1.00  0.00    -0.277 C  
ENDROOT
BRANCH   9  10
HETATM   10  C   UNL     1     -11.695  13.035  69.655  1.00  0.00    -0.364 A  
HETATM   11  C   UNL     1     -11.393  11.859  68.966  1.00  0.00    -0.337 A  
HETATM   12  C   UNL     1     -11.833  10.623  69.456  1.00  0.00    -0.345 A  
HETATM   13  C   UNL     1     -12.581  10.526  70.636  1.00  0.00    -0.369 A  
HETATM   14  C   UNL     1     -12.877  11.708  71.325  1.00  0.00    -0.430 A  
HETATM   15  C   UNL     1     -12.431  12.950  70.845  1.00  0.00    -0.383 A  
BRANCH  13  16
HETATM   16  N   UNL     1     -13.076   9.286  71.097  1.00  0.00    -0.513 NA 
HETATM   17  H   UNL     1     -13.830   8.795  70.615  1.00  0.00     0.000 HD 
BRANCH  16  18
HETATM   18  N   UNL     1     -12.490   8.779  72.226  1.00  0.00    -0.387 NA 
HETATM   19  H   UNL     1     -12.670   9.211  73.132  1.00  0.00     0.000 HD 
BRANCH  18  20
HETATM   20  C   UNL     1     -11.702   7.744  72.142  1.00  0.00    -0.320 C  
HETATM   21  C   UNL     1     -11.759   7.047  70.885  1.00  0.00    -0.343 C  
HETATM   22  C   UNL     1     -10.857   7.344  73.225  1.00  0.00    -0.368 C  
HETATM   23  N   UNL     1     -10.159   7.052  74.108  1.00  0.00    -0.311 NA 
HETATM   24  N   UNL     1     -11.778   6.483  69.871  1.00  0.00    -0.373 NA 
ENDBRANCH  18  20
ENDBRANCH  16  18
ENDBRANCH  13  16
ENDBRANCH   9  10
TORSDOF 4
ENDMDL
MODEL       67
REMARK 921   NORMALIZED FREE ENERGY PREDICTED BY IDOCK:   -5.65 KCAL/MOL
REMARK 922        TOTAL FREE ENERGY PREDICTED BY IDOCK:   -7.68 KCAL/MOL
REMARK 923 INTER-LIGAND FREE ENERGY PREDICTED BY IDOCK:   -7.06 KCAL/MOL
REMARK 924 INTRA-LIGAND FREE ENERGY PREDICTED BY IDOCK:   -0.61 KCAL/MOL
REMARK 927      BINDING AFFINITY PREDICTED BY RF-SCORE:    0.00 PKD
ROOT
HETATM    1  C   UNL     1     -10.940  16.039  70.028  1.00  0.00    -0.365 C  
HETATM    2  C   UNL     1     -12.269  15.300  69.850  1.00  0.00    -0.357 C  
HETATM    3  C   UNL     1     -13.106  15.401  71.121  1.00  0.00    -0.565 C  
HETATM    4  C   UNL     1     -13.229  14.146  71.929  1.00  0.00    -0.387 C  
HETATM    5  N   UNL     1     -12.755  12.994  71.381  1.00  0.00    -0.334 N  
HETATM    6  O   UNL     1     -13.770  14.146  73.035  1.00  0.00    -0.617 OA 
HETATM    7  H   UNL     1     -12.807  12.160  71.966  1.00  0.00     0.000 HD 
HETATM    8  N   UNL     1     -12.225  12.829  70.149  1.00  0.00    -0.289 NA 
HETATM    9  C   UNL     1     -12.014  13.865  69.395  1.00  0.00    -0.354 C  
ENDROOT
BRANCH   9  10
HETATM   10  C   UNL     1     -11.482  13.613  68.010  1.00  0.00    -0.345 A  
HETATM   11  C   UNL     1     -12.286  13.754  66.877  1.00  0.00    -0.408 A  
HETATM   12  C   UNL     1     -11.784  13.428  65.611  1.00  0.00    -0.374 A  
HETATM   13  C   UNL     1     -10.476  12.957  65.440  1.00  0.00    -0.292 A  
HETATM   14  C   UNL     1      -9.672  12.821  66.578  1.00  0.00    -0.255 A  
HETATM   15  C   UNL     1     -10.166  13.154  67.850  1.00  0.00    -0.233 A  
BRANCH  13  16
HETATM   16  N   UNL     1      -9.990  12.571  64.171  1.00  0.00    -0.584 NA 
HETATM   17  H   UNL     1      -9.533  13.235  63.545  1.00  0.00     0.000 HD 
BRANCH  16  18
HETATM   18  N   UNL     1     -10.165  11.257  63.827  1.00  0.00    -0.340 NA 
HETATM   19  H   UNL     1     -11.061  10.942  63.456  1.00  0.00     0.000 HD 
BRANCH  18  20
HETATM   20  C   UNL     1      -9.185  10.410  63.974  1.00  0.00    -0.263 C  
HETATM   21  C   UNL     1      -9.362   9.468  65.046  1.00  0.00    -0.229 C  
HETATM   22  C   UNL     1      -8.030  10.432  63.129  1.00  0.00    -0.125 C  
HETATM   23  N   UNL     1      -7.113  10.450  62.414  1.00  0.00    -0.141 NA 
HETATM   24  N   UNL     1      -9.496   8.688  65.896  1.00  0.00    -0.207 NA 
ENDBRANCH  18  20
ENDBRANCH  16  18
ENDBRANCH  13  16
ENDBRANCH   9  10
TORSDOF 4
ENDMDL
MODEL       68
REMARK 921   NORMALIZED FREE ENERGY PREDICTED BY IDOCK:   -5.62 KCAL/MOL
REMARK 922        TOTAL FREE ENERGY PREDICTED BY IDOCK:   -7.65 KCAL/MOL
REMARK 923 INTER-LIGAND FREE ENERGY PREDICTED BY IDOCK:   -6.90 KCAL/MOL
REMARK 924 INTRA-LIGAND FREE ENERGY PREDICTED BY IDOCK:   -0.74 KCAL/MOL
REMARK 927      BINDING AFFINITY PREDICTED BY RF-SCORE:    0.00 PKD
ROOT
HETATM    1  C   UNL     1      -9.828  10.362  64.341  1.00  0.00    -0.395 C  
HETATM    2  C   UNL     1      -9.467  10.392  65.828  1.00  0.00    -0.247 C  
HETATM    3  C   UNL     1      -9.439   8.976  66.395  1.00  0.00    -0.288 C  
HETATM    4  C   UNL     1     -10.566   8.613  67.312  1.00  0.00    -0.238 C  
HETATM    5  N   UNL     1     -11.402   9.610  67.710  1.00  0.00    -0.405 N  
HETATM    6  O   UNL     1     -10.713   7.461  67.722  1.00  0.00    -0.223 OA 
HETATM    7  H   UNL     1     -12.189   9.333  68.297  1.00  0.00     0.000 HD 
HETATM    8  N   UNL     1     -11.308  10.926  67.416  1.00  0.00    -0.457 NA 
HETATM    9  C   UNL     1     -10.406  11.335  66.577  1.00  0.00    -0.240 C  
ENDROOT
BRANCH   9  10
HETATM   10  C   UNL     1     -10.307  12.818  66.338  1.00  0.00    -0.271 A  
HETATM   11  C   UNL     1     -11.192  13.486  65.490  1.00  0.00    -0.304 A  
HETATM   12  C   UNL     1     -11.020  14.850  65.223  1.00  0.00    -0.389 A  
HETATM   13  C   UNL     1      -9.968  15.580  65.791  1.00  0.00    -0.359 A  
HETATM   14  C   UNL     1      -9.086  14.907  66.644  1.00  0.00    -0.309 A  
HETATM   15  C   UNL     1      -9.258  13.542  66.923  1.00  0.00    -0.254 A  
BRANCH  13  16
HETATM   16  N   UNL     1      -9.758  16.940  65.473  1.00  0.00    -0.518 NA 
HETATM   17  H   UNL     1     -10.402  17.459  64.875  1.00  0.00     0.000 HD 
BRANCH  16  18
HETATM   18  N   UNL     1      -8.644  17.526  66.013  1.00  0.00    -0.527 NA 
HETATM   19  H   UNL     1      -7.719  17.146  65.811  1.00  0.00     0.000 HD 
BRANCH  18  20
HETATM   20  C   UNL     1      -8.766  18.568  66.786  1.00  0.00    -0.278 C  
HETATM   21  C   UNL     1     -10.015  19.269  66.657  1.00  0.00    -0.380 C  
HETATM   22  C   UNL     1      -7.726  18.974  67.682  1.00  0.00    -0.239 C  
HETATM   23  N   UNL     1      -6.879  19.271  68.422  1.00  0.00    -0.264 NA 
HETATM   24  N   UNL     1     -11.026  19.835  66.580  1.00  0.00    -0.320 NA 
ENDBRANCH  18  20
ENDBRANCH  16  18
ENDBRANCH  13  16
ENDBRANCH   9  10
TORSDOF 4
ENDMDL
MODEL       69
REMARK 921   NORMALIZED FREE ENERGY PREDICTED BY IDOCK:   -5.56 KCAL/MOL
REMARK 922        TOTAL FREE ENERGY PREDICTED BY IDOCK:   -7.57 KCAL/MOL
REMARK 923 INTER-LIGAND FREE ENERGY PREDICTED BY IDOCK:   -6.84 KCAL/MOL
REMARK 924 INTRA-LIGAND FREE ENERGY PREDICTED BY IDOCK:   -0.73 KCAL/MOL
REMARK 927      BINDING AFFINITY PREDICTED BY RF-SCORE:    0.00 PKD
ROOT
HETATM    1  C   UNL     1      -8.891   8.585  71.810  1.00  0.00    -0.278 C  
HETATM    2  C   UNL     1     -10.285   8.527  72.441  1.00  0.00    -0.369 C  
HETATM    3  C   UNL     1     -10.444   7.248  73.257  1.00  0.00    -0.416 C  
HETATM    4  C   UNL     1     -11.345   6.204  72.673  1.00  0.00    -0.259 C  
HETATM    5  N   UNL     1     -12.083   6.546  71.581  1.00  0.00    -0.346 N  
HETATM    6  O   UNL     1     -11.444   5.086  73.180  1.00  0.00    -0.327 OA 
HETATM    7  H   UNL     1     -12.655   5.806  71.172  1.00  0.00     0.000 HD 
HETATM    8  N   UNL     1     -12.145   7.754  70.978  1.00  0.00    -0.281 NA 
HETATM    9  C   UNL     1     -11.355   8.708  71.367  1.00  0.00    -0.284 C  
ENDROOT
BRANCH   9  10
HETATM   10  C   UNL     1     -11.515  10.049  70.702  1.00  0.00    -0.425 A  
HETATM   11  C   UNL     1     -12.181  11.105  71.328  1.00  0.00    -0.328 A  
HETATM   12  C   UNL     1     -12.386  12.311  70.648  1.00  0.00    -0.375 A  
HETATM   13  C   UNL     1     -11.937  12.497  69.334  1.00  0.00    -0.256 A  
HETATM   14  C   UNL     1     -11.267  11.438  68.712  1.00  0.00    -0.308 A  
HETATM   15  C   UNL     1     -11.049  10.228  69.391  1.00  0.00    -0.299 A  
BRANCH  13  16
HETATM   16  N   UNL     1     -12.199  13.692  68.627  1.00  0.00    -0.373 NA 
HETATM   17  H   UNL     1     -12.936  13.751  67.924  1.00  0.00     0.000 HD 
BRANCH  16  18
HETATM   18  N   UNL     1     -11.409  14.767  68.937  1.00  0.00    -0.267 NA 
HETATM   19  H   UNL     1     -11.147  14.945  69.906  1.00  0.00     0.000 HD 
BRANCH  18  20
HETATM   20  C   UNL     1     -10.993  15.563  67.993  1.00  0.00    -0.311 C  
HETATM   21  C   UNL     1     -10.867  14.947  66.700  1.00  0.00    -0.319 C  
HETATM   22  C   UNL     1     -10.685  16.939  68.241  1.00  0.00    -0.377 C  
HETATM   23  N   UNL     1     -10.466  18.060  68.459  1.00  0.00    -0.333 NA 
HETATM   24  N   UNL     1     -10.777  14.470  65.644  1.00  0.00    -0.311 NA 
ENDBRANCH  18  20
ENDBRANCH  16  18
ENDBRANCH  13  16
ENDBRANCH   9  10
TORSDOF 4
ENDMDL
MODEL       70
REMARK 921   NORMALIZED FREE ENERGY PREDICTED BY IDOCK:   -5.56 KCAL/MOL
REMARK 922        TOTAL FREE ENERGY PREDICTED BY IDOCK:   -7.57 KCAL/MOL
REMARK 923 INTER-LIGAND FREE ENERGY PREDICTED BY IDOCK:   -7.02 KCAL/MOL
REMARK 924 INTRA-LIGAND FREE ENERGY PREDICTED BY IDOCK:   -0.55 KCAL/MOL
REMARK 927      BINDING AFFINITY PREDICTED BY RF-SCORE:    0.00 PKD
ROOT
HETATM    1  C   UNL     1     -10.828  14.973  70.057  1.00  0.00    -0.243 C  
HETATM    2  C   UNL     1     -12.292  14.529  70.113  1.00  0.00    -0.398 C  
HETATM    3  C   UNL     1     -13.124  15.544  70.891  1.00  0.00    -0.508 C  
HETATM    4  C   UNL     1     -13.588  15.112  72.248  1.00  0.00    -0.462 C  
HETATM    5  N   UNL     1     -13.398  13.809  72.594  1.00  0.00    -0.546 N  
HETATM    6  O   UNL     1     -14.153  15.896  73.011  1.00  0.00    -0.518 OA 
HETATM    7  H   UNL     1     -13.680  13.547  73.539  1.00  0.00     0.000 HD 
HETATM    8  N   UNL     1     -12.880  12.824  71.828  1.00  0.00    -0.280 NA 
HETATM    9  C   UNL     1     -12.389  13.107  70.660  1.00  0.00    -0.326 C  
ENDROOT
BRANCH   9  10
HETATM   10  C   UNL     1     -11.885  11.959  69.827  1.00  0.00    -0.411 A  
HETATM   11  C   UNL     1     -11.781  12.050  68.438  1.00  0.00    -0.390 A  
HETATM   12  C   UNL     1     -11.390  10.936  67.685  1.00  0.00    -0.345 A  
HETATM   13  C   UNL     1     -11.095   9.709  68.292  1.00  0.00    -0.046 A  
HETATM   14  C   UNL     1     -11.197   9.623  69.686  1.00  0.00    -0.176 A  
HETATM   15  C   UNL     1     -11.579  10.739  70.448  1.00  0.00    -0.431 A  
BRANCH  13  16
HETATM   16  N   UNL     1     -10.761   8.569  67.528  1.00  0.00    -0.479 NA 
HETATM   17  H   UNL     1     -10.165   8.630  66.702  1.00  0.00     0.000 HD 
BRANCH  16  18
HETATM   18  N   UNL     1     -11.279   7.376  67.957  1.00  0.00    -0.402 NA 
HETATM   19  H   UNL     1     -12.274   7.298  68.168  1.00  0.00     0.000 HD 
BRANCH  18  20
HETATM   20  C   UNL     1     -10.501   6.340  68.095  1.00  0.00    -0.226 C  
HETATM   21  C   UNL     1      -9.770   5.975  66.912  1.00  0.00    -0.148 C  
HETATM   22  C   UNL     1     -10.399   5.628  69.334  1.00  0.00    -0.273 C  
HETATM   23  N   UNL     1     -10.310   5.081  70.356  1.00  0.00    -0.256 NA 
HETATM   24  N   UNL     1      -9.157   5.678  65.972  1.00  0.00    -0.156 NA 
ENDBRANCH  18  20
ENDBRANCH  16  18
ENDBRANCH  13  16
ENDBRANCH   9  10
TORSDOF 4
ENDMDL
MODEL       71
REMARK 921   NORMALIZED FREE ENERGY PREDICTED BY IDOCK:   -5.53 KCAL/MOL
REMARK 922        TOTAL FREE ENERGY PREDICTED BY IDOCK:   -7.53 KCAL/MOL
REMARK 923 INTER-LIGAND FREE ENERGY PREDICTED BY IDOCK:   -7.04 KCAL/MOL
REMARK 924 INTRA-LIGAND FREE ENERGY PREDICTED BY IDOCK:   -0.49 KCAL/MOL
REMARK 927      BINDING AFFINITY PREDICTED BY RF-SCORE:    0.00 PKD
ROOT
HETATM    1  C   UNL     1      -8.816  16.369  66.012  1.00  0.00    -0.296 C  
HETATM    2  C   UNL     1     -10.218  16.933  66.257  1.00  0.00    -0.337 C  
HETATM    3  C   UNL     1     -10.216  18.449  66.090  1.00  0.00    -0.408 C  
HETATM    4  C   UNL     1     -10.350  19.250  67.349  1.00  0.00    -0.438 C  
HETATM    5  N   UNL     1     -10.647  18.578  68.495  1.00  0.00    -0.344 N  
HETATM    6  O   UNL     1     -10.231  20.476  67.344  1.00  0.00    -0.366 OA 
HETATM    7  H   UNL     1     -10.688  19.137  69.348  1.00  0.00     0.000 HD 
HETATM    8  N   UNL     1     -10.895  17.257  68.631  1.00  0.00    -0.265 NA 
HETATM    9  C   UNL     1     -10.742  16.465  67.614  1.00  0.00    -0.312 C  
ENDROOT
BRANCH   9  10
HETATM   10  C   UNL     1     -11.094  15.015  67.809  1.00  0.00    -0.312 A  
HETATM   11  C   UNL     1     -11.622  14.242  66.773  1.00  0.00    -0.407 A  
HETATM   12  C   UNL     1     -12.019  12.920  67.011  1.00  0.00    -0.390 A  
HETATM   13  C   UNL     1     -11.903  12.337  68.280  1.00  0.00    -0.310 A  
HETATM   14  C   UNL     1     -11.369  13.115  69.314  1.00  0.00    -0.312 A  
HETATM   15  C   UNL     1     -10.960  14.438  69.080  1.00  0.00    -0.288 A  
BRANCH  13  16
HETATM   16  N   UNL     1     -12.360  11.026  68.534  1.00  0.00    -0.724 NA 
HETATM   17  H   UNL     1     -13.173  10.844  69.123  1.00  0.00     0.000 HD 
BRANCH  16  18
HETATM   18  N   UNL     1     -11.652  10.011  67.947  1.00  0.00    -0.569 NA 
HETATM   19  H   UNL     1     -12.139   9.296  67.406  1.00  0.00     0.000 HD 
BRANCH  18  20
HETATM   20  C   UNL     1     -10.357   9.957  68.081  1.00  0.00    -0.195 C  
HETATM   21  C   UNL     1      -9.617  10.225  66.877  1.00  0.00    -0.173 C  
HETATM   22  C   UNL     1      -9.736   9.650  69.333  1.00  0.00    -0.194 C  
HETATM   23  N   UNL     1      -9.251   9.424  70.366  1.00  0.00    -0.242 NA 
HETATM   24  N   UNL     1      -9.004  10.458  65.919  1.00  0.00    -0.156 NA 
ENDBRANCH  18  20
ENDBRANCH  16  18
ENDBRANCH  13  16
ENDBRANCH   9  10
TORSDOF 4
ENDMDL
MODEL       72
REMARK 921   NORMALIZED FREE ENERGY PREDICTED BY IDOCK:   -5.50 KCAL/MOL
REMARK 922        TOTAL FREE ENERGY PREDICTED BY IDOCK:   -7.49 KCAL/MOL
REMARK 923 INTER-LIGAND FREE ENERGY PREDICTED BY IDOCK:   -6.91 KCAL/MOL
REMARK 924 INTRA-LIGAND FREE ENERGY PREDICTED BY IDOCK:   -0.58 KCAL/MOL
REMARK 927      BINDING AFFINITY PREDICTED BY RF-SCORE:    0.00 PKD
ROOT
HETATM    1  C   UNL     1     -10.386  10.969  64.481  1.00  0.00    -0.420 C  
HETATM    2  C   UNL     1      -9.625  10.531  65.735  1.00  0.00    -0.260 C  
HETATM    3  C   UNL     1      -9.193   9.073  65.610  1.00  0.00    -0.288 C  
HETATM    4  C   UNL     1      -9.930   8.093  66.471  1.00  0.00    -0.232 C  
HETATM    5  N   UNL     1     -10.776   8.592  67.413  1.00  0.00    -0.453 N  
HETATM    6  O   UNL     1      -9.753   6.880  66.356  1.00  0.00    -0.153 OA 
HETATM    7  H   UNL     1     -11.302   7.908  67.956  1.00  0.00     0.000 HD 
HETATM    8  N   UNL     1     -10.997   9.892  67.711  1.00  0.00    -0.268 NA 
HETATM    9  C   UNL     1     -10.457  10.821  66.982  1.00  0.00    -0.247 C  
ENDROOT
BRANCH   9  10
HETATM   10  C   UNL     1     -10.687  12.248  67.401  1.00  0.00    -0.261 A  
HETATM   11  C   UNL     1     -11.925  12.872  67.232  1.00  0.00    -0.371 A  
HETATM   12  C   UNL     1     -12.081  14.227  67.553  1.00  0.00    -0.347 A  
HETATM   13  C   UNL     1     -11.015  14.990  68.048  1.00  0.00    -0.284 A  
HETATM   14  C   UNL     1      -9.778  14.358  68.219  1.00  0.00    -0.222 A  
HETATM   15  C   UNL     1      -9.616  12.998  67.908  1.00  0.00    -0.215 A  
BRANCH  13  16
HETATM   16  N   UNL     1     -11.157  16.370  68.314  1.00  0.00    -0.352 NA 
HETATM   17  H   UNL     1     -11.978  16.745  68.790  1.00  0.00     0.000 HD 
BRANCH  16  18
HETATM   18  N   UNL     1     -10.132  17.177  67.898  1.00  0.00    -0.294 NA 
HETATM   19  H   UNL     1      -9.241  17.167  68.393  1.00  0.00     0.000 HD 
BRANCH  18  20
HETATM   20  C   UNL     1     -10.297  17.960  66.869  1.00  0.00    -0.355 C  
HETATM   21  C   UNL     1     -10.738  17.295  65.672  1.00  0.00    -0.120 C  
HETATM   22  C   UNL     1     -10.049  19.368  66.940  1.00  0.00    -0.388 C  
HETATM   23  N   UNL     1      -9.867  20.514  67.026  1.00  0.00    -0.447 NA 
HETATM   24  N   UNL     1     -11.113  16.778  64.703  1.00  0.00    -0.937 NA 
ENDBRANCH  18  20
ENDBRANCH  16  18
ENDBRANCH  13  16
ENDBRANCH   9  10
TORSDOF 4
ENDMDL
MODEL       73
REMARK 921   NORMALIZED FREE ENERGY PREDICTED BY IDOCK:   -5.48 KCAL/MOL
REMARK 922        TOTAL FREE ENERGY PREDICTED BY IDOCK:   -7.48 KCAL/MOL
REMARK 923 INTER-LIGAND FREE ENERGY PREDICTED BY IDOCK:   -6.82 KCAL/MOL
REMARK 924 INTRA-LIGAND FREE ENERGY PREDICTED BY IDOCK:   -0.66 KCAL/MOL
REMARK 927      BINDING AFFINITY PREDICTED BY RF-SCORE:    0.00 PKD
ROOT
HETATM    1  C   UNL     1      -9.979   7.565  73.558  1.00  0.00    -0.371 C  
HETATM    2  C   UNL     1     -11.032   6.765  72.787  1.00  0.00    -0.303 C  
HETATM    3  C   UNL     1     -11.043   5.314  73.257  1.00  0.00    -0.376 C  
HETATM    4  C   UNL     1     -10.478   4.309  72.301  1.00  0.00    -0.094 C  
HETATM    5  N   UNL     1     -10.183   4.733  71.042  1.00  0.00    -0.200 N  
HETATM    6  O   UNL     1     -10.319   3.132  72.628  1.00  0.00    -0.158 OA 
HETATM    7  H   UNL     1      -9.757   4.044  70.421  1.00  0.00     0.000 HD 
HETATM    8  N   UNL     1     -10.390   5.962  70.520  1.00  0.00    -0.219 NA 
HETATM    9  C   UNL     1     -10.814   6.922  71.284  1.00  0.00    -0.234 C  
ENDROOT
BRANCH   9  10
HETATM   10  C   UNL     1     -11.087   8.252  70.633  1.00  0.00    -0.269 A  
HETATM   11  C   UNL     1     -11.927   9.199  71.222  1.00  0.00    -0.394 A  
HETATM   12  C   UNL     1     -12.228  10.390  70.550  1.00  0.00    -0.412 A  
HETATM   13  C   UNL     1     -11.704  10.667  69.281  1.00  0.00    -0.264 A  
HETATM   14  C   UNL     1     -10.860   9.717  68.696  1.00  0.00    -0.203 A  
HETATM   15  C   UNL     1     -10.546   8.524  69.368  1.00  0.00    -0.203 A  
BRANCH  13  16
HETATM   16  N   UNL     1     -12.057  11.840  68.577  1.00  0.00    -0.455 NA 
HETATM   17  H   UNL     1     -12.267  12.714  69.060  1.00  0.00     0.000 HD 
BRANCH  16  18
HETATM   18  N   UNL     1     -12.099  11.741  67.212  1.00  0.00    -0.499 NA 
HETATM   19  H   UNL     1     -12.141  10.823  66.768  1.00  0.00     0.000 HD 
BRANCH  18  20
HETATM   20  C   UNL     1     -12.087  12.819  66.480  1.00  0.00    -0.268 C  
HETATM   21  C   UNL     1     -11.638  14.002  67.161  1.00  0.00    -0.372 C  
HETATM   22  C   UNL     1     -12.495  12.808  65.108  1.00  0.00    -0.501 C  
HETATM   23  N   UNL     1     -12.807  12.773  63.988  1.00  0.00    -0.710 NA 
HETATM   24  N   UNL     1     -11.259  14.964  67.691  1.00  0.00    -0.312 NA 
ENDBRANCH  18  20
ENDBRANCH  16  18
ENDBRANCH  13  16
ENDBRANCH   9  10
TORSDOF 4
ENDMDL
MODEL       74
REMARK 921   NORMALIZED FREE ENERGY PREDICTED BY IDOCK:   -5.48 KCAL/MOL
REMARK 922        TOTAL FREE ENERGY PREDICTED BY IDOCK:   -7.48 KCAL/MOL
REMARK 923 INTER-LIGAND FREE ENERGY PREDICTED BY IDOCK:   -6.87 KCAL/MOL
REMARK 924 INTRA-LIGAND FREE ENERGY PREDICTED BY IDOCK:   -0.61 KCAL/MOL
REMARK 927      BINDING AFFINITY PREDICTED BY RF-SCORE:    0.00 PKD
ROOT
HETATM    1  C   UNL     1     -10.122   8.682  72.028  1.00  0.00    -0.401 C  
HETATM    2  C   UNL     1     -10.864   8.049  70.848  1.00  0.00    -0.248 C  
HETATM    3  C   UNL     1     -11.023   6.548  71.067  1.00  0.00    -0.314 C  
HETATM    4  C   UNL     1     -10.174   5.665  70.204  1.00  0.00    -0.250 C  
HETATM    5  N   UNL     1      -9.486   6.250  69.186  1.00  0.00    -0.133 N  
HETATM    6  O   UNL     1     -10.127   4.447  70.385  1.00  0.00    -0.209 OA 
HETATM    7  H   UNL     1      -8.879   5.638  68.640  1.00  0.00     0.000 HD 
HETATM    8  N   UNL     1      -9.515   7.549  68.816  1.00  0.00    -0.148 NA 
HETATM    9  C   UNL     1     -10.169   8.409  69.537  1.00  0.00    -0.207 C  
ENDROOT
BRANCH   9  10
HETATM   10  C   UNL     1     -10.219   9.829  69.040  1.00  0.00    -0.214 A  
HETATM   11  C   UNL     1     -11.405  10.404  68.580  1.00  0.00    -0.283 A  
HETATM   12  C   UNL     1     -11.400  11.698  68.044  1.00  0.00    -0.366 A  
HETATM   13  C   UNL     1     -10.221  12.448  67.953  1.00  0.00    -0.213 A  
HETATM   14  C   UNL     1      -9.036  11.869  68.419  1.00  0.00    -0.163 A  
HETATM   15  C   UNL     1      -9.034  10.576  68.966  1.00  0.00    -0.183 A  
BRANCH  13  16
HETATM   16  N   UNL     1     -10.206  13.729  67.357  1.00  0.00    -0.250 NA 
HETATM   17  H   UNL     1     -10.251  14.583  67.914  1.00  0.00     0.000 HD 
BRANCH  16  18
HETATM   18  N   UNL     1     -10.126  13.762  65.990  1.00  0.00    -0.303 NA 
HETATM   19  H   UNL     1      -9.261  13.492  65.522  1.00  0.00     0.000 HD 
BRANCH  18  20
HETATM   20  C   UNL     1     -11.156  14.141  65.287  1.00  0.00    -0.331 C  
HETATM   21  C   UNL     1     -11.126  15.517  64.870  1.00  0.00    -0.416 C  
HETATM   22  C   UNL     1     -12.227  13.246  64.968  1.00  0.00    -0.432 C  
HETATM   23  N   UNL     1     -13.073  12.496  64.698  1.00  0.00    -0.837 NA 
HETATM   24  N   UNL     1     -11.109  16.620  64.508  1.00  0.00    -0.967 NA 
ENDBRANCH  18  20
ENDBRANCH  16  18
ENDBRANCH  13  16
ENDBRANCH   9  10
TORSDOF 4
ENDMDL
MODEL       75
REMARK 921   NORMALIZED FREE ENERGY PREDICTED BY IDOCK:   -5.42 KCAL/MOL
REMARK 922        TOTAL FREE ENERGY PREDICTED BY IDOCK:   -7.40 KCAL/MOL
REMARK 923 INTER-LIGAND FREE ENERGY PREDICTED BY IDOCK:   -6.74 KCAL/MOL
REMARK 924 INTRA-LIGAND FREE ENERGY PREDICTED BY IDOCK:   -0.66 KCAL/MOL
REMARK 927      BINDING AFFINITY PREDICTED BY RF-SCORE:    0.00 PKD
ROOT
HETATM    1  C   UNL     1      -8.524   8.965  71.265  1.00  0.00    -0.239 C  
HETATM    2  C   UNL     1      -9.933   8.926  71.862  1.00  0.00    -0.384 C  
HETATM    3  C   UNL     1     -10.017   7.861  72.951  1.00  0.00    -0.360 C  
HETATM    4  C   UNL     1     -10.800   6.631  72.609  1.00  0.00    -0.248 C  
HETATM    5  N   UNL     1     -11.518   6.642  71.453  1.00  0.00    -0.286 N  
HETATM    6  O   UNL     1     -10.825   5.656  73.362  1.00  0.00    -0.259 OA 
HETATM    7  H   UNL     1     -12.007   5.778  71.216  1.00  0.00     0.000 HD 
HETATM    8  N   UNL     1     -11.657   7.666  70.583  1.00  0.00    -0.267 NA 
HETATM    9  C   UNL     1     -10.968   8.754  70.753  1.00  0.00    -0.247 C  
ENDROOT
BRANCH   9  10
HETATM   10  C   UNL     1     -11.213   9.884  69.790  1.00  0.00    -0.279 A  
HETATM   11  C   UNL     1     -10.752   9.839  68.473  1.00  0.00    -0.252 A  
HETATM   12  C   UNL     1     -10.922  10.943  67.628  1.00  0.00    -0.350 A  
HETATM   13  C   UNL     1     -11.551  12.114  68.070  1.00  0.00    -0.348 A  
HETATM   14  C   UNL     1     -12.015  12.152  69.390  1.00  0.00    -0.329 A  
HETATM   15  C   UNL     1     -11.857  11.046  70.240  1.00  0.00    -0.456 A  
BRANCH  13  16
HETATM   16  N   UNL     1     -11.668  13.248  67.237  1.00  0.00    -0.358 NA 
HETATM   17  H   UNL     1     -12.417  13.931  67.359  1.00  0.00     0.000 HD 
BRANCH  16  18
HETATM   18  N   UNL     1     -10.721  13.383  66.257  1.00  0.00    -0.285 NA 
HETATM   19  H   UNL     1     -10.631  12.671  65.533  1.00  0.00     0.000 HD 
BRANCH  18  20
HETATM   20  C   UNL     1      -9.934  14.422  66.250  1.00  0.00    -0.306 C  
HETATM   21  C   UNL     1     -10.382  15.509  65.422  1.00  0.00    -0.394 C  
HETATM   22  C   UNL     1      -8.721  14.460  67.009  1.00  0.00    -0.223 C  
HETATM   23  N   UNL     1      -7.753  14.480  67.653  1.00  0.00    -0.163 NA 
HETATM   24  N   UNL     1     -10.738  16.404  64.773  1.00  0.00    -0.701 NA 
ENDBRANCH  18  20
ENDBRANCH  16  18
ENDBRANCH  13  16
ENDBRANCH   9  10
TORSDOF 4
ENDMDL
MODEL       76
REMARK 921   NORMALIZED FREE ENERGY PREDICTED BY IDOCK:   -5.42 KCAL/MOL
REMARK 922        TOTAL FREE ENERGY PREDICTED BY IDOCK:   -7.40 KCAL/MOL
REMARK 923 INTER-LIGAND FREE ENERGY PREDICTED BY IDOCK:   -6.72 KCAL/MOL
REMARK 924 INTRA-LIGAND FREE ENERGY PREDICTED BY IDOCK:   -0.68 KCAL/MOL
REMARK 927      BINDING AFFINITY PREDICTED BY RF-SCORE:    0.00 PKD
ROOT
HETATM    1  C   UNL     1     -11.656  14.834  68.098  1.00  0.00    -0.356 C  
HETATM    2  C   UNL     1     -11.001  14.041  66.964  1.00  0.00    -0.302 C  
HETATM    3  C   UNL     1     -11.193  14.763  65.634  1.00  0.00    -0.343 C  
HETATM    4  C   UNL     1     -12.161  14.134  64.679  1.00  0.00    -0.452 C  
HETATM    5  N   UNL     1     -12.637  12.896  64.987  1.00  0.00    -0.604 N  
HETATM    6  O   UNL     1     -12.489  14.698  63.634  1.00  0.00    -0.754 OA 
HETATM    7  H   UNL     1     -13.329  12.506  64.347  1.00  0.00     0.000 HD 
HETATM    8  N   UNL     1     -12.297  12.125  66.043  1.00  0.00    -0.400 NA 
HETATM    9  C   UNL     1     -11.515  12.603  66.964  1.00  0.00    -0.346 C  
ENDROOT
BRANCH   9  10
HETATM   10  C   UNL     1     -11.120  11.677  68.082  1.00  0.00    -0.298 A  
HETATM   11  C   UNL     1     -12.026  11.291  69.071  1.00  0.00    -0.393 A  
HETATM   12  C   UNL     1     -11.603  10.498  70.145  1.00  0.00    -0.408 A  
HETATM   13  C   UNL     1     -10.274  10.070  70.261  1.00  0.00    -0.206 A  
HETATM   14  C   UNL     1      -9.370  10.456  69.264  1.00  0.00    -0.202 A  
HETATM   15  C   UNL     1      -9.789  11.244  68.180  1.00  0.00    -0.190 A  
BRANCH  13  16
HETATM   16  N   UNL     1      -9.834   9.322  71.375  1.00  0.00    -0.274 NA 
HETATM   17  H   UNL     1      -9.844   9.706  72.320  1.00  0.00     0.000 HD 
BRANCH  16  18
HETATM   18  N   UNL     1      -9.394   8.050  71.118  1.00  0.00    -0.146 NA 
HETATM   19  H   UNL     1      -8.454   7.900  70.751  1.00  0.00     0.000 HD 
BRANCH  18  20
HETATM   20  C   UNL     1     -10.176   7.033  71.341  1.00  0.00    -0.196 C  
HETATM   21  C   UNL     1     -10.380   6.725  72.731  1.00  0.00    -0.209 C  
HETATM   22  C   UNL     1     -10.774   6.287  70.275  1.00  0.00    -0.280 C  
HETATM   23  N   UNL     1     -11.271   5.712  69.395  1.00  0.00    -0.069 NA 
HETATM   24  N   UNL     1     -10.570   6.474  73.849  1.00  0.00    -0.289 NA 
ENDBRANCH  18  20
ENDBRANCH  16  18
ENDBRANCH  13  16
ENDBRANCH   9  10
TORSDOF 4
ENDMDL
MODEL       77
REMARK 921   NORMALIZED FREE ENERGY PREDICTED BY IDOCK:   -5.41 KCAL/MOL
REMARK 922        TOTAL FREE ENERGY PREDICTED BY IDOCK:   -7.38 KCAL/MOL
REMARK 923 INTER-LIGAND FREE ENERGY PREDICTED BY IDOCK:   -6.61 KCAL/MOL
REMARK 924 INTRA-LIGAND FREE ENERGY PREDICTED BY IDOCK:   -0.77 KCAL/MOL
REMARK 927      BINDING AFFINITY PREDICTED BY RF-SCORE:    0.00 PKD
ROOT
HETATM    1  C   UNL     1      -7.701   7.042  68.077  1.00  0.00    -0.113 C  
HETATM    2  C   UNL     1      -8.953   6.223  68.401  1.00  0.00    -0.116 C  
HETATM    3  C   UNL     1      -8.854   4.834  67.778  1.00  0.00    -0.112 C  
HETATM    4  C   UNL     1      -9.746   4.576  66.603  1.00  0.00    -0.207 C  
HETATM    5  N   UNL     1     -10.690   5.512  66.309  1.00  0.00    -0.621 N  
HETATM    6  O   UNL     1      -9.655   3.539  65.945  1.00  0.00    -0.165 OA 
HETATM    7  H   UNL     1     -11.256   5.338  65.478  1.00  0.00     0.000 HD 
HETATM    8  N   UNL     1     -10.963   6.645  66.994  1.00  0.00    -0.410 NA 
HETATM    9  C   UNL     1     -10.206   6.994  67.989  1.00  0.00    -0.182 C  
ENDROOT
BRANCH   9  10
HETATM   10  C   UNL     1     -10.597   8.230  68.754  1.00  0.00    -0.152 A  
HETATM   11  C   UNL     1     -10.867   8.192  70.123  1.00  0.00    -0.241 A  
HETATM   12  C   UNL     1     -11.312   9.342  70.786  1.00  0.00    -0.363 A  
HETATM   13  C   UNL     1     -11.499  10.553  70.108  1.00  0.00    -0.325 A  
HETATM   14  C   UNL     1     -11.223  10.587  68.736  1.00  0.00    -0.317 A  
HETATM   15  C   UNL     1     -10.768   9.440  68.066  1.00  0.00    -0.246 A  
BRANCH  13  16
HETATM   16  N   UNL     1     -12.005  11.697  70.764  1.00  0.00    -0.433 NA 
HETATM   17  H   UNL     1     -12.676  11.625  71.530  1.00  0.00     0.000 HD 
BRANCH  16  18
HETATM   18  N   UNL     1     -11.547  12.907  70.317  1.00  0.00    -0.532 NA 
HETATM   19  H   UNL     1     -10.776  12.947  69.650  1.00  0.00     0.000 HD 
BRANCH  18  20
HETATM   20  C   UNL     1     -12.095  14.009  70.745  1.00  0.00    -0.345 C  
HETATM   21  C   UNL     1     -13.180  13.821  71.669  1.00  0.00    -0.371 C  
HETATM   22  C   UNL     1     -11.644  15.298  70.314  1.00  0.00    -0.301 C  
HETATM   23  N   UNL     1     -11.245  16.335  69.972  1.00  0.00    -0.346 NA 
HETATM   24  N   UNL     1     -14.046  13.688  72.432  1.00  0.00    -0.713 NA 
ENDBRANCH  18  20
ENDBRANCH  16  18
ENDBRANCH  13  16
ENDBRANCH   9  10
TORSDOF 4
ENDMDL
MODEL       78
REMARK 921   NORMALIZED FREE ENERGY PREDICTED BY IDOCK:   -5.40 KCAL/MOL
REMARK 922        TOTAL FREE ENERGY PREDICTED BY IDOCK:   -7.37 KCAL/MOL
REMARK 923 INTER-LIGAND FREE ENERGY PREDICTED BY IDOCK:   -6.83 KCAL/MOL
REMARK 924 INTRA-LIGAND FREE ENERGY PREDICTED BY IDOCK:   -0.54 KCAL/MOL
REMARK 927      BINDING AFFINITY PREDICTED BY RF-SCORE:    0.00 PKD
ROOT
HETATM    1  C   UNL     1      -9.103   7.378  69.180  1.00  0.00    -0.134 C  
HETATM    2  C   UNL     1      -8.978   8.553  70.153  1.00  0.00    -0.148 C  
HETATM    3  C   UNL     1      -8.996   8.052  71.594  1.00  0.00    -0.192 C  
HETATM    4  C   UNL     1     -10.240   8.343  72.375  1.00  0.00    -0.329 C  
HETATM    5  N   UNL     1     -11.157   9.177  71.814  1.00  0.00    -0.370 N  
HETATM    6  O   UNL     1     -10.414   7.873  73.501  1.00  0.00    -0.239 OA 
HETATM    7  H   UNL     1     -12.017   9.325  72.343  1.00  0.00     0.000 HD 
HETATM    8  N   UNL     1     -11.058   9.833  70.637  1.00  0.00    -0.306 NA 
HETATM    9  C   UNL     1     -10.050   9.599  69.853  1.00  0.00    -0.246 C  
ENDROOT
BRANCH   9  10
HETATM   10  C   UNL     1      -9.960  10.406  68.586  1.00  0.00    -0.186 A  
HETATM   11  C   UNL     1      -8.767  11.010  68.183  1.00  0.00    -0.141 A  
HETATM   12  C   UNL     1      -8.739  11.825  67.044  1.00  0.00    -0.181 A  
HETATM   13  C   UNL     1      -9.890  12.058  66.282  1.00  0.00    -0.231 A  
HETATM   14  C   UNL     1     -11.082  11.447  66.687  1.00  0.00    -0.333 A  
HETATM   15  C   UNL     1     -11.117  10.622  67.823  1.00  0.00    -0.385 A  
BRANCH  13  16
HETATM   16  N   UNL     1      -9.875  12.928  65.169  1.00  0.00    -0.496 NA 
HETATM   17  H   UNL     1     -10.018  12.588  64.218  1.00  0.00     0.000 HD 
BRANCH  16  18
HETATM   18  N   UNL     1      -9.658  14.254  65.437  1.00  0.00    -0.538 NA 
HETATM   19  H   UNL     1      -8.709  14.627  65.432  1.00  0.00     0.000 HD 
BRANCH  18  20
HETATM   20  C   UNL     1     -10.665  15.039  65.698  1.00  0.00    -0.354 C  
HETATM   21  C   UNL     1     -11.088  15.036  67.073  1.00  0.00    -0.334 C  
HETATM   22  C   UNL     1     -11.294  15.830  64.684  1.00  0.00    -0.337 C  
HETATM   23  N   UNL     1     -11.773  16.484  63.851  1.00  0.00    -1.022 NA 
HETATM   24  N   UNL     1     -11.430  15.061  68.182  1.00  0.00    -0.329 NA 
ENDBRANCH  18  20
ENDBRANCH  16  18
ENDBRANCH  13  16
ENDBRANCH   9  10
TORSDOF 4
ENDMDL
MODEL       79
REMARK 921   NORMALIZED FREE ENERGY PREDICTED BY IDOCK:   -5.40 KCAL/MOL
REMARK 922        TOTAL FREE ENERGY PREDICTED BY IDOCK:   -7.37 KCAL/MOL
REMARK 923 INTER-LIGAND FREE ENERGY PREDICTED BY IDOCK:   -6.76 KCAL/MOL
REMARK 924 INTRA-LIGAND FREE ENERGY PREDICTED BY IDOCK:   -0.61 KCAL/MOL
REMARK 927      BINDING AFFINITY PREDICTED BY RF-SCORE:    0.00 PKD
ROOT
HETATM    1  C   UNL     1     -10.759   7.906  67.577  1.00  0.00    -0.252 C  
HETATM    2  C   UNL     1      -9.972   7.722  68.877  1.00  0.00    -0.185 C  
HETATM    3  C   UNL     1      -9.312   6.347  68.907  1.00  0.00    -0.130 C  
HETATM    4  C   UNL     1      -9.908   5.352  69.855  1.00  0.00    -0.201 C  
HETATM    5  N   UNL     1     -10.847   5.801  70.732  1.00  0.00    -0.274 N  
HETATM    6  O   UNL     1      -9.539   4.177  69.867  1.00  0.00    -0.182 OA 
HETATM    7  H   UNL     1     -11.272   5.098  71.337  1.00  0.00     0.000 HD 
HETATM    8  N   UNL     1     -11.278   7.071  70.894  1.00  0.00    -0.268 NA 
HETATM    9  C   UNL     1     -10.873   7.997  70.079  1.00  0.00    -0.235 C  
ENDROOT
BRANCH   9  10
HETATM   10  C   UNL     1     -11.336   9.404  70.348  1.00  0.00    -0.295 A  
HETATM   11  C   UNL     1     -12.431   9.671  71.172  1.00  0.00    -0.421 A  
HETATM   12  C   UNL     1     -12.889  10.985  71.332  1.00  0.00    -0.548 A  
HETATM   13  C   UNL     1     -12.273  12.060  70.679  1.00  0.00    -0.316 A  
HETATM   14  C   UNL     1     -11.174  11.788  69.858  1.00  0.00    -0.093 A  
HETATM   15  C   UNL     1     -10.703  10.474  69.699  1.00  0.00    -0.302 A  
BRANCH  13  16
HETATM   16  N   UNL     1     -12.772  13.377  70.793  1.00  0.00    -0.269 NA 
HETATM   17  H   UNL     1     -13.097  13.901  69.980  1.00  0.00     0.000 HD 
BRANCH  16  18
HETATM   18  N   UNL     1     -12.797  13.911  72.053  1.00  0.00    -0.318 NA 
HETATM   19  H   UNL     1     -13.185  13.373  72.828  1.00  0.00     0.000 HD 
BRANCH  18  20
HETATM   20  C   UNL     1     -12.325  15.108  72.262  1.00  0.00    -0.363 C  
HETATM   21  C   UNL     1     -11.634  15.685  71.142  1.00  0.00    -0.412 C  
HETATM   22  C   UNL     1     -12.487  15.778  73.517  1.00  0.00    -0.552 C  
HETATM   23  N   UNL     1     -12.652  16.316  74.535  1.00  0.00    -0.773 NA 
HETATM   24  N   UNL     1     -11.089  16.175  70.240  1.00  0.00    -0.368 NA 
ENDBRANCH  18  20
ENDBRANCH  16  18
ENDBRANCH  13  16
ENDBRANCH   9  10
TORSDOF 4
ENDMDL
MODEL       80
REMARK 921   NORMALIZED FREE ENERGY PREDICTED BY IDOCK:   -5.39 KCAL/MOL
REMARK 922        TOTAL FREE ENERGY PREDICTED BY IDOCK:   -7.36 KCAL/MOL
REMARK 923 INTER-LIGAND FREE ENERGY PREDICTED BY IDOCK:   -6.64 KCAL/MOL
REMARK 924 INTRA-LIGAND FREE ENERGY PREDICTED BY IDOCK:   -0.72 KCAL/MOL
REMARK 927      BINDING AFFINITY PREDICTED BY RF-SCORE:    0.00 PKD
ROOT
HETATM    1  C   UNL     1     -10.733  14.893  69.953  1.00  0.00    -0.198 C  
HETATM    2  C   UNL     1     -12.210  14.492  69.924  1.00  0.00    -0.379 C  
HETATM    3  C   UNL     1     -13.044  15.483  70.729  1.00  0.00    -0.446 C  
HETATM    4  C   UNL     1     -13.576  14.985  72.037  1.00  0.00    -0.420 C  
HETATM    5  N   UNL     1     -13.438  13.658  72.310  1.00  0.00    -0.508 N  
HETATM    6  O   UNL     1     -14.150  15.738  72.825  1.00  0.00    -0.576 OA 
HETATM    7  H   UNL     1     -13.766  13.349  73.226  1.00  0.00     0.000 HD 
HETATM    8  N   UNL     1     -12.917  12.705  71.507  1.00  0.00    -0.344 NA 
HETATM    9  C   UNL     1     -12.370  13.043  70.379  1.00  0.00    -0.277 C  
ENDROOT
BRANCH   9  10
HETATM   10  C   UNL     1     -11.865  11.932  69.497  1.00  0.00    -0.395 A  
HETATM   11  C   UNL     1     -11.412  10.722  70.027  1.00  0.00    -0.412 A  
HETATM   12  C   UNL     1     -10.869   9.743  69.186  1.00  0.00    -0.231 A  
HETATM   13  C   UNL     1     -10.762   9.942  67.804  1.00  0.00    -0.277 A  
HETATM   14  C   UNL     1     -11.221  11.155  67.277  1.00  0.00    -0.347 A  
HETATM   15  C   UNL     1     -11.775  12.137  68.113  1.00  0.00    -0.402 A  
BRANCH  13  16
HETATM   16  N   UNL     1     -10.159   8.980  66.964  1.00  0.00    -0.226 NA 
HETATM   17  H   UNL     1      -9.872   8.065  67.313  1.00  0.00     0.000 HD 
BRANCH  16  18
HETATM   18  N   UNL     1      -9.979   9.342  65.656  1.00  0.00    -0.427 NA 
HETATM   19  H   UNL     1     -10.754   9.742  65.126  1.00  0.00     0.000 HD 
BRANCH  18  20
HETATM   20  C   UNL     1      -8.818   9.175  65.087  1.00  0.00    -0.200 C  
HETATM   21  C   UNL     1      -7.731   8.939  65.999  1.00  0.00    -0.098 C  
HETATM   22  C   UNL     1      -8.655   9.230  63.666  1.00  0.00    -0.196 C  
HETATM   23  N   UNL     1      -8.548   9.252  62.508  1.00  0.00    -0.210 NA 
HETATM   24  N   UNL     1      -6.845   8.729  66.719  1.00  0.00    -0.069 NA 
ENDBRANCH  18  20
ENDBRANCH  16  18
ENDBRANCH  13  16
ENDBRANCH   9  10
TORSDOF 4
ENDMDL
MODEL       81
REMARK 921   NORMALIZED FREE ENERGY PREDICTED BY IDOCK:   -5.39 KCAL/MOL
REMARK 922        TOTAL FREE ENERGY PREDICTED BY IDOCK:   -7.36 KCAL/MOL
REMARK 923 INTER-LIGAND FREE ENERGY PREDICTED BY IDOCK:   -6.59 KCAL/MOL
REMARK 924 INTRA-LIGAND FREE ENERGY PREDICTED BY IDOCK:   -0.77 KCAL/MOL
REMARK 927      BINDING AFFINITY PREDICTED BY RF-SCORE:    0.00 PKD
ROOT
HETATM    1  C   UNL     1      -9.901   6.837  74.106  1.00  0.00    -0.352 C  
HETATM    2  C   UNL     1     -11.006   6.217  73.248  1.00  0.00    -0.221 C  
HETATM    3  C   UNL     1     -10.964   4.696  73.347  1.00  0.00    -0.395 C  
HETATM    4  C   UNL     1     -10.471   3.971  72.132  1.00  0.00    -0.012 C  
HETATM    5  N   UNL     1     -10.286   4.698  70.996  1.00  0.00    -0.178 N  
HETATM    6  O   UNL     1     -10.274   2.755  72.147  1.00  0.00    -0.161 OA 
HETATM    7  H   UNL     1      -9.906   4.194  70.194  1.00  0.00     0.000 HD 
HETATM    8  N   UNL     1     -10.548   6.010  70.810  1.00  0.00    -0.241 NA 
HETATM    9  C   UNL     1     -10.916   6.742  71.817  1.00  0.00    -0.235 C  
ENDROOT
BRANCH   9  10
HETATM   10  C   UNL     1     -11.256   8.181  71.535  1.00  0.00    -0.307 A  
HETATM   11  C   UNL     1     -12.450   8.754  71.978  1.00  0.00    -0.452 A  
HETATM   12  C   UNL     1     -12.774  10.070  71.625  1.00  0.00    -0.535 A  
HETATM   13  C   UNL     1     -11.923  10.846  70.828  1.00  0.00    -0.346 A  
HETATM   14  C   UNL     1     -10.726  10.269  70.390  1.00  0.00    -0.270 A  
HETATM   15  C   UNL     1     -10.389   8.953  70.747  1.00  0.00    -0.283 A  
BRANCH  13  16
HETATM   16  N   UNL     1     -12.278  12.151  70.422  1.00  0.00    -0.330 NA 
HETATM   17  H   UNL     1     -12.162  12.466  69.458  1.00  0.00     0.000 HD 
BRANCH  16  18
HETATM   18  N   UNL     1     -12.789  12.972  71.392  1.00  0.00    -0.344 NA 
HETATM   19  H   UNL     1     -13.140  12.575  72.264  1.00  0.00     0.000 HD 
BRANCH  18  20
HETATM   20  C   UNL     1     -12.825  14.261  71.202  1.00  0.00    -0.359 C  
HETATM   21  C   UNL     1     -12.117  14.716  70.037  1.00  0.00    -0.329 C  
HETATM   22  C   UNL     1     -13.516  15.140  72.097  1.00  0.00    -0.424 C  
HETATM   23  N   UNL     1     -14.104  15.834  72.821  1.00  0.00    -0.516 NA 
HETATM   24  N   UNL     1     -11.567  15.100  69.089  1.00  0.00    -0.304 NA 
ENDBRANCH  18  20
ENDBRANCH  16  18
ENDBRANCH  13  16
ENDBRANCH   9  10
TORSDOF 4
ENDMDL
MODEL       82
REMARK 921   NORMALIZED FREE ENERGY PREDICTED BY IDOCK:   -5.38 KCAL/MOL
REMARK 922        TOTAL FREE ENERGY PREDICTED BY IDOCK:   -7.35 KCAL/MOL
REMARK 923 INTER-LIGAND FREE ENERGY PREDICTED BY IDOCK:   -6.83 KCAL/MOL
REMARK 924 INTRA-LIGAND FREE ENERGY PREDICTED BY IDOCK:   -0.52 KCAL/MOL
REMARK 927      BINDING AFFINITY PREDICTED BY RF-SCORE:    0.00 PKD
ROOT
HETATM    1  C   UNL     1     -13.459   9.526  72.195  1.00  0.00    -0.535 C  
HETATM    2  C   UNL     1     -12.476   8.661  71.402  1.00  0.00    -0.337 C  
HETATM    3  C   UNL     1     -12.161   7.380  72.167  1.00  0.00    -0.289 C  
HETATM    4  C   UNL     1     -10.791   7.292  72.767  1.00  0.00    -0.314 C  
HETATM    5  N   UNL     1      -9.891   8.256  72.429  1.00  0.00    -0.278 N  
HETATM    6  O   UNL     1     -10.476   6.363  73.512  1.00  0.00    -0.239 OA 
HETATM    7  H   UNL     1      -8.980   8.203  72.884  1.00  0.00     0.000 HD 
HETATM    8  N   UNL     1     -10.068   9.274  71.558  1.00  0.00    -0.298 NA 
HETATM    9  C   UNL     1     -11.239   9.477  71.034  1.00  0.00    -0.362 C  
ENDROOT
BRANCH   9  10
HETATM   10  C   UNL     1     -11.359  10.585  70.022  1.00  0.00    -0.392 A  
HETATM   11  C   UNL     1     -11.695  11.887  70.397  1.00  0.00    -0.213 A  
HETATM   12  C   UNL     1     -11.883  12.875  69.422  1.00  0.00    -0.371 A  
HETATM   13  C   UNL     1     -11.742  12.594  68.057  1.00  0.00    -0.350 A  
HETATM   14  C   UNL     1     -11.401  11.288  67.687  1.00  0.00    -0.352 A  
HETATM   15  C   UNL     1     -11.202  10.294  68.659  1.00  0.00    -0.263 A  
BRANCH  13  16
HETATM   16  N   UNL     1     -11.991  13.575  67.072  1.00  0.00    -0.398 NA 
HETATM   17  H   UNL     1     -12.867  14.097  67.042  1.00  0.00     0.000 HD 
BRANCH  16  18
HETATM   18  N   UNL     1     -10.993  13.787  66.159  1.00  0.00    -0.291 NA 
HETATM   19  H   UNL     1     -10.877  13.149  65.372  1.00  0.00     0.000 HD 
BRANCH  18  20
HETATM   20  C   UNL     1     -10.190  14.805  66.296  1.00  0.00    -0.298 C  
HETATM   21  C   UNL     1      -8.955  14.509  66.970  1.00  0.00    -0.240 C  
HETATM   22  C   UNL     1     -10.530  16.109  65.813  1.00  0.00    -0.367 C  
HETATM   23  N   UNL     1     -10.814  17.154  65.390  1.00  0.00    -0.465 NA 
HETATM   24  N   UNL     1      -7.944  14.284  67.495  1.00  0.00    -0.176 NA 
ENDBRANCH  18  20
ENDBRANCH  16  18
ENDBRANCH  13  16
ENDBRANCH   9  10
TORSDOF 4
ENDMDL
MODEL       83
REMARK 921   NORMALIZED FREE ENERGY PREDICTED BY IDOCK:   -5.38 KCAL/MOL
REMARK 922        TOTAL FREE ENERGY PREDICTED BY IDOCK:   -7.35 KCAL/MOL
REMARK 923 INTER-LIGAND FREE ENERGY PREDICTED BY IDOCK:   -6.81 KCAL/MOL
REMARK 924 INTRA-LIGAND FREE ENERGY PREDICTED BY IDOCK:   -0.53 KCAL/MOL
REMARK 927      BINDING AFFINITY PREDICTED BY RF-SCORE:    0.00 PKD
ROOT
HETATM    1  C   UNL     1     -10.167  12.210  66.786  1.00  0.00    -0.224 C  
HETATM    2  C   UNL     1     -11.340  13.126  66.427  1.00  0.00    -0.349 C  
HETATM    3  C   UNL     1     -12.380  12.361  65.614  1.00  0.00    -0.182 C  
HETATM    4  C   UNL     1     -12.467  12.715  64.161  1.00  0.00    -0.403 C  
HETATM    5  N   UNL     1     -11.764  13.798  63.732  1.00  0.00    -0.668 N  
HETATM    6  O   UNL     1     -13.178  12.072  63.387  1.00  0.00    -0.687 OA 
HETATM    7  H   UNL     1     -11.801  13.993  62.731  1.00  0.00     0.000 HD 
HETATM    8  N   UNL     1     -11.021  14.643  64.480  1.00  0.00    -0.298 NA 
HETATM    9  C   UNL     1     -10.828  14.389  65.738  1.00  0.00    -0.307 C  
ENDROOT
BRANCH   9  10
HETATM   10  C   UNL     1     -10.048  15.400  66.535  1.00  0.00    -0.282 A  
HETATM   11  C   UNL     1      -8.657  15.333  66.645  1.00  0.00    -0.305 A  
HETATM   12  C   UNL     1      -7.971  16.238  67.464  1.00  0.00    -0.171 A  
HETATM   13  C   UNL     1      -8.646  17.228  68.189  1.00  0.00    -0.242 A  
HETATM   14  C   UNL     1     -10.039  17.293  68.073  1.00  0.00    -0.324 A  
HETATM   15  C   UNL     1     -10.734  16.395  67.247  1.00  0.00    -0.257 A  
BRANCH  13  16
HETATM   16  N   UNL     1      -7.959  18.101  69.062  1.00  0.00    -0.145 NA 
HETATM   17  H   UNL     1      -7.422  17.755  69.857  1.00  0.00     0.000 HD 
BRANCH  16  18
HETATM   18  N   UNL     1      -8.054  19.439  68.782  1.00  0.00    -0.365 NA 
HETATM   19  H   UNL     1      -8.926  19.937  68.962  1.00  0.00     0.000 HD 
BRANCH  18  20
HETATM   20  C   UNL     1      -7.031  20.074  68.285  1.00  0.00    -0.295 C  
HETATM   21  C   UNL     1      -6.992  20.120  66.849  1.00  0.00    -0.231 C  
HETATM   22  C   UNL     1      -6.031  20.670  69.118  1.00  0.00    -0.336 C  
HETATM   23  N   UNL     1      -5.244  21.170  69.813  1.00  0.00    -0.449 NA 
HETATM   24  N   UNL     1      -6.954  20.183  65.690  1.00  0.00    -0.294 NA 
ENDBRANCH  18  20
ENDBRANCH  16  18
ENDBRANCH  13  16
ENDBRANCH   9  10
TORSDOF 4
ENDMDL
MODEL       84
REMARK 921   NORMALIZED FREE ENERGY PREDICTED BY IDOCK:   -5.38 KCAL/MOL
REMARK 922        TOTAL FREE ENERGY PREDICTED BY IDOCK:   -7.34 KCAL/MOL
REMARK 923 INTER-LIGAND FREE ENERGY PREDICTED BY IDOCK:   -6.61 KCAL/MOL
REMARK 924 INTRA-LIGAND FREE ENERGY PREDICTED BY IDOCK:   -0.73 KCAL/MOL
REMARK 927      BINDING AFFINITY PREDICTED BY RF-SCORE:    0.00 PKD
ROOT
HETATM    1  C   UNL     1      -7.586   9.291  67.419  1.00  0.00    -0.088 C  
HETATM    2  C   UNL     1      -8.721   8.536  68.114  1.00  0.00    -0.142 C  
HETATM    3  C   UNL     1      -8.457   7.034  68.080  1.00  0.00    -0.129 C  
HETATM    4  C   UNL     1      -9.325   6.235  67.157  1.00  0.00    -0.123 C  
HETATM    5  N   UNL     1     -10.382   6.868  66.578  1.00  0.00    -0.478 N  
HETATM    6  O   UNL     1      -9.113   5.038  66.954  1.00  0.00    -0.115 OA 
HETATM    7  H   UNL     1     -10.932   6.318  65.918  1.00  0.00     0.000 HD 
HETATM    8  N   UNL     1     -10.785   8.142  66.779  1.00  0.00    -0.181 NA 
HETATM    9  C   UNL     1     -10.065   8.937  67.510  1.00  0.00    -0.227 C  
ENDROOT
BRANCH   9  10
HETATM   10  C   UNL     1     -10.598  10.324  67.751  1.00  0.00    -0.296 A  
HETATM   11  C   UNL     1     -11.261  10.661  68.933  1.00  0.00    -0.333 A  
HETATM   12  C   UNL     1     -11.820  11.936  69.089  1.00  0.00    -0.371 A  
HETATM   13  C   UNL     1     -11.734  12.902  68.079  1.00  0.00    -0.356 A  
HETATM   14  C   UNL     1     -11.065  12.561  66.898  1.00  0.00    -0.323 A  
HETATM   15  C   UNL     1     -10.494  11.288  66.737  1.00  0.00    -0.291 A  
BRANCH  13  16
HETATM   16  N   UNL     1     -12.350  14.166  68.212  1.00  0.00    -0.556 NA 
HETATM   17  H   UNL     1     -12.621  14.722  67.400  1.00  0.00     0.000 HD 
BRANCH  16  18
HETATM   18  N   UNL     1     -12.566  14.605  69.491  1.00  0.00    -0.575 NA 
HETATM   19  H   UNL     1     -13.246  14.132  70.086  1.00  0.00     0.000 HD 
BRANCH  18  20
HETATM   20  C   UNL     1     -11.901  15.629  69.949  1.00  0.00    -0.360 C  
HETATM   21  C   UNL     1     -11.214  16.396  68.945  1.00  0.00    -0.304 C  
HETATM   22  C   UNL     1     -11.865  15.948  71.344  1.00  0.00    -0.463 C  
HETATM   23  N   UNL     1     -11.870  16.204  72.478  1.00  0.00    -0.527 NA 
HETATM   24  N   UNL     1     -10.668  17.038  68.146  1.00  0.00    -0.371 NA 
ENDBRANCH  18  20
ENDBRANCH  16  18
ENDBRANCH  13  16
ENDBRANCH   9  10
TORSDOF 4
ENDMDL
MODEL       85
REMARK 921   NORMALIZED FREE ENERGY PREDICTED BY IDOCK:   -5.35 KCAL/MOL
REMARK 922        TOTAL FREE ENERGY PREDICTED BY IDOCK:   -7.31 KCAL/MOL
REMARK 923 INTER-LIGAND FREE ENERGY PREDICTED BY IDOCK:   -6.61 KCAL/MOL
REMARK 924 INTRA-LIGAND FREE ENERGY PREDICTED BY IDOCK:   -0.70 KCAL/MOL
REMARK 927      BINDING AFFINITY PREDICTED BY RF-SCORE:    0.00 PKD
ROOT
HETATM    1  C   UNL     1     -12.570  12.737  71.025  1.00  0.00    -0.362 C  
HETATM    2  C   UNL     1     -12.528  11.441  70.212  1.00  0.00    -0.312 C  
HETATM    3  C   UNL     1     -12.922  10.255  71.087  1.00  0.00    -0.503 C  
HETATM    4  C   UNL     1     -11.813   9.322  71.467  1.00  0.00    -0.374 C  
HETATM    5  N   UNL     1     -10.607   9.494  70.861  1.00  0.00    -0.309 N  
HETATM    6  O   UNL     1     -11.993   8.408  72.273  1.00  0.00    -0.349 OA 
HETATM    7  H   UNL     1      -9.854   8.878  71.168  1.00  0.00     0.000 HD 
HETATM    8  N   UNL     1     -10.293  10.389  69.897  1.00  0.00    -0.224 NA 
HETATM    9  C   UNL     1     -11.164  11.285  69.543  1.00  0.00    -0.272 C  
ENDROOT
BRANCH   9  10
HETATM   10  C   UNL     1     -10.781  12.213  68.421  1.00  0.00    -0.252 A  
HETATM   11  C   UNL     1      -9.502  12.765  68.328  1.00  0.00    -0.203 A  
HETATM   12  C   UNL     1      -9.206  13.691  67.321  1.00  0.00    -0.232 A  
HETATM   13  C   UNL     1     -10.169  14.090  66.385  1.00  0.00    -0.291 A  
HETATM   14  C   UNL     1     -11.448  13.531  66.480  1.00  0.00    -0.365 A  
HETATM   15  C   UNL     1     -11.751  12.594  67.482  1.00  0.00    -0.429 A  
BRANCH  13  16
HETATM   16  N   UNL     1      -9.887  15.069  65.408  1.00  0.00    -0.389 NA 
HETATM   17  H   UNL     1      -9.415  14.837  64.533  1.00  0.00     0.000 HD 
BRANCH  16  18
HETATM   18  N   UNL     1     -10.281  16.348  65.697  1.00  0.00    -0.511 NA 
HETATM   19  H   UNL     1     -11.169  16.702  65.340  1.00  0.00     0.000 HD 
BRANCH  18  20
HETATM   20  C   UNL     1      -9.521  17.114  66.428  1.00  0.00    -0.269 C  
HETATM   21  C   UNL     1      -8.166  17.237  65.962  1.00  0.00    -0.140 C  
HETATM   22  C   UNL     1     -10.011  17.771  67.601  1.00  0.00    -0.322 C  
HETATM   23  N   UNL     1     -10.437  18.316  68.536  1.00  0.00    -0.294 NA 
HETATM   24  N   UNL     1      -7.073  17.362  65.590  1.00  0.00    -0.211 NA 
ENDBRANCH  18  20
ENDBRANCH  16  18
ENDBRANCH  13  16
ENDBRANCH   9  10
TORSDOF 4
ENDMDL
MODEL       86
REMARK 921   NORMALIZED FREE ENERGY PREDICTED BY IDOCK:   -5.35 KCAL/MOL
REMARK 922        TOTAL FREE ENERGY PREDICTED BY IDOCK:   -7.31 KCAL/MOL
REMARK 923 INTER-LIGAND FREE ENERGY PREDICTED BY IDOCK:   -7.01 KCAL/MOL
REMARK 924 INTRA-LIGAND FREE ENERGY PREDICTED BY IDOCK:   -0.30 KCAL/MOL
REMARK 927      BINDING AFFINITY PREDICTED BY RF-SCORE:    0.00 PKD
ROOT
HETATM    1  C   UNL     1      -6.201  19.042  66.321  1.00  0.00    -0.202 C  
HETATM    2  C   UNL     1      -7.049  19.255  67.577  1.00  0.00    -0.236 C  
HETATM    3  C   UNL     1      -6.575  20.494  68.332  1.00  0.00    -0.292 C  
HETATM    4  C   UNL     1      -5.850  20.242  69.618  1.00  0.00    -0.346 C  
HETATM    5  N   UNL     1      -5.838  18.968  70.097  1.00  0.00    -0.248 N  
HETATM    6  O   UNL     1      -5.313  21.159  70.241  1.00  0.00    -0.568 OA 
HETATM    7  H   UNL     1      -5.300  18.811  70.949  1.00  0.00     0.000 HD 
HETATM    8  N   UNL     1      -6.458  17.888  69.572  1.00  0.00    -0.230 NA 
HETATM    9  C   UNL     1      -7.059  17.985  68.425  1.00  0.00    -0.247 C  
ENDROOT
BRANCH   9  10
HETATM   10  C   UNL     1      -7.787  16.767  67.922  1.00  0.00    -0.178 A  
HETATM   11  C   UNL     1      -7.191  15.505  67.921  1.00  0.00    -0.156 A  
HETATM   12  C   UNL     1      -7.863  14.408  67.367  1.00  0.00    -0.211 A  
HETATM   13  C   UNL     1      -9.139  14.540  66.803  1.00  0.00    -0.261 A  
HETATM   14  C   UNL     1      -9.734  15.807  66.810  1.00  0.00    -0.251 A  
HETATM   15  C   UNL     1      -9.069  16.909  67.372  1.00  0.00    -0.221 A  
BRANCH  13  16
HETATM   16  N   UNL     1      -9.791  13.447  66.190  1.00  0.00    -0.304 NA 
HETATM   17  H   UNL     1     -10.015  12.595  66.706  1.00  0.00     0.000 HD 
BRANCH  16  18
HETATM   18  N   UNL     1     -10.107  13.593  64.865  1.00  0.00    -0.600 NA 
HETATM   19  H   UNL     1      -9.397  13.432  64.151  1.00  0.00     0.000 HD 
BRANCH  18  20
HETATM   20  C   UNL     1     -11.315  13.937  64.518  1.00  0.00    -0.372 C  
HETATM   21  C   UNL     1     -12.253  12.850  64.449  1.00  0.00    -0.417 C  
HETATM   22  C   UNL     1     -11.662  15.295  64.227  1.00  0.00    -0.215 C  
HETATM   23  N   UNL     1     -11.930  16.408  64.021  1.00  0.00    -0.854 NA 
HETATM   24  N   UNL     1     -13.029  11.987  64.406  1.00  0.00    -0.602 NA 
ENDBRANCH  18  20
ENDBRANCH  16  18
ENDBRANCH  13  16
ENDBRANCH   9  10
TORSDOF 4
ENDMDL
MODEL       87
REMARK 921   NORMALIZED FREE ENERGY PREDICTED BY IDOCK:   -5.32 KCAL/MOL
REMARK 922        TOTAL FREE ENERGY PREDICTED BY IDOCK:   -7.28 KCAL/MOL
REMARK 923 INTER-LIGAND FREE ENERGY PREDICTED BY IDOCK:   -6.69 KCAL/MOL
REMARK 924 INTRA-LIGAND FREE ENERGY PREDICTED BY IDOCK:   -0.59 KCAL/MOL
REMARK 927      BINDING AFFINITY PREDICTED BY RF-SCORE:    0.00 PKD
ROOT
HETATM    1  C   UNL     1     -10.609  14.975  70.117  1.00  0.00    -0.155 C  
HETATM    2  C   UNL     1     -12.095  14.615  70.033  1.00  0.00    -0.383 C  
HETATM    3  C   UNL     1     -12.927  15.615  70.830  1.00  0.00    -0.471 C  
HETATM    4  C   UNL     1     -13.513  15.108  72.112  1.00  0.00    -0.424 C  
HETATM    5  N   UNL     1     -13.420  13.774  72.364  1.00  0.00    -0.526 N  
HETATM    6  O   UNL     1     -14.091  15.863  72.895  1.00  0.00    -0.561 OA 
HETATM    7  H   UNL     1     -13.785  13.457  73.262  1.00  0.00     0.000 HD 
HETATM    8  N   UNL     1     -12.900  12.821  71.559  1.00  0.00    -0.328 NA 
HETATM    9  C   UNL     1     -12.308  13.163  70.455  1.00  0.00    -0.304 C  
ENDROOT
BRANCH   9  10
HETATM   10  C   UNL     1     -11.805  12.055  69.569  1.00  0.00    -0.390 A  
HETATM   11  C   UNL     1     -11.365  10.838  70.093  1.00  0.00    -0.390 A  
HETATM   12  C   UNL     1     -10.824   9.861  69.249  1.00  0.00    -0.255 A  
HETATM   13  C   UNL     1     -10.707  10.069  67.869  1.00  0.00    -0.272 A  
HETATM   14  C   UNL     1     -11.153  11.289  67.347  1.00  0.00    -0.358 A  
HETATM   15  C   UNL     1     -11.705  12.270  68.187  1.00  0.00    -0.408 A  
BRANCH  13  16
HETATM   16  N   UNL     1     -10.105   9.109  67.026  1.00  0.00    -0.227 NA 
HETATM   17  H   UNL     1      -9.307   9.338  66.432  1.00  0.00     0.000 HD 
BRANCH  16  18
HETATM   18  N   UNL     1     -10.649   7.852  67.050  1.00  0.00    -0.384 NA 
HETATM   19  H   UNL     1     -11.661   7.734  66.998  1.00  0.00     0.000 HD 
BRANCH  18  20
HETATM   20  C   UNL     1      -9.875   6.808  67.139  1.00  0.00    -0.161 C  
HETATM   21  C   UNL     1     -10.310   5.670  66.376  1.00  0.00    -0.187 C  
HETATM   22  C   UNL     1      -8.690   6.810  67.942  1.00  0.00    -0.120 C  
HETATM   23  N   UNL     1      -7.718   6.840  68.580  1.00  0.00    -0.111 NA 
HETATM   24  N   UNL     1     -10.637   4.747  65.751  1.00  0.00    -0.274 NA 
ENDBRANCH  18  20
ENDBRANCH  16  18
ENDBRANCH  13  16
ENDBRANCH   9  10
TORSDOF 4
ENDMDL
MODEL       88
REMARK 921   NORMALIZED FREE ENERGY PREDICTED BY IDOCK:   -5.32 KCAL/MOL
REMARK 922        TOTAL FREE ENERGY PREDICTED BY IDOCK:   -7.27 KCAL/MOL
REMARK 923 INTER-LIGAND FREE ENERGY PREDICTED BY IDOCK:   -6.80 KCAL/MOL
REMARK 924 INTRA-LIGAND FREE ENERGY PREDICTED BY IDOCK:   -0.47 KCAL/MOL
REMARK 927      BINDING AFFINITY PREDICTED BY RF-SCORE:    0.00 PKD
ROOT
HETATM    1  C   UNL     1     -12.215  11.418  71.449  1.00  0.00    -0.136 C  
HETATM    2  C   UNL     1     -12.413  10.242  70.490  1.00  0.00    -0.351 C  
HETATM    3  C   UNL     1     -12.872   9.005  71.256  1.00  0.00    -0.296 C  
HETATM    4  C   UNL     1     -11.861   7.910  71.402  1.00  0.00    -0.299 C  
HETATM    5  N   UNL     1     -10.704   8.021  70.694  1.00  0.00    -0.224 N  
HETATM    6  O   UNL     1     -12.080   6.926  72.110  1.00  0.00    -0.291 OA 
HETATM    7  H   UNL     1     -10.010   7.288  70.844  1.00  0.00     0.000 HD 
HETATM    8  N   UNL     1     -10.370   8.991  69.815  1.00  0.00    -0.204 NA 
HETATM    9  C   UNL     1     -11.148  10.019  69.664  1.00  0.00    -0.259 C  
ENDROOT
BRANCH   9  10
HETATM   10  C   UNL     1     -10.757  11.035  68.625  1.00  0.00    -0.234 A  
HETATM   11  C   UNL     1     -11.702  11.854  68.006  1.00  0.00    -0.382 A  
HETATM   12  C   UNL     1     -11.316  12.728  66.981  1.00  0.00    -0.364 A  
HETATM   13  C   UNL     1      -9.986  12.807  66.549  1.00  0.00    -0.253 A  
HETATM   14  C   UNL     1      -9.041  11.987  67.175  1.00  0.00    -0.186 A  
HETATM   15  C   UNL     1      -9.419  11.115  68.209  1.00  0.00    -0.182 A  
BRANCH  13  16
HETATM   16  N   UNL     1      -9.608  13.643  65.475  1.00  0.00    -0.515 NA 
HETATM   17  H   UNL     1      -9.382  13.267  64.554  1.00  0.00     0.000 HD 
BRANCH  16  18
HETATM   18  N   UNL     1      -9.562  14.987  65.737  1.00  0.00    -0.419 NA 
HETATM   19  H   UNL     1      -8.744  15.390  66.193  1.00  0.00     0.000 HD 
BRANCH  18  20
HETATM   20  C   UNL     1     -10.566  15.750  65.405  1.00  0.00    -0.421 C  
HETATM   21  C   UNL     1     -10.481  17.100  65.894  1.00  0.00    -0.258 C  
HETATM   22  C   UNL     1     -11.660  15.265  64.620  1.00  0.00    -0.333 C  
HETATM   23  N   UNL     1     -12.526  14.858  63.959  1.00  0.00    -0.801 NA 
HETATM   24  N   UNL     1     -10.420  18.199  66.264  1.00  0.00    -0.388 NA 
ENDBRANCH  18  20
ENDBRANCH  16  18
ENDBRANCH  13  16
ENDBRANCH   9  10
TORSDOF 4
ENDMDL
MODEL       89
REMARK 921   NORMALIZED FREE ENERGY PREDICTED BY IDOCK:   -5.29 KCAL/MOL
REMARK 922        TOTAL FREE ENERGY PREDICTED BY IDOCK:   -7.24 KCAL/MOL
REMARK 923 INTER-LIGAND FREE ENERGY PREDICTED BY IDOCK:   -6.71 KCAL/MOL
REMARK 924 INTRA-LIGAND FREE ENERGY PREDICTED BY IDOCK:   -0.53 KCAL/MOL
REMARK 927      BINDING AFFINITY PREDICTED BY RF-SCORE:    0.00 PKD
ROOT
HETATM    1  C   UNL     1     -13.050  12.838  71.760  1.00  0.00    -0.455 C  
HETATM    2  C   UNL     1     -13.011  11.679  70.761  1.00  0.00    -0.065 C  
HETATM    3  C   UNL     1     -13.173  10.348  71.487  1.00  0.00    -0.485 C  
HETATM    4  C   UNL     1     -11.945   9.494  71.576  1.00  0.00    -0.399 C  
HETATM    5  N   UNL     1     -10.857   9.877  70.854  1.00  0.00    -0.321 N  
HETATM    6  O   UNL     1     -11.929   8.463  72.250  1.00  0.00    -0.349 OA 
HETATM    7  H   UNL     1     -10.018   9.308  70.965  1.00  0.00     0.000 HD 
HETATM    8  N   UNL     1     -10.762  10.925  70.007  1.00  0.00    -0.098 NA 
HETATM    9  C   UNL     1     -11.748  11.764  69.907  1.00  0.00    -0.323 C  
ENDROOT
BRANCH   9  10
HETATM   10  C   UNL     1     -11.610  12.875  68.900  1.00  0.00    -0.360 A  
HETATM   11  C   UNL     1     -12.034  12.724  67.579  1.00  0.00    -0.342 A  
HETATM   12  C   UNL     1     -11.813  13.745  66.646  1.00  0.00    -0.445 A  
HETATM   13  C   UNL     1     -11.168  14.936  67.003  1.00  0.00    -0.344 A  
HETATM   14  C   UNL     1     -10.749  15.084  68.330  1.00  0.00    -0.245 A  
HETATM   15  C   UNL     1     -10.975  14.068  69.273  1.00  0.00    -0.242 A  
BRANCH  13  16
HETATM   16  N   UNL     1     -10.891  15.940  66.049  1.00  0.00    -0.273 NA 
HETATM   17  H   UNL     1     -11.627  16.361  65.482  1.00  0.00     0.000 HD 
BRANCH  16  18
HETATM   18  N   UNL     1      -9.580  16.318  65.927  1.00  0.00    -0.424 NA 
HETATM   19  H   UNL     1      -8.898  15.672  65.531  1.00  0.00     0.000 HD 
BRANCH  18  20
HETATM   20  C   UNL     1      -9.205  17.503  66.318  1.00  0.00    -0.203 C  
HETATM   21  C   UNL     1      -7.803  17.775  66.150  1.00  0.00    -0.227 C  
HETATM   22  C   UNL     1     -10.128  18.446  66.874  1.00  0.00    -0.367 C  
HETATM   23  N   UNL     1     -10.898  19.206  67.299  1.00  0.00    -0.480 NA 
HETATM   24  N   UNL     1      -6.677  18.019  66.004  1.00  0.00    -0.262 NA 
ENDBRANCH  18  20
ENDBRANCH  16  18
ENDBRANCH  13  16
ENDBRANCH   9  10
TORSDOF 4
ENDMDL
MODEL       90
REMARK 921   NORMALIZED FREE ENERGY PREDICTED BY IDOCK:   -5.29 KCAL/MOL
REMARK 922        TOTAL FREE ENERGY PREDICTED BY IDOCK:   -7.24 KCAL/MOL
REMARK 923 INTER-LIGAND FREE ENERGY PREDICTED BY IDOCK:   -6.76 KCAL/MOL
REMARK 924 INTRA-LIGAND FREE ENERGY PREDICTED BY IDOCK:   -0.47 KCAL/MOL
REMARK 927      BINDING AFFINITY PREDICTED BY RF-SCORE:    0.00 PKD
ROOT
HETATM    1  C   UNL     1      -9.179  19.479  66.226  1.00  0.00    -0.416 C  
HETATM    2  C   UNL     1      -9.288  18.974  67.667  1.00  0.00    -0.342 C  
HETATM    3  C   UNL     1      -8.405  19.810  68.589  1.00  0.00    -0.229 C  
HETATM    4  C   UNL     1      -7.170  19.136  69.104  1.00  0.00    -0.300 C  
HETATM    5  N   UNL     1      -7.034  17.803  68.869  1.00  0.00    -0.246 N  
HETATM    6  O   UNL     1      -6.323  19.757  69.748  1.00  0.00    -0.320 OA 
HETATM    7  H   UNL     1      -6.164  17.374  69.188  1.00  0.00     0.000 HD 
HETATM    8  N   UNL     1      -7.919  16.982  68.262  1.00  0.00    -0.213 NA 
HETATM    9  C   UNL     1      -8.991  17.477  67.723  1.00  0.00    -0.245 C  
ENDROOT
BRANCH   9  10
HETATM   10  C   UNL     1      -9.971  16.507  67.119  1.00  0.00    -0.266 A  
HETATM   11  C   UNL     1     -10.905  15.824  67.900  1.00  0.00    -0.314 A  
HETATM   12  C   UNL     1     -11.744  14.865  67.319  1.00  0.00    -0.308 A  
HETATM   13  C   UNL     1     -11.675  14.562  65.953  1.00  0.00    -0.345 A  
HETATM   14  C   UNL     1     -10.740  15.252  65.174  1.00  0.00    -0.455 A  
HETATM   15  C   UNL     1      -9.902  16.222  65.747  1.00  0.00    -0.332 A  
BRANCH  13  16
HETATM   16  N   UNL     1     -12.479  13.552  65.380  1.00  0.00    -0.474 NA 
HETATM   17  H   UNL     1     -13.170  13.759  64.658  1.00  0.00     0.000 HD 
BRANCH  16  18
HETATM   18  N   UNL     1     -12.279  12.280  65.845  1.00  0.00    -0.600 NA 
HETATM   19  H   UNL     1     -13.038  11.781  66.310  1.00  0.00     0.000 HD 
BRANCH  18  20
HETATM   20  C   UNL     1     -11.119  11.705  65.693  1.00  0.00    -0.249 C  
HETATM   21  C   UNL     1     -10.515  11.239  66.912  1.00  0.00    -0.245 C  
HETATM   22  C   UNL     1     -10.506  11.563  64.408  1.00  0.00    -0.325 C  
HETATM   23  N   UNL     1     -10.037  11.433  63.351  1.00  0.00    -0.371 NA 
HETATM   24  N   UNL     1     -10.022  10.840  67.885  1.00  0.00    -0.171 NA 
ENDBRANCH  18  20
ENDBRANCH  16  18
ENDBRANCH  13  16
ENDBRANCH   9  10
TORSDOF 4
ENDMDL
MODEL       91
REMARK 921   NORMALIZED FREE ENERGY PREDICTED BY IDOCK:   -5.28 KCAL/MOL
REMARK 922        TOTAL FREE ENERGY PREDICTED BY IDOCK:   -7.22 KCAL/MOL
REMARK 923 INTER-LIGAND FREE ENERGY PREDICTED BY IDOCK:   -6.58 KCAL/MOL
REMARK 924 INTRA-LIGAND FREE ENERGY PREDICTED BY IDOCK:   -0.64 KCAL/MOL
REMARK 927      BINDING AFFINITY PREDICTED BY RF-SCORE:    0.00 PKD
ROOT
HETATM    1  C   UNL     1     -14.411  13.661  72.072  1.00  0.00    -0.287 C  
HETATM    2  C   UNL     1     -12.952  13.900  72.470  1.00  0.00    -0.452 C  
HETATM    3  C   UNL     1     -12.877  14.847  73.664  1.00  0.00    -0.522 C  
HETATM    4  C   UNL     1     -12.376  16.229  73.376  1.00  0.00    -0.530 C  
HETATM    5  N   UNL     1     -11.859  16.468  72.140  1.00  0.00    -0.631 N  
HETATM    6  O   UNL     1     -12.397  17.111  74.236  1.00  0.00    -0.456 OA 
HETATM    7  H   UNL     1     -11.566  17.427  71.950  1.00  0.00     0.000 HD 
HETATM    8  N   UNL     1     -11.688  15.580  71.136  1.00  0.00    -0.350 NA 
HETATM    9  C   UNL     1     -12.149  14.372  71.260  1.00  0.00    -0.335 C  
ENDROOT
BRANCH   9  10
HETATM   10  C   UNL     1     -11.873  13.409  70.137  1.00  0.00    -0.342 A  
HETATM   11  C   UNL     1     -12.012  13.783  68.798  1.00  0.00    -0.400 A  
HETATM   12  C   UNL     1     -11.831  12.839  67.780  1.00  0.00    -0.387 A  
HETATM   13  C   UNL     1     -11.508  11.506  68.065  1.00  0.00    -0.311 A  
HETATM   14  C   UNL     1     -11.366  11.137  69.408  1.00  0.00    -0.352 A  
HETATM   15  C   UNL     1     -11.537  12.080  70.434  1.00  0.00    -0.014 A  
BRANCH  13  16
HETATM   16  N   UNL     1     -11.386  10.541  67.041  1.00  0.00    -0.226 NA 
HETATM   17  H   UNL     1     -12.191  10.227  66.499  1.00  0.00     0.000 HD 
BRANCH  16  18
HETATM   18  N   UNL     1     -10.127  10.051  66.815  1.00  0.00    -0.215 NA 
HETATM   19  H   UNL     1      -9.370  10.685  66.562  1.00  0.00     0.000 HD 
BRANCH  18  20
HETATM   20  C   UNL     1      -9.898   8.773  66.924  1.00  0.00    -0.229 C  
HETATM   21  C   UNL     1      -8.994   8.239  65.942  1.00  0.00    -0.163 C  
HETATM   22  C   UNL     1     -10.509   7.976  67.945  1.00  0.00    -0.197 C  
HETATM   23  N   UNL     1     -10.996   7.353  68.797  1.00  0.00    -0.036 NA 
HETATM   24  N   UNL     1      -8.251   7.795  65.167  1.00  0.00    -0.140 NA 
ENDBRANCH  18  20
ENDBRANCH  16  18
ENDBRANCH  13  16
ENDBRANCH   9  10
TORSDOF 4
ENDMDL
MODEL       92
REMARK 921   NORMALIZED FREE ENERGY PREDICTED BY IDOCK:   -5.24 KCAL/MOL
REMARK 922        TOTAL FREE ENERGY PREDICTED BY IDOCK:   -7.18 KCAL/MOL
REMARK 923 INTER-LIGAND FREE ENERGY PREDICTED BY IDOCK:   -6.82 KCAL/MOL
REMARK 924 INTRA-LIGAND FREE ENERGY PREDICTED BY IDOCK:   -0.36 KCAL/MOL
REMARK 927      BINDING AFFINITY PREDICTED BY RF-SCORE:    0.00 PKD
ROOT
HETATM    1  C   UNL     1     -10.011  10.219  64.442  1.00  0.00    -0.331 C  
HETATM    2  C   UNL     1      -9.418   9.938  65.825  1.00  0.00    -0.280 C  
HETATM    3  C   UNL     1      -9.093   8.454  65.970  1.00  0.00    -0.235 C  
HETATM    4  C   UNL     1      -9.989   7.672  66.881  1.00  0.00    -0.255 C  
HETATM    5  N   UNL     1     -10.882   8.366  67.637  1.00  0.00    -0.503 N  
HETATM    6  O   UNL     1      -9.899   6.446  66.970  1.00  0.00    -0.139 OA 
HETATM    7  H   UNL     1     -11.513   7.811  68.215  1.00  0.00     0.000 HD 
HETATM    8  N   UNL     1     -11.028   9.708  67.709  1.00  0.00    -0.218 NA 
HETATM    9  C   UNL     1     -10.345  10.473  66.913  1.00  0.00    -0.239 C  
ENDROOT
BRANCH   9  10
HETATM   10  C   UNL     1     -10.502  11.960  67.084  1.00  0.00    -0.249 A  
HETATM   11  C   UNL     1      -9.580  12.717  67.810  1.00  0.00    -0.204 A  
HETATM   12  C   UNL     1      -9.800  14.084  68.022  1.00  0.00    -0.228 A  
HETATM   13  C   UNL     1     -10.938  14.729  67.521  1.00  0.00    -0.304 A  
HETATM   14  C   UNL     1     -11.858  13.967  66.791  1.00  0.00    -0.452 A  
HETATM   15  C   UNL     1     -11.639  12.598  66.566  1.00  0.00    -0.441 A  
BRANCH  13  16
HETATM   16  N   UNL     1     -11.191  16.093  67.787  1.00  0.00    -0.257 NA 
HETATM   17  H   UNL     1     -12.073  16.408  68.192  1.00  0.00     0.000 HD 
BRANCH  16  18
HETATM   18  N   UNL     1     -10.187  16.970  67.472  1.00  0.00    -0.313 NA 
HETATM   19  H   UNL     1      -9.750  17.529  68.205  1.00  0.00     0.000 HD 
BRANCH  18  20
HETATM   20  C   UNL     1      -9.791  17.090  66.236  1.00  0.00    -0.294 C  
HETATM   21  C   UNL     1      -8.408  17.453  66.081  1.00  0.00    -0.182 C  
HETATM   22  C   UNL     1     -10.677  16.878  65.132  1.00  0.00    -0.103 C  
HETATM   23  N   UNL     1     -11.406  16.676  64.249  1.00  0.00    -1.093 NA 
HETATM   24  N   UNL     1      -7.289  17.727  65.938  1.00  0.00    -0.498 NA 
ENDBRANCH  18  20
ENDBRANCH  16  18
ENDBRANCH  13  16
ENDBRANCH   9  10
TORSDOF 4
ENDMDL
MODEL       93
REMARK 921   NORMALIZED FREE ENERGY PREDICTED BY IDOCK:   -5.22 KCAL/MOL
REMARK 922        TOTAL FREE ENERGY PREDICTED BY IDOCK:   -7.15 KCAL/MOL
REMARK 923 INTER-LIGAND FREE ENERGY PREDICTED BY IDOCK:   -6.63 KCAL/MOL
REMARK 924 INTRA-LIGAND FREE ENERGY PREDICTED BY IDOCK:   -0.52 KCAL/MOL
REMARK 927      BINDING AFFINITY PREDICTED BY RF-SCORE:    0.00 PKD
ROOT
HETATM    1  C   UNL     1     -12.276  13.481  63.925  1.00  0.00    -0.458 C  
HETATM    2  C   UNL     1     -10.816  13.237  64.315  1.00  0.00    -0.414 C  
HETATM    3  C   UNL     1     -10.413  11.803  63.987  1.00  0.00    -0.415 C  
HETATM    4  C   UNL     1     -10.231  10.887  65.159  1.00  0.00    -0.297 C  
HETATM    5  N   UNL     1     -10.252  11.441  66.402  1.00  0.00    -0.223 N  
HETATM    6  O   UNL     1     -10.034   9.681  65.005  1.00  0.00    -0.224 OA 
HETATM    7  H   UNL     1     -10.172  10.794  67.187  1.00  0.00     0.000 HD 
HETATM    8  N   UNL     1     -10.365  12.751  66.715  1.00  0.00    -0.238 NA 
HETATM    9  C   UNL     1     -10.593  13.619  65.777  1.00  0.00    -0.285 C  
ENDROOT
BRANCH   9  10
HETATM   10  C   UNL     1     -10.645  15.069  66.177  1.00  0.00    -0.314 A  
HETATM   11  C   UNL     1     -10.564  16.095  65.233  1.00  0.00    -0.390 A  
HETATM   12  C   UNL     1     -10.529  17.433  65.646  1.00  0.00    -0.173 A  
HETATM   13  C   UNL     1     -10.573  17.782  67.002  1.00  0.00    -0.262 A  
HETATM   14  C   UNL     1     -10.658  16.751  67.944  1.00  0.00    -0.350 A  
HETATM   15  C   UNL     1     -10.703  15.407  67.537  1.00  0.00    -0.295 A  
BRANCH  13  16
HETATM   16  N   UNL     1     -10.476  19.127  67.421  1.00  0.00    -0.431 NA 
HETATM   17  H   UNL     1     -10.982  19.475  68.237  1.00  0.00     0.000 HD 
BRANCH  16  18
HETATM   18  N   UNL     1      -9.667  19.940  66.673  1.00  0.00    -0.393 NA 
HETATM   19  H   UNL     1     -10.076  20.585  65.997  1.00  0.00     0.000 HD 
BRANCH  18  20
HETATM   20  C   UNL     1      -8.374  19.890  66.826  1.00  0.00    -0.322 C  
HETATM   21  C   UNL     1      -7.938  19.609  68.167  1.00  0.00    -0.318 C  
HETATM   22  C   UNL     1      -7.472  20.105  65.735  1.00  0.00    -0.251 C  
HETATM   23  N   UNL     1      -6.758  20.256  64.830  1.00  0.00    -0.297 NA 
HETATM   24  N   UNL     1      -7.568  19.365  69.241  1.00  0.00    -0.281 NA 
ENDBRANCH  18  20
ENDBRANCH  16  18
ENDBRANCH  13  16
ENDBRANCH   9  10
TORSDOF 4
ENDMDL
MODEL       94
REMARK 921   NORMALIZED FREE ENERGY PREDICTED BY IDOCK:   -5.19 KCAL/MOL
REMARK 922        TOTAL FREE ENERGY PREDICTED BY IDOCK:   -7.11 KCAL/MOL
REMARK 923 INTER-LIGAND FREE ENERGY PREDICTED BY IDOCK:   -6.74 KCAL/MOL
REMARK 924 INTRA-LIGAND FREE ENERGY PREDICTED BY IDOCK:   -0.37 KCAL/MOL
REMARK 927      BINDING AFFINITY PREDICTED BY RF-SCORE:    0.00 PKD
ROOT
HETATM    1  C   UNL     1     -11.037   6.615  67.154  1.00  0.00    -0.427 C  
HETATM    2  C   UNL     1     -10.014   6.844  68.270  1.00  0.00    -0.162 C  
HETATM    3  C   UNL     1      -9.507   5.509  68.806  1.00  0.00    -0.163 C  
HETATM    4  C   UNL     1      -9.986   5.126  70.173  1.00  0.00    -0.253 C  
HETATM    5  N   UNL     1     -10.665   6.063  70.890  1.00  0.00    -0.253 N  
HETATM    6  O   UNL     1      -9.745   4.016  70.648  1.00  0.00    -0.184 OA 
HETATM    7  H   UNL     1     -11.021   5.766  71.798  1.00  0.00     0.000 HD 
HETATM    8  N   UNL     1     -10.920   7.342  70.534  1.00  0.00    -0.254 NA 
HETATM    9  C   UNL     1     -10.605   7.754  69.344  1.00  0.00    -0.208 C  
ENDROOT
BRANCH   9  10
HETATM   10  C   UNL     1     -10.854   9.205  69.029  1.00  0.00    -0.115 A  
HETATM   11  C   UNL     1     -11.318  10.098  69.996  1.00  0.00    -0.351 A  
HETATM   12  C   UNL     1     -11.622  11.420  69.648  1.00  0.00    -0.399 A  
HETATM   13  C   UNL     1     -11.472  11.885  68.335  1.00  0.00    -0.299 A  
HETATM   14  C   UNL     1     -11.002  10.987  67.370  1.00  0.00    -0.349 A  
HETATM   15  C   UNL     1     -10.687   9.662  67.713  1.00  0.00    -0.316 A  
BRANCH  13  16
HETATM   16  N   UNL     1     -11.835  13.200  67.972  1.00  0.00    -0.362 NA 
HETATM   17  H   UNL     1     -12.758  13.581  68.182  1.00  0.00     0.000 HD 
BRANCH  16  18
HETATM   18  N   UNL     1     -10.881  13.937  67.322  1.00  0.00    -0.284 NA 
HETATM   19  H   UNL     1      -9.924  13.956  67.674  1.00  0.00     0.000 HD 
BRANCH  18  20
HETATM   20  C   UNL     1     -11.197  14.616  66.255  1.00  0.00    -0.340 C  
HETATM   21  C   UNL     1     -12.207  14.005  65.433  1.00  0.00    -0.439 C  
HETATM   22  C   UNL     1     -10.575  15.865  65.939  1.00  0.00    -0.337 C  
HETATM   23  N   UNL     1     -10.077  16.892  65.714  1.00  0.00    -0.558 NA 
HETATM   24  N   UNL     1     -13.034  13.536  64.767  1.00  0.00    -0.686 NA 
ENDBRANCH  18  20
ENDBRANCH  16  18
ENDBRANCH  13  16
ENDBRANCH   9  10
TORSDOF 4
ENDMDL
MODEL       95
REMARK 921   NORMALIZED FREE ENERGY PREDICTED BY IDOCK:   -5.19 KCAL/MOL
REMARK 922        TOTAL FREE ENERGY PREDICTED BY IDOCK:   -7.11 KCAL/MOL
REMARK 923 INTER-LIGAND FREE ENERGY PREDICTED BY IDOCK:   -6.47 KCAL/MOL
REMARK 924 INTRA-LIGAND FREE ENERGY PREDICTED BY IDOCK:   -0.64 KCAL/MOL
REMARK 927      BINDING AFFINITY PREDICTED BY RF-SCORE:    0.00 PKD
ROOT
HETATM    1  C   UNL     1     -10.776  19.298  67.551  1.00  0.00    -0.571 C  
HETATM    2  C   UNL     1      -9.553  18.773  68.307  1.00  0.00    -0.395 C  
HETATM    3  C   UNL     1      -8.675  19.934  68.765  1.00  0.00    -0.085 C  
HETATM    4  C   UNL     1      -7.377  20.103  68.036  1.00  0.00    -0.274 C  
HETATM    5  N   UNL     1      -7.005  19.118  67.174  1.00  0.00    -0.200 N  
HETATM    6  O   UNL     1      -6.654  21.080  68.235  1.00  0.00    -0.247 OA 
HETATM    7  H   UNL     1      -6.141  19.275  66.654  1.00  0.00     0.000 HD 
HETATM    8  N   UNL     1      -7.649  17.956  66.928  1.00  0.00    -0.201 NA 
HETATM    9  C   UNL     1      -8.814  17.741  67.458  1.00  0.00    -0.243 C  
ENDROOT
BRANCH   9  10
HETATM   10  C   UNL     1      -9.453  16.403  67.200  1.00  0.00    -0.238 A  
HETATM   11  C   UNL     1      -9.826  16.002  65.916  1.00  0.00    -0.380 A  
HETATM   12  C   UNL     1     -10.496  14.788  65.722  1.00  0.00    -0.348 A  
HETATM   13  C   UNL     1     -10.812  13.946  66.796  1.00  0.00    -0.286 A  
HETATM   14  C   UNL     1     -10.433  14.350  68.081  1.00  0.00    -0.237 A  
HETATM   15  C   UNL     1      -9.752  15.562  68.282  1.00  0.00    -0.201 A  
BRANCH  13  16
HETATM   16  N   UNL     1     -11.542  12.752  66.607  1.00  0.00    -0.350 NA 
HETATM   17  H   UNL     1     -12.524  12.674  66.872  1.00  0.00     0.000 HD 
BRANCH  16  18
HETATM   18  N   UNL     1     -10.859  11.704  66.050  1.00  0.00    -0.285 NA 
HETATM   19  H   UNL     1     -10.254  11.122  66.630  1.00  0.00     0.000 HD 
BRANCH  18  20
HETATM   20  C   UNL     1     -10.982  11.450  64.777  1.00  0.00    -0.234 C  
HETATM   21  C   UNL     1      -9.958  10.599  64.233  1.00  0.00    -0.349 C  
HETATM   22  C   UNL     1     -12.055  11.987  63.997  1.00  0.00    -0.406 C  
HETATM   23  N   UNL     1     -12.948  12.413  63.387  1.00  0.00    -0.690 NA 
HETATM   24  N   UNL     1      -9.150   9.898  63.781  1.00  0.00    -0.250 NA 
ENDBRANCH  18  20
ENDBRANCH  16  18
ENDBRANCH  13  16
ENDBRANCH   9  10
TORSDOF 4
ENDMDL
MODEL       96
REMARK 921   NORMALIZED FREE ENERGY PREDICTED BY IDOCK:   -5.17 KCAL/MOL
REMARK 922        TOTAL FREE ENERGY PREDICTED BY IDOCK:   -7.08 KCAL/MOL
REMARK 923 INTER-LIGAND FREE ENERGY PREDICTED BY IDOCK:   -6.56 KCAL/MOL
REMARK 924 INTRA-LIGAND FREE ENERGY PREDICTED BY IDOCK:   -0.52 KCAL/MOL
REMARK 927      BINDING AFFINITY PREDICTED BY RF-SCORE:    0.00 PKD
ROOT
HETATM    1  C   UNL     1     -11.910  12.240  64.318  1.00  0.00    -0.482 C  
HETATM    2  C   UNL     1     -10.551  11.979  64.973  1.00  0.00    -0.332 C  
HETATM    3  C   UNL     1     -10.234  10.487  64.961  1.00  0.00    -0.365 C  
HETATM    4  C   UNL     1     -10.309   9.789  66.284  1.00  0.00    -0.165 C  
HETATM    5  N   UNL     1     -10.462  10.558  67.396  1.00  0.00    -0.227 N  
HETATM    6  O   UNL     1     -10.200   8.565  66.369  1.00  0.00    -0.273 OA 
HETATM    7  H   UNL     1     -10.556  10.060  68.281  1.00  0.00     0.000 HD 
HETATM    8  N   UNL     1     -10.503  11.907  67.461  1.00  0.00    -0.205 NA 
HETATM    9  C   UNL     1     -10.511  12.605  66.366  1.00  0.00    -0.249 C  
ENDROOT
BRANCH   9  10
HETATM   10  C   UNL     1     -10.492  14.103  66.502  1.00  0.00    -0.280 A  
HETATM   11  C   UNL     1     -10.092  14.931  65.451  1.00  0.00    -0.400 A  
HETATM   12  C   UNL     1     -10.003  16.316  65.639  1.00  0.00    -0.306 A  
HETATM   13  C   UNL     1     -10.309  16.910  66.871  1.00  0.00    -0.304 A  
HETATM   14  C   UNL     1     -10.713  16.076  67.920  1.00  0.00    -0.316 A  
HETATM   15  C   UNL     1     -10.813  14.687  67.736  1.00  0.00    -0.268 A  
BRANCH  13  16
HETATM   16  N   UNL     1     -10.160  18.299  67.077  1.00  0.00    -0.341 NA 
HETATM   17  H   UNL     1     -10.604  18.985  66.465  1.00  0.00     0.000 HD 
BRANCH  16  18
HETATM   18  N   UNL     1      -9.389  18.676  68.144  1.00  0.00    -0.307 NA 
HETATM   19  H   UNL     1      -9.797  18.722  69.078  1.00  0.00     0.000 HD 
BRANCH  18  20
HETATM   20  C   UNL     1      -8.134  18.977  67.966  1.00  0.00    -0.295 C  
HETATM   21  C   UNL     1      -7.664  18.820  66.617  1.00  0.00    -0.248 C  
HETATM   22  C   UNL     1      -7.301  19.423  69.042  1.00  0.00    -0.360 C  
HETATM   23  N   UNL     1      -6.649  19.809  69.924  1.00  0.00    -0.328 NA 
HETATM   24  N   UNL     1      -7.272  18.717  65.528  1.00  0.00    -0.513 NA 
ENDBRANCH  18  20
ENDBRANCH  16  18
ENDBRANCH  13  16
ENDBRANCH   9  10
TORSDOF 4
ENDMDL
MODEL       97
REMARK 921   NORMALIZED FREE ENERGY PREDICTED BY IDOCK:   -5.16 KCAL/MOL
REMARK 922        TOTAL FREE ENERGY PREDICTED BY IDOCK:   -7.08 KCAL/MOL
REMARK 923 INTER-LIGAND FREE ENERGY PREDICTED BY IDOCK:   -6.59 KCAL/MOL
REMARK 924 INTRA-LIGAND FREE ENERGY PREDICTED BY IDOCK:   -0.49 KCAL/MOL
REMARK 927      BINDING AFFINITY PREDICTED BY RF-SCORE:    0.00 PKD
ROOT
HETATM    1  C   UNL     1     -11.656  15.051  68.048  1.00  0.00    -0.356 C  
HETATM    2  C   UNL     1     -11.069  14.264  66.873  1.00  0.00    -0.315 C  
HETATM    3  C   UNL     1     -11.239  15.045  65.574  1.00  0.00    -0.344 C  
HETATM    4  C   UNL     1     -12.259  14.511  64.615  1.00  0.00    -0.460 C  
HETATM    5  N   UNL     1     -12.804  13.294  64.886  1.00  0.00    -0.732 N  
HETATM    6  O   UNL     1     -12.569  15.133  63.598  1.00  0.00    -0.614 OA 
HETATM    7  H   UNL     1     -13.529  12.970  64.246  1.00  0.00     0.000 HD 
HETATM    8  N   UNL     1     -12.493  12.465  65.907  1.00  0.00    -0.462 NA 
HETATM    9  C   UNL     1     -11.670  12.860  66.830  1.00  0.00    -0.383 C  
ENDROOT
BRANCH   9  10
HETATM   10  C   UNL     1     -11.312  11.871  67.906  1.00  0.00    -0.358 A  
HETATM   11  C   UNL     1     -10.263  10.963  67.751  1.00  0.00    -0.209 A  
HETATM   12  C   UNL     1     -10.012   9.999  68.735  1.00  0.00    -0.181 A  
HETATM   13  C   UNL     1     -10.795   9.914  69.893  1.00  0.00    -0.278 A  
HETATM   14  C   UNL     1     -11.844  10.828  70.046  1.00  0.00    -0.424 A  
HETATM   15  C   UNL     1     -12.096  11.803  69.068  1.00  0.00    -0.276 A  
BRANCH  13  16
HETATM   16  N   UNL     1     -10.581   8.903  70.856  1.00  0.00    -0.216 NA 
HETATM   17  H   UNL     1     -11.210   8.105  70.949  1.00  0.00     0.000 HD 
BRANCH  16  18
HETATM   18  N   UNL     1      -9.481   9.052  71.659  1.00  0.00    -0.300 NA 
HETATM   19  H   UNL     1      -9.459   9.791  72.362  1.00  0.00     0.000 HD 
BRANCH  18  20
HETATM   20  C   UNL     1      -8.463   8.249  71.525  1.00  0.00    -0.140 C  
HETATM   21  C   UNL     1      -7.179   8.873  71.696  1.00  0.00    -0.028 C  
HETATM   22  C   UNL     1      -8.628   6.859  71.224  1.00  0.00    -0.123 C  
HETATM   23  N   UNL     1      -8.785   5.728  71.006  1.00  0.00    -0.133 NA 
HETATM   24  N   UNL     1      -6.135   9.357  71.851  1.00  0.00    -0.260 NA 
ENDBRANCH  18  20
ENDBRANCH  16  18
ENDBRANCH  13  16
ENDBRANCH   9  10
TORSDOF 4
ENDMDL
MODEL       98
REMARK 921   NORMALIZED FREE ENERGY PREDICTED BY IDOCK:   -5.15 KCAL/MOL
REMARK 922        TOTAL FREE ENERGY PREDICTED BY IDOCK:   -7.06 KCAL/MOL
REMARK 923 INTER-LIGAND FREE ENERGY PREDICTED BY IDOCK:   -6.50 KCAL/MOL
REMARK 924 INTRA-LIGAND FREE ENERGY PREDICTED BY IDOCK:   -0.57 KCAL/MOL
REMARK 927      BINDING AFFINITY PREDICTED BY RF-SCORE:    0.00 PKD
ROOT
HETATM    1  C   UNL     1      -9.358   8.321  69.737  1.00  0.00    -0.158 C  
HETATM    2  C   UNL     1     -10.503   7.978  68.781  1.00  0.00    -0.196 C  
HETATM    3  C   UNL     1     -10.399   6.524  68.331  1.00  0.00    -0.220 C  
HETATM    4  C   UNL     1      -9.976   6.304  66.911  1.00  0.00    -0.169 C  
HETATM    5  N   UNL     1      -9.903   7.393  66.098  1.00  0.00    -0.435 N  
HETATM    6  O   UNL     1      -9.735   5.175  66.482  1.00  0.00    -0.143 OA 
HETATM    7  H   UNL     1      -9.569   7.227  65.149  1.00  0.00     0.000 HD 
HETATM    8  N   UNL     1     -10.225   8.669  66.406  1.00  0.00    -0.242 NA 
HETATM    9  C   UNL     1     -10.541   8.977  67.627  1.00  0.00    -0.231 C  
ENDROOT
BRANCH   9  10
HETATM   10  C   UNL     1     -10.952  10.400  67.895  1.00  0.00    -0.354 A  
HETATM   11  C   UNL     1     -11.522  10.783  69.111  1.00  0.00    -0.368 A  
HETATM   12  C   UNL     1     -11.972  12.096  69.296  1.00  0.00    -0.318 A  
HETATM   13  C   UNL     1     -11.867  13.057  68.282  1.00  0.00    -0.343 A  
HETATM   14  C   UNL     1     -11.291  12.669  67.067  1.00  0.00    -0.377 A  
HETATM   15  C   UNL     1     -10.829  11.357  66.877  1.00  0.00    -0.335 A  
BRANCH  13  16
HETATM   16  N   UNL     1     -12.376  14.364  68.448  1.00  0.00    -0.599 NA 
HETATM   17  H   UNL     1     -13.375  14.543  68.555  1.00  0.00     0.000 HD 
BRANCH  16  18
HETATM   18  N   UNL     1     -11.455  15.378  68.458  1.00  0.00    -0.335 NA 
HETATM   19  H   UNL     1     -11.349  15.979  67.641  1.00  0.00     0.000 HD 
BRANCH  18  20
HETATM   20  C   UNL     1     -10.715  15.575  69.512  1.00  0.00    -0.272 C  
HETATM   21  C   UNL     1     -11.448  15.823  70.724  1.00  0.00    -0.393 C  
HETATM   22  C   UNL     1      -9.285  15.547  69.450  1.00  0.00    -0.280 C  
HETATM   23  N   UNL     1      -8.125  15.495  69.383  1.00  0.00    -0.245 NA 
HETATM   24  N   UNL     1     -12.024  16.006  71.715  1.00  0.00    -0.487 NA 
ENDBRANCH  18  20
ENDBRANCH  16  18
ENDBRANCH  13  16
ENDBRANCH   9  10
TORSDOF 4
ENDMDL
MODEL       99
REMARK 921   NORMALIZED FREE ENERGY PREDICTED BY IDOCK:   -5.13 KCAL/MOL
REMARK 922        TOTAL FREE ENERGY PREDICTED BY IDOCK:   -7.04 KCAL/MOL
REMARK 923 INTER-LIGAND FREE ENERGY PREDICTED BY IDOCK:   -6.35 KCAL/MOL
REMARK 924 INTRA-LIGAND FREE ENERGY PREDICTED BY IDOCK:   -0.68 KCAL/MOL
REMARK 927      BINDING AFFINITY PREDICTED BY RF-SCORE:    0.00 PKD
ROOT
HETATM    1  C   UNL     1      -7.429   8.858  67.776  1.00  0.00    -0.093 C  
HETATM    2  C   UNL     1      -8.402   7.735  68.146  1.00  0.00    -0.124 C  
HETATM    3  C   UNL     1      -7.925   6.408  67.563  1.00  0.00    -0.116 C  
HETATM    4  C   UNL     1      -8.720   5.873  66.412  1.00  0.00    -0.131 C  
HETATM    5  N   UNL     1      -9.889   6.500  66.107  1.00  0.00    -0.399 N  
HETATM    6  O   UNL     1      -8.350   4.880  65.784  1.00  0.00    -0.111 OA 
HETATM    7  H   UNL     1     -10.391   6.148  65.291  1.00  0.00     0.000 HD 
HETATM    8  N   UNL     1     -10.461   7.535  66.761  1.00  0.00    -0.294 NA 
HETATM    9  C   UNL     1      -9.822   8.114  67.733  1.00  0.00    -0.166 C  
ENDROOT
BRANCH   9  10
HETATM   10  C   UNL     1     -10.535   9.218  68.466  1.00  0.00    -0.240 A  
HETATM   11  C   UNL     1     -11.025  10.344  67.801  1.00  0.00    -0.369 A  
HETATM   12  C   UNL     1     -11.606  11.392  68.525  1.00  0.00    -0.384 A  
HETATM   13  C   UNL     1     -11.716  11.347  69.920  1.00  0.00    -0.346 A  
HETATM   14  C   UNL     1     -11.228  10.215  70.582  1.00  0.00    -0.418 A  
HETATM   15  C   UNL     1     -10.651   9.155  69.862  1.00  0.00    -0.246 A  
BRANCH  13  16
HETATM   16  N   UNL     1     -12.247  12.431  70.654  1.00  0.00    -0.427 NA 
HETATM   17  H   UNL     1     -13.081  12.331  71.234  1.00  0.00     0.000 HD 
BRANCH  16  18
HETATM   18  N   UNL     1     -11.582  13.623  70.547  1.00  0.00    -0.517 NA 
HETATM   19  H   UNL     1     -10.586  13.673  70.763  1.00  0.00     0.000 HD 
BRANCH  18  20
HETATM   20  C   UNL     1     -12.221  14.693  70.168  1.00  0.00    -0.335 C  
HETATM   21  C   UNL     1     -11.678  15.336  69.001  1.00  0.00    -0.347 C  
HETATM   22  C   UNL     1     -13.368  15.181  70.871  1.00  0.00    -0.408 C  
HETATM   23  N   UNL     1     -14.314  15.545  71.442  1.00  0.00    -0.540 NA 
HETATM   24  N   UNL     1     -11.264  15.857  68.049  1.00  0.00    -0.340 NA 
ENDBRANCH  18  20
ENDBRANCH  16  18
ENDBRANCH  13  16
ENDBRANCH   9  10
TORSDOF 4
ENDMDL
MODEL      100
REMARK 921   NORMALIZED FREE ENERGY PREDICTED BY IDOCK:   -5.12 KCAL/MOL
REMARK 922        TOTAL FREE ENERGY PREDICTED BY IDOCK:   -7.03 KCAL/MOL
REMARK 923 INTER-LIGAND FREE ENERGY PREDICTED BY IDOCK:   -6.39 KCAL/MOL
REMARK 924 INTRA-LIGAND FREE ENERGY PREDICTED BY IDOCK:   -0.64 KCAL/MOL
REMARK 927      BINDING AFFINITY PREDICTED BY RF-SCORE:    0.00 PKD
ROOT
HETATM    1  C   UNL     1      -9.564   8.975  69.108  1.00  0.00    -0.161 C  
HETATM    2  C   UNL     1     -10.408   8.532  67.909  1.00  0.00    -0.281 C  
HETATM    3  C   UNL     1     -10.236   7.036  67.664  1.00  0.00    -0.245 C  
HETATM    4  C   UNL     1      -9.440   6.656  66.453  1.00  0.00    -0.123 C  
HETATM    5  N   UNL     1      -9.103   7.647  65.583  1.00  0.00    -0.391 N  
HETATM    6  O   UNL     1      -9.130   5.485  66.232  1.00  0.00    -0.137 OA 
HETATM    7  H   UNL     1      -8.522   7.374  64.790  1.00  0.00     0.000 HD 
HETATM    8  N   UNL     1      -9.450   8.951  65.650  1.00  0.00    -0.206 NA 
HETATM    9  C   UNL     1     -10.084   9.396  66.692  1.00  0.00    -0.262 C  
ENDROOT
BRANCH   9  10
HETATM   10  C   UNL     1     -10.501  10.842  66.681  1.00  0.00    -0.302 A  
HETATM   11  C   UNL     1      -9.903  11.772  65.829  1.00  0.00    -0.267 A  
HETATM   12  C   UNL     1     -10.254  13.126  65.905  1.00  0.00    -0.294 A  
HETATM   13  C   UNL     1     -11.205  13.586  66.825  1.00  0.00    -0.310 A  
HETATM   14  C   UNL     1     -11.805  12.649  67.674  1.00  0.00    -0.390 A  
HETATM   15  C   UNL     1     -11.464  11.289  67.598  1.00  0.00    -0.341 A  
BRANCH  13  16
HETATM   16  N   UNL     1     -11.514  14.959  66.943  1.00  0.00    -0.341 NA 
HETATM   17  H   UNL     1     -12.452  15.317  66.760  1.00  0.00     0.000 HD 
BRANCH  16  18
HETATM   18  N   UNL     1     -10.487  15.784  67.316  1.00  0.00    -0.302 NA 
HETATM   19  H   UNL     1      -9.959  15.589  68.167  1.00  0.00     0.000 HD 
BRANCH  18  20
HETATM   20  C   UNL     1     -10.183  16.818  66.584  1.00  0.00    -0.309 C  
HETATM   21  C   UNL     1     -10.827  16.855  65.299  1.00  0.00    -0.104 C  
HETATM   22  C   UNL     1      -9.275  17.828  67.037  1.00  0.00    -0.255 C  
HETATM   23  N   UNL     1      -8.555  18.650  67.435  1.00  0.00    -0.267 NA 
HETATM   24  N   UNL     1     -11.352  16.909  64.265  1.00  0.00    -1.103 NA 
ENDBRANCH  18  20
ENDBRANCH  16  18
ENDBRANCH  13  16
ENDBRANCH   9  10
TORSDOF 4
ENDMDL
MODEL      101
REMARK 921   NORMALIZED FREE ENERGY PREDICTED BY IDOCK:   -5.12 KCAL/MOL
REMARK 922        TOTAL FREE ENERGY PREDICTED BY IDOCK:   -7.03 KCAL/MOL
REMARK 923 INTER-LIGAND FREE ENERGY PREDICTED BY IDOCK:   -6.41 KCAL/MOL
REMARK 924 INTRA-LIGAND FREE ENERGY PREDICTED BY IDOCK:   -0.62 KCAL/MOL
REMARK 927      BINDING AFFINITY PREDICTED BY RF-SCORE:    0.00 PKD
ROOT
HETATM    1  C   UNL     1     -12.039  13.196  65.727  1.00  0.00    -0.502 C  
HETATM    2  C   UNL     1     -11.488  14.029  66.887  1.00  0.00    -0.373 C  
HETATM    3  C   UNL     1     -10.990  15.378  66.380  1.00  0.00    -0.277 C  
HETATM    4  C   UNL     1      -9.504  15.564  66.357  1.00  0.00    -0.291 C  
HETATM    5  N   UNL     1      -8.739  14.610  66.955  1.00  0.00    -0.278 N  
HETATM    6  O   UNL     1      -8.990  16.562  65.848  1.00  0.00    -0.461 OA 
HETATM    7  H   UNL     1      -7.728  14.733  66.887  1.00  0.00     0.000 HD 
HETATM    8  N   UNL     1      -9.166  13.519  67.628  1.00  0.00    -0.204 NA 
HETATM    9  C   UNL     1     -10.432  13.231  67.651  1.00  0.00    -0.229 C  
ENDROOT
BRANCH   9  10
HETATM   10  C   UNL     1     -10.855  12.041  68.469  1.00  0.00    -0.267 A  
HETATM   11  C   UNL     1     -11.517  12.187  69.689  1.00  0.00    -0.308 A  
HETATM   12  C   UNL     1     -11.819  11.062  70.467  1.00  0.00    -0.464 A  
HETATM   13  C   UNL     1     -11.472   9.770  70.052  1.00  0.00    -0.180 A  
HETATM   14  C   UNL     1     -10.811   9.628  68.826  1.00  0.00    -0.199 A  
HETATM   15  C   UNL     1     -10.513  10.751  68.037  1.00  0.00    -0.225 A  
BRANCH  13  16
HETATM   16  N   UNL     1     -11.722   8.641  70.864  1.00  0.00    -0.339 NA 
HETATM   17  H   UNL     1     -12.259   7.843  70.525  1.00  0.00     0.000 HD 
BRANCH  16  18
HETATM   18  N   UNL     1     -11.204   8.678  72.131  1.00  0.00    -0.364 NA 
HETATM   19  H   UNL     1     -11.434   9.452  72.754  1.00  0.00     0.000 HD 
BRANCH  18  20
HETATM   20  C   UNL     1     -10.418   7.723  72.541  1.00  0.00    -0.284 C  
HETATM   21  C   UNL     1      -9.095   8.150  72.909  1.00  0.00    -0.267 C  
HETATM   22  C   UNL     1     -10.851   6.360  72.607  1.00  0.00    -0.240 C  
HETATM   23  N   UNL     1     -11.230   5.263  72.679  1.00  0.00    -0.263 NA 
HETATM   24  N   UNL     1      -8.029   8.481  73.229  1.00  0.00    -0.398 NA 
ENDBRANCH  18  20
ENDBRANCH  16  18
ENDBRANCH  13  16
ENDBRANCH   9  10
TORSDOF 4
ENDMDL
MODEL      102
REMARK 921   NORMALIZED FREE ENERGY PREDICTED BY IDOCK:   -5.12 KCAL/MOL
REMARK 922        TOTAL FREE ENERGY PREDICTED BY IDOCK:   -7.03 KCAL/MOL
REMARK 923 INTER-LIGAND FREE ENERGY PREDICTED BY IDOCK:   -6.23 KCAL/MOL
REMARK 924 INTRA-LIGAND FREE ENERGY PREDICTED BY IDOCK:   -0.80 KCAL/MOL
REMARK 927      BINDING AFFINITY PREDICTED BY RF-SCORE:    0.00 PKD
ROOT
HETATM    1  C   UNL     1     -10.882  19.340  67.385  1.00  0.00    -0.554 C  
HETATM    2  C   UNL     1      -9.512  18.805  67.811  1.00  0.00    -0.333 C  
HETATM    3  C   UNL     1      -8.430  19.846  67.542  1.00  0.00    -0.378 C  
HETATM    4  C   UNL     1      -7.501  19.549  66.405  1.00  0.00    -0.266 C  
HETATM    5  N   UNL     1      -7.573  18.315  65.837  1.00  0.00    -0.186 N  
HETATM    6  O   UNL     1      -6.675  20.378  66.019  1.00  0.00    -0.231 OA 
HETATM    7  H   UNL     1      -6.964  18.150  65.035  1.00  0.00     0.000 HD 
HETATM    8  N   UNL     1      -8.359  17.283  66.214  1.00  0.00    -0.410 NA 
HETATM    9  C   UNL     1      -9.246  17.456  67.146  1.00  0.00    -0.237 C  
ENDROOT
BRANCH   9  10
HETATM   10  C   UNL     1     -10.048  16.254  67.568  1.00  0.00    -0.258 A  
HETATM   11  C   UNL     1     -10.393  16.033  68.902  1.00  0.00    -0.235 A  
HETATM   12  C   UNL     1     -11.065  14.862  69.272  1.00  0.00    -0.284 A  
HETATM   13  C   UNL     1     -11.408  13.885  68.329  1.00  0.00    -0.294 A  
HETATM   14  C   UNL     1     -11.063  14.112  66.992  1.00  0.00    -0.314 A  
HETATM   15  C   UNL     1     -10.398  15.289  66.612  1.00  0.00    -0.281 A  
BRANCH  13  16
HETATM   16  N   UNL     1     -12.031  12.676  68.711  1.00  0.00    -0.289 NA 
HETATM   17  H   UNL     1     -12.862  12.325  68.235  1.00  0.00     0.000 HD 
BRANCH  16  18
HETATM   18  N   UNL     1     -11.458  12.001  69.756  1.00  0.00    -0.476 NA 
HETATM   19  H   UNL     1     -11.315  12.470  70.650  1.00  0.00     0.000 HD 
BRANCH  18  20
HETATM   20  C   UNL     1     -11.096  10.758  69.607  1.00  0.00    -0.279 C  
HETATM   21  C   UNL     1     -11.139  10.277  68.252  1.00  0.00    -0.254 C  
HETATM   22  C   UNL     1     -10.693   9.947  70.716  1.00  0.00    -0.280 C  
HETATM   23  N   UNL     1     -10.345   9.314  71.627  1.00  0.00    -0.315 NA 
HETATM   24  N   UNL     1     -11.150   9.878  67.162  1.00  0.00    -0.072 NA 
ENDBRANCH  18  20
ENDBRANCH  16  18
ENDBRANCH  13  16
ENDBRANCH   9  10
TORSDOF 4
ENDMDL
MODEL      103
REMARK 921   NORMALIZED FREE ENERGY PREDICTED BY IDOCK:   -5.09 KCAL/MOL
REMARK 922        TOTAL FREE ENERGY PREDICTED BY IDOCK:   -6.99 KCAL/MOL
REMARK 923 INTER-LIGAND FREE ENERGY PREDICTED BY IDOCK:   -6.34 KCAL/MOL
REMARK 924 INTRA-LIGAND FREE ENERGY PREDICTED BY IDOCK:   -0.65 KCAL/MOL
REMARK 927      BINDING AFFINITY PREDICTED BY RF-SCORE:    0.00 PKD
ROOT
HETATM    1  C   UNL     1     -11.161   6.397  67.889  1.00  0.00    -0.370 C  
HETATM    2  C   UNL     1      -9.744   6.874  68.218  1.00  0.00    -0.132 C  
HETATM    3  C   UNL     1      -9.097   5.947  69.242  1.00  0.00    -0.128 C  
HETATM    4  C   UNL     1      -8.936   6.504  70.623  1.00  0.00    -0.148 C  
HETATM    5  N   UNL     1      -9.198   7.827  70.805  1.00  0.00    -0.156 N  
HETATM    6  O   UNL     1      -8.547   5.800  71.556  1.00  0.00    -0.130 OA 
HETATM    7  H   UNL     1      -9.126   8.175  71.761  1.00  0.00     0.000 HD 
HETATM    8  N   UNL     1      -9.541   8.732  69.862  1.00  0.00    -0.173 NA 
HETATM    9  C   UNL     1      -9.769   8.340  68.646  1.00  0.00    -0.156 C  
ENDROOT
BRANCH   9  10
HETATM   10  C   UNL     1     -10.084   9.401  67.626  1.00  0.00    -0.262 A  
HETATM   11  C   UNL     1      -9.464   9.425  66.375  1.00  0.00    -0.259 A  
HETATM   12  C   UNL     1      -9.715  10.475  65.483  1.00  0.00    -0.298 A  
HETATM   13  C   UNL     1     -10.586  11.522  65.811  1.00  0.00    -0.263 A  
HETATM   14  C   UNL     1     -11.208  11.492  67.064  1.00  0.00    -0.365 A  
HETATM   15  C   UNL     1     -10.968  10.437  67.960  1.00  0.00    -0.347 A  
BRANCH  13  16
HETATM   16  N   UNL     1     -10.792  12.612  64.936  1.00  0.00    -0.287 NA 
HETATM   17  H   UNL     1     -11.482  12.576  64.185  1.00  0.00     0.000 HD 
BRANCH  16  18
HETATM   18  N   UNL     1     -10.016  13.719  65.151  1.00  0.00    -0.579 NA 
HETATM   19  H   UNL     1      -9.019  13.693  64.939  1.00  0.00     0.000 HD 
BRANCH  18  20
HETATM   20  C   UNL     1     -10.553  14.808  65.628  1.00  0.00    -0.340 C  
HETATM   21  C   UNL     1     -11.055  15.715  64.632  1.00  0.00    -0.373 C  
HETATM   22  C   UNL     1     -10.623  15.066  67.034  1.00  0.00    -0.293 C  
HETATM   23  N   UNL     1     -10.694  15.244  68.181  1.00  0.00    -0.251 NA 
HETATM   24  N   UNL     1     -11.484  16.451  63.842  1.00  0.00    -1.031 NA 
ENDBRANCH  18  20
ENDBRANCH  16  18
ENDBRANCH  13  16
ENDBRANCH   9  10
TORSDOF 4
ENDMDL
MODEL      104
REMARK 921   NORMALIZED FREE ENERGY PREDICTED BY IDOCK:   -5.09 KCAL/MOL
REMARK 922        TOTAL FREE ENERGY PREDICTED BY IDOCK:   -6.99 KCAL/MOL
REMARK 923 INTER-LIGAND FREE ENERGY PREDICTED BY IDOCK:   -6.60 KCAL/MOL
REMARK 924 INTRA-LIGAND FREE ENERGY PREDICTED BY IDOCK:   -0.39 KCAL/MOL
REMARK 927      BINDING AFFINITY PREDICTED BY RF-SCORE:    0.00 PKD
ROOT
HETATM    1  C   UNL     1     -13.741  10.428  72.086  1.00  0.00    -0.077 C  
HETATM    2  C   UNL     1     -13.146   9.570  70.967  1.00  0.00    -0.263 C  
HETATM    3  C   UNL     1     -13.056   8.112  71.408  1.00  0.00    -0.248 C  
HETATM    4  C   UNL     1     -11.679   7.595  71.691  1.00  0.00    -0.281 C  
HETATM    5  N   UNL     1     -10.625   8.388  71.356  1.00  0.00    -0.221 N  
HETATM    6  O   UNL     1     -11.502   6.476  72.176  1.00  0.00    -0.265 OA 
HETATM    7  H   UNL     1      -9.699   8.036  71.599  1.00  0.00     0.000 HD 
HETATM    8  N   UNL     1     -10.667   9.589  70.738  1.00  0.00    -0.296 NA 
HETATM    9  C   UNL     1     -11.812  10.156  70.508  1.00  0.00    -0.321 C  
ENDROOT
BRANCH   9  10
HETATM   10  C   UNL     1     -11.798  11.461  69.759  1.00  0.00    -0.435 A  
HETATM   11  C   UNL     1     -12.116  12.669  70.383  1.00  0.00    -0.381 A  
HETATM   12  C   UNL     1     -12.177  13.854  69.638  1.00  0.00    -0.374 A  
HETATM   13  C   UNL     1     -11.926  13.866  68.260  1.00  0.00    -0.357 A  
HETATM   14  C   UNL     1     -11.604  12.653  67.640  1.00  0.00    -0.414 A  
HETATM   15  C   UNL     1     -11.531  11.463  68.382  1.00  0.00    -0.367 A  
BRANCH  13  16
HETATM   16  N   UNL     1     -12.047  15.049  67.498  1.00  0.00    -0.402 NA 
HETATM   17  H   UNL     1     -12.436  15.044  66.555  1.00  0.00     0.000 HD 
BRANCH  16  18
HETATM   18  N   UNL     1     -11.616  16.204  68.095  1.00  0.00    -0.224 NA 
HETATM   19  H   UNL     1     -12.144  16.606  68.870  1.00  0.00     0.000 HD 
BRANCH  18  20
HETATM   20  C   UNL     1     -10.530  16.788  67.674  1.00  0.00    -0.328 C  
HETATM   21  C   UNL     1     -10.408  18.171  68.050  1.00  0.00    -0.391 C  
HETATM   22  C   UNL     1      -9.550  16.096  66.894  1.00  0.00    -0.230 C  
HETATM   23  N   UNL     1      -8.753  15.508  66.284  1.00  0.00    -0.300 NA 
HETATM   24  N   UNL     1     -10.283  19.283  68.361  1.00  0.00    -0.418 NA 
ENDBRANCH  18  20
ENDBRANCH  16  18
ENDBRANCH  13  16
ENDBRANCH   9  10
TORSDOF 4
ENDMDL
MODEL      105
REMARK 921   NORMALIZED FREE ENERGY PREDICTED BY IDOCK:   -5.05 KCAL/MOL
REMARK 922        TOTAL FREE ENERGY PREDICTED BY IDOCK:   -6.93 KCAL/MOL
REMARK 923 INTER-LIGAND FREE ENERGY PREDICTED BY IDOCK:   -6.30 KCAL/MOL
REMARK 924 INTRA-LIGAND FREE ENERGY PREDICTED BY IDOCK:   -0.63 KCAL/MOL
REMARK 927      BINDING AFFINITY PREDICTED BY RF-SCORE:    0.00 PKD
ROOT
HETATM    1  C   UNL     1      -9.027   9.500  70.308  1.00  0.00    -0.288 C  
HETATM    2  C   UNL     1     -10.452   9.154  69.868  1.00  0.00    -0.239 C  
HETATM    3  C   UNL     1     -10.769   7.699  70.199  1.00  0.00    -0.245 C  
HETATM    4  C   UNL     1     -10.846   6.761  69.034  1.00  0.00    -0.249 C  
HETATM    5  N   UNL     1     -10.818   7.303  67.785  1.00  0.00    -0.461 N  
HETATM    6  O   UNL     1     -10.967   5.546  69.196  1.00  0.00    -0.225 OA 
HETATM    7  H   UNL     1     -10.825   6.644  67.007  1.00  0.00     0.000 HD 
HETATM    8  N   UNL     1     -10.781   8.614  67.460  1.00  0.00    -0.211 NA 
HETATM    9  C   UNL     1     -10.647   9.505  68.395  1.00  0.00    -0.219 C  
ENDROOT
BRANCH   9  10
HETATM   10  C   UNL     1     -10.677  10.951  67.979  1.00  0.00    -0.263 A  
HETATM   11  C   UNL     1     -11.716  11.803  68.359  1.00  0.00    -0.389 A  
HETATM   12  C   UNL     1     -11.758  13.120  67.883  1.00  0.00    -0.398 A  
HETATM   13  C   UNL     1     -10.773  13.620  67.021  1.00  0.00    -0.278 A  
HETATM   14  C   UNL     1      -9.732  12.763  66.646  1.00  0.00    -0.252 A  
HETATM   15  C   UNL     1      -9.678  11.444  67.126  1.00  0.00    -0.200 A  
BRANCH  13  16
HETATM   16  N   UNL     1     -10.849  14.927  66.494  1.00  0.00    -0.317 NA 
HETATM   17  H   UNL     1     -11.511  15.173  65.757  1.00  0.00     0.000 HD 
BRANCH  16  18
HETATM   18  N   UNL     1      -9.986  15.849  67.025  1.00  0.00    -0.242 NA 
HETATM   19  H   UNL     1      -8.983  15.763  66.860  1.00  0.00     0.000 HD 
BRANCH  18  20
HETATM   20  C   UNL     1     -10.447  16.834  67.743  1.00  0.00    -0.335 C  
HETATM   21  C   UNL     1     -10.844  16.472  69.077  1.00  0.00    -0.329 C  
HETATM   22  C   UNL     1     -10.548  18.166  67.227  1.00  0.00    -0.367 C  
HETATM   23  N   UNL     1     -10.597  19.245  66.797  1.00  0.00    -0.436 NA 
HETATM   24  N   UNL     1     -11.151  16.201  70.163  1.00  0.00    -0.359 NA 
ENDBRANCH  18  20
ENDBRANCH  16  18
ENDBRANCH  13  16
ENDBRANCH   9  10
TORSDOF 4
ENDMDL
MODEL      106
REMARK 921   NORMALIZED FREE ENERGY PREDICTED BY IDOCK:   -5.04 KCAL/MOL
REMARK 922        TOTAL FREE ENERGY PREDICTED BY IDOCK:   -6.93 KCAL/MOL
REMARK 923 INTER-LIGAND FREE ENERGY PREDICTED BY IDOCK:   -6.71 KCAL/MOL
REMARK 924 INTRA-LIGAND FREE ENERGY PREDICTED BY IDOCK:   -0.22 KCAL/MOL
REMARK 927      BINDING AFFINITY PREDICTED BY RF-SCORE:    0.00 PKD
ROOT
HETATM    1  C   UNL     1     -11.716  13.753  67.514  1.00  0.00    -0.410 C  
HETATM    2  C   UNL     1     -10.800  13.925  66.300  1.00  0.00    -0.290 C  
HETATM    3  C   UNL     1     -10.959  15.324  65.712  1.00  0.00    -0.340 C  
HETATM    4  C   UNL     1     -11.679  15.408  64.401  1.00  0.00    -0.258 C  
HETATM    5  N   UNL     1     -11.961  14.242  63.760  1.00  0.00    -0.802 N  
HETATM    6  O   UNL     1     -11.976  16.495  63.902  1.00  0.00    -0.979 OA 
HETATM    7  H   UNL     1     -12.492  14.320  62.892  1.00  0.00     0.000 HD 
HETATM    8  N   UNL     1     -11.616  12.992  64.141  1.00  0.00    -0.382 NA 
HETATM    9  C   UNL     1     -11.047  12.804  65.293  1.00  0.00    -0.287 C  
ENDROOT
BRANCH   9  10
HETATM   10  C   UNL     1     -10.629  11.399  65.635  1.00  0.00    -0.314 A  
HETATM   11  C   UNL     1     -10.952  10.814  66.861  1.00  0.00    -0.255 A  
HETATM   12  C   UNL     1     -10.473   9.538  67.181  1.00  0.00    -0.322 A  
HETATM   13  C   UNL     1      -9.665   8.814  66.294  1.00  0.00    -0.272 A  
HETATM   14  C   UNL     1      -9.348   9.403  65.065  1.00  0.00    -0.258 A  
HETATM   15  C   UNL     1      -9.831  10.679  64.733  1.00  0.00    -0.372 A  
BRANCH  13  16
HETATM   16  N   UNL     1      -9.133   7.553  66.642  1.00  0.00    -0.151 NA 
HETATM   17  H   UNL     1      -8.944   6.837  65.941  1.00  0.00     0.000 HD 
BRANCH  16  18
HETATM   18  N   UNL     1      -8.884   7.345  67.973  1.00  0.00    -0.127 NA 
HETATM   19  H   UNL     1      -8.431   8.071  68.527  1.00  0.00     0.000 HD 
BRANCH  18  20
HETATM   20  C   UNL     1      -9.225   6.217  68.530  1.00  0.00    -0.123 C  
HETATM   21  C   UNL     1     -10.505   6.234  69.185  1.00  0.00    -0.239 C  
HETATM   22  C   UNL     1      -8.379   5.064  68.489  1.00  0.00    -0.088 C  
HETATM   23  N   UNL     1      -7.688   4.131  68.421  1.00  0.00    -0.070 NA 
HETATM   24  N   UNL     1     -11.545   6.225  69.703  1.00  0.00    -0.371 NA 
ENDBRANCH  18  20
ENDBRANCH  16  18
ENDBRANCH  13  16
ENDBRANCH   9  10
TORSDOF 4
ENDMDL
MODEL      107
REMARK 921   NORMALIZED FREE ENERGY PREDICTED BY IDOCK:   -5.02 KCAL/MOL
REMARK 922        TOTAL FREE ENERGY PREDICTED BY IDOCK:   -6.90 KCAL/MOL
REMARK 923 INTER-LIGAND FREE ENERGY PREDICTED BY IDOCK:   -6.48 KCAL/MOL
REMARK 924 INTRA-LIGAND FREE ENERGY PREDICTED BY IDOCK:   -0.42 KCAL/MOL
REMARK 927      BINDING AFFINITY PREDICTED BY RF-SCORE:    0.00 PKD
ROOT
HETATM    1  C   UNL     1     -11.372  14.509  67.736  1.00  0.00    -0.335 C  
HETATM    2  C   UNL     1     -10.523  14.382  66.468  1.00  0.00    -0.289 C  
HETATM    3  C   UNL     1     -10.552  15.687  65.679  1.00  0.00    -0.393 C  
HETATM    4  C   UNL     1     -11.340  15.668  64.406  1.00  0.00    -0.263 C  
HETATM    5  N   UNL     1     -11.800  14.465  63.966  1.00  0.00    -0.678 N  
HETATM    6  O   UNL     1     -11.537  16.698  63.759  1.00  0.00    -1.045 OA 
HETATM    7  H   UNL     1     -12.373  14.482  63.122  1.00  0.00     0.000 HD 
HETATM    8  N   UNL     1     -11.583  13.252  64.520  1.00  0.00    -0.352 NA 
HETATM    9  C   UNL     1     -10.967  13.165  65.659  1.00  0.00    -0.277 C  
ENDROOT
BRANCH   9  10
HETATM   10  C   UNL     1     -10.698  11.784  66.195  1.00  0.00    -0.320 A  
HETATM   11  C   UNL     1     -11.344  11.299  67.333  1.00  0.00    -0.349 A  
HETATM   12  C   UNL     1     -11.008  10.043  67.854  1.00  0.00    -0.311 A  
HETATM   13  C   UNL     1     -10.024   9.243  67.259  1.00  0.00    -0.207 A  
HETATM   14  C   UNL     1      -9.382   9.732  66.116  1.00  0.00    -0.243 A  
HETATM   15  C   UNL     1      -9.720  10.986  65.582  1.00  0.00    -0.276 A  
BRANCH  13  16
HETATM   16  N   UNL     1      -9.642   8.004  67.819  1.00  0.00    -0.148 NA 
HETATM   17  H   UNL     1     -10.211   7.165  67.709  1.00  0.00     0.000 HD 
BRANCH  16  18
HETATM   18  N   UNL     1      -8.465   7.991  68.519  1.00  0.00    -0.127 NA 
HETATM   19  H   UNL     1      -7.609   7.660  68.073  1.00  0.00     0.000 HD 
BRANCH  18  20
HETATM   20  C   UNL     1      -8.438   8.400  69.756  1.00  0.00    -0.127 C  
HETATM   21  C   UNL     1      -9.174   7.578  70.677  1.00  0.00    -0.159 C  
HETATM   22  C   UNL     1      -7.730   9.581  70.148  1.00  0.00    -0.154 C  
HETATM   23  N   UNL     1      -7.127  10.529  70.450  1.00  0.00    -0.250 NA 
HETATM   24  N   UNL     1      -9.748   6.915  71.438  1.00  0.00    -0.174 NA 
ENDBRANCH  18  20
ENDBRANCH  16  18
ENDBRANCH  13  16
ENDBRANCH   9  10
TORSDOF 4
ENDMDL
MODEL      108
REMARK 921   NORMALIZED FREE ENERGY PREDICTED BY IDOCK:   -5.01 KCAL/MOL
REMARK 922        TOTAL FREE ENERGY PREDICTED BY IDOCK:   -6.89 KCAL/MOL
REMARK 923 INTER-LIGAND FREE ENERGY PREDICTED BY IDOCK:   -6.10 KCAL/MOL
REMARK 924 INTRA-LIGAND FREE ENERGY PREDICTED BY IDOCK:   -0.78 KCAL/MOL
REMARK 927      BINDING AFFINITY PREDICTED BY RF-SCORE:    0.00 PKD
ROOT
HETATM    1  C   UNL     1      -6.973   8.436  67.903  1.00  0.00    -0.078 C  
HETATM    2  C   UNL     1      -8.369   7.811  67.966  1.00  0.00    -0.124 C  
HETATM    3  C   UNL     1      -8.316   6.471  68.693  1.00  0.00    -0.122 C  
HETATM    4  C   UNL     1      -8.488   5.252  67.839  1.00  0.00    -0.101 C  
HETATM    5  N   UNL     1      -8.859   5.437  66.543  1.00  0.00    -0.116 N  
HETATM    6  O   UNL     1      -8.334   4.120  68.300  1.00  0.00    -0.090 OA 
HETATM    7  H   UNL     1      -8.925   4.597  65.967  1.00  0.00     0.000 HD 
HETATM    8  N   UNL     1      -9.150   6.607  65.932  1.00  0.00    -0.088 NA 
HETATM    9  C   UNL     1      -8.970   7.726  66.565  1.00  0.00    -0.161 C  
ENDROOT
BRANCH   9  10
HETATM   10  C   UNL     1      -9.373   8.992  65.857  1.00  0.00    -0.306 A  
HETATM   11  C   UNL     1      -8.837   9.341  64.616  1.00  0.00    -0.218 A  
HETATM   12  C   UNL     1      -9.168  10.566  64.024  1.00  0.00    -0.286 A  
HETATM   13  C   UNL     1     -10.035  11.471  64.650  1.00  0.00    -0.261 A  
HETATM   14  C   UNL     1     -10.573  11.115  65.892  1.00  0.00    -0.294 A  
HETATM   15  C   UNL     1     -10.253   9.884  66.487  1.00  0.00    -0.292 A  
BRANCH  13  16
HETATM   16  N   UNL     1     -10.321  12.733  64.082  1.00  0.00    -0.485 NA 
HETATM   17  H   UNL     1     -10.830  12.824  63.202  1.00  0.00     0.000 HD 
BRANCH  16  18
HETATM   18  N   UNL     1      -9.877  13.826  64.776  1.00  0.00    -0.586 NA 
HETATM   19  H   UNL     1      -8.888  13.917  65.008  1.00  0.00     0.000 HD 
BRANCH  18  20
HETATM   20  C   UNL     1     -10.719  14.752  65.141  1.00  0.00    -0.415 C  
HETATM   21  C   UNL     1     -12.094  14.334  65.174  1.00  0.00    -0.410 C  
HETATM   22  C   UNL     1     -10.292  16.077  65.475  1.00  0.00    -0.390 C  
HETATM   23  N   UNL     1      -9.921  17.139  65.767  1.00  0.00    -0.567 NA 
HETATM   24  N   UNL     1     -13.208  14.008  65.224  1.00  0.00    -0.710 NA 
ENDBRANCH  18  20
ENDBRANCH  16  18
ENDBRANCH  13  16
ENDBRANCH   9  10
TORSDOF 4
ENDMDL
MODEL      109
REMARK 921   NORMALIZED FREE ENERGY PREDICTED BY IDOCK:   -5.00 KCAL/MOL
REMARK 922        TOTAL FREE ENERGY PREDICTED BY IDOCK:   -6.88 KCAL/MOL
REMARK 923 INTER-LIGAND FREE ENERGY PREDICTED BY IDOCK:   -6.33 KCAL/MOL
REMARK 924 INTRA-LIGAND FREE ENERGY PREDICTED BY IDOCK:   -0.55 KCAL/MOL
REMARK 927      BINDING AFFINITY PREDICTED BY RF-SCORE:    0.00 PKD
ROOT
HETATM    1  C   UNL     1     -12.119  14.002  65.566  1.00  0.00    -0.423 C  
HETATM    2  C   UNL     1     -11.756  13.886  67.049  1.00  0.00    -0.426 C  
HETATM    3  C   UNL     1     -11.774  15.261  67.708  1.00  0.00    -0.206 C  
HETATM    4  C   UNL     1     -10.438  15.837  68.064  1.00  0.00    -0.270 C  
HETATM    5  N   UNL     1      -9.351  15.026  67.950  1.00  0.00    -0.182 N  
HETATM    6  O   UNL     1     -10.328  16.991  68.480  1.00  0.00    -0.313 OA 
HETATM    7  H   UNL     1      -8.446  15.451  68.154  1.00  0.00     0.000 HD 
HETATM    8  N   UNL     1      -9.334  13.721  67.599  1.00  0.00    -0.205 NA 
HETATM    9  C   UNL     1     -10.430  13.145  67.208  1.00  0.00    -0.243 C  
ENDROOT
BRANCH   9  10
HETATM   10  C   UNL     1     -10.362  11.676  66.891  1.00  0.00    -0.253 A  
HETATM   11  C   UNL     1     -10.933  10.716  67.729  1.00  0.00    -0.364 A  
HETATM   12  C   UNL     1     -10.778   9.353  67.450  1.00  0.00    -0.280 A  
HETATM   13  C   UNL     1     -10.053   8.911  66.335  1.00  0.00    -0.263 A  
HETATM   14  C   UNL     1      -9.485   9.877  65.496  1.00  0.00    -0.313 A  
HETATM   15  C   UNL     1      -9.645  11.246  65.764  1.00  0.00    -0.256 A  
BRANCH  13  16
HETATM   16  N   UNL     1      -9.844   7.537  66.087  1.00  0.00    -0.445 NA 
HETATM   17  H   UNL     1      -9.001   7.195  65.626  1.00  0.00     0.000 HD 
BRANCH  16  18
HETATM   18  N   UNL     1     -10.836   6.687  66.500  1.00  0.00    -0.510 NA 
HETATM   19  H   UNL     1     -11.758   6.729  66.066  1.00  0.00     0.000 HD 
BRANCH  18  20
HETATM   20  C   UNL     1     -10.602   5.825  67.449  1.00  0.00    -0.265 C  
HETATM   21  C   UNL     1      -9.925   4.630  67.022  1.00  0.00    -0.195 C  
HETATM   22  C   UNL     1     -10.998   6.062  68.804  1.00  0.00    -0.312 C  
HETATM   23  N   UNL     1     -11.306   6.286  69.903  1.00  0.00    -0.427 NA 
HETATM   24  N   UNL     1      -9.362   3.668  66.698  1.00  0.00    -0.183 NA 
ENDBRANCH  18  20
ENDBRANCH  16  18
ENDBRANCH  13  16
ENDBRANCH   9  10
TORSDOF 4
ENDMDL
MODEL      110
REMARK 921   NORMALIZED FREE ENERGY PREDICTED BY IDOCK:   -4.89 KCAL/MOL
REMARK 922        TOTAL FREE ENERGY PREDICTED BY IDOCK:   -6.75 KCAL/MOL
REMARK 923 INTER-LIGAND FREE ENERGY PREDICTED BY IDOCK:   -6.03 KCAL/MOL
REMARK 924 INTRA-LIGAND FREE ENERGY PREDICTED BY IDOCK:   -0.71 KCAL/MOL
REMARK 927      BINDING AFFINITY PREDICTED BY RF-SCORE:    0.00 PKD
ROOT
HETATM    1  C   UNL     1     -10.537  15.747  70.599  1.00  0.00    -0.089 C  
HETATM    2  C   UNL     1     -12.038  15.456  70.524  1.00  0.00    -0.411 C  
HETATM    3  C   UNL     1     -12.761  16.090  71.708  1.00  0.00    -0.338 C  
HETATM    4  C   UNL     1     -13.261  15.144  72.756  1.00  0.00    -0.477 C  
HETATM    5  N   UNL     1     -13.202  13.812  72.484  1.00  0.00    -0.499 N  
HETATM    6  O   UNL     1     -13.742  15.555  73.813  1.00  0.00     0.010 OA 
HETATM    7  H   UNL     1     -13.504  13.184  73.229  1.00  0.00     0.000 HD 
HETATM    8  N   UNL     1     -12.788  13.226  71.339  1.00  0.00    -0.356 NA 
HETATM    9  C   UNL     1     -12.275  13.953  70.393  1.00  0.00    -0.368 C  
ENDROOT
BRANCH   9  10
HETATM   10  C   UNL     1     -11.892  13.254  69.116  1.00  0.00    -0.378 A  
HETATM   11  C   UNL     1     -11.909  13.912  67.885  1.00  0.00    -0.413 A  
HETATM   12  C   UNL     1     -11.630  13.209  66.706  1.00  0.00    -0.414 A  
HETATM   13  C   UNL     1     -11.329  11.841  66.722  1.00  0.00    -0.320 A  
HETATM   14  C   UNL     1     -11.310  11.187  67.959  1.00  0.00    -0.380 A  
HETATM   15  C   UNL     1     -11.579  11.886  69.146  1.00  0.00    -0.373 A  
BRANCH  13  16
HETATM   16  N   UNL     1     -11.109  11.120  65.528  1.00  0.00    -0.081 NA 
HETATM   17  H   UNL     1     -11.388  11.487  64.617  1.00  0.00     0.000 HD 
BRANCH  16  18
HETATM   18  N   UNL     1     -10.499   9.901  65.657  1.00  0.00    -0.045 NA 
HETATM   19  H   UNL     1     -10.876   9.207  66.303  1.00  0.00     0.000 HD 
BRANCH  18  20
HETATM   20  C   UNL     1      -9.435   9.627  64.955  1.00  0.00    -0.245 C  
HETATM   21  C   UNL     1      -9.329  10.351  63.718  1.00  0.00    -0.288 C  
HETATM   22  C   UNL     1      -8.462   8.673  65.394  1.00  0.00    -0.172 C  
HETATM   23  N   UNL     1      -7.670   7.915  65.782  1.00  0.00    -0.086 NA 
HETATM   24  N   UNL     1      -9.218  10.942  62.724  1.00  0.00    -0.309 NA 
ENDBRANCH  18  20
ENDBRANCH  16  18
ENDBRANCH  13  16
ENDBRANCH   9  10
TORSDOF 4
ENDMDL
MODEL      111
REMARK 921   NORMALIZED FREE ENERGY PREDICTED BY IDOCK:   -4.89 KCAL/MOL
REMARK 922        TOTAL FREE ENERGY PREDICTED BY IDOCK:   -6.74 KCAL/MOL
REMARK 923 INTER-LIGAND FREE ENERGY PREDICTED BY IDOCK:   -5.98 KCAL/MOL
REMARK 924 INTRA-LIGAND FREE ENERGY PREDICTED BY IDOCK:   -0.75 KCAL/MOL
REMARK 927      BINDING AFFINITY PREDICTED BY RF-SCORE:    0.00 PKD
ROOT
HETATM    1  C   UNL     1      -7.808  15.854  69.017  1.00  0.00    -0.216 C  
HETATM    2  C   UNL     1      -7.759  15.586  67.510  1.00  0.00    -0.195 C  
HETATM    3  C   UNL     1      -6.908  16.642  66.812  1.00  0.00    -0.252 C  
HETATM    4  C   UNL     1      -7.653  17.642  65.981  1.00  0.00    -0.220 C  
HETATM    5  N   UNL     1      -8.979  17.420  65.765  1.00  0.00     0.103 N  
HETATM    6  O   UNL     1      -7.082  18.611  65.480  1.00  0.00    -0.486 OA 
HETATM    7  H   UNL     1      -9.476  18.137  65.235  1.00  0.00     0.000 HD 
HETATM    8  N   UNL     1      -9.710  16.360  66.172  1.00  0.00    -0.309 NA 
HETATM    9  C   UNL     1      -9.176  15.470  66.952  1.00  0.00    -0.236 C  
ENDROOT
BRANCH   9  10
HETATM   10  C   UNL     1     -10.019  14.279  67.319  1.00  0.00    -0.252 A  
HETATM   11  C   UNL     1     -11.306  14.422  67.841  1.00  0.00    -0.322 A  
HETATM   12  C   UNL     1     -12.030  13.296  68.253  1.00  0.00    -0.338 A  
HETATM   13  C   UNL     1     -11.494  12.005  68.156  1.00  0.00    -0.322 A  
HETATM   14  C   UNL     1     -10.206  11.866  67.628  1.00  0.00    -0.215 A  
HETATM   15  C   UNL     1      -9.477  12.990  67.205  1.00  0.00    -0.230 A  
BRANCH  13  16
HETATM   16  N   UNL     1     -12.200  10.877  68.627  1.00  0.00    -0.810 NA 
HETATM   17  H   UNL     1     -12.531  10.146  67.996  1.00  0.00     0.000 HD 
BRANCH  16  18
HETATM   18  N   UNL     1     -12.417  10.815  69.978  1.00  0.00    -0.416 NA 
HETATM   19  H   UNL     1     -12.941  11.555  70.445  1.00  0.00     0.000 HD 
BRANCH  18  20
HETATM   20  C   UNL     1     -11.953   9.811  70.667  1.00  0.00    -0.259 C  
HETATM   21  C   UNL     1     -12.642   9.562  71.904  1.00  0.00    -0.396 C  
HETATM   22  C   UNL     1     -10.840   9.032  70.216  1.00  0.00    -0.238 C  
HETATM   23  N   UNL     1      -9.952   8.395  69.819  1.00  0.00    -0.188 NA 
HETATM   24  N   UNL     1     -13.199   9.335  72.898  1.00  0.00    -0.188 NA 
ENDBRANCH  18  20
ENDBRANCH  16  18
ENDBRANCH  13  16
ENDBRANCH   9  10
TORSDOF 4
ENDMDL
MODEL      112
REMARK 921   NORMALIZED FREE ENERGY PREDICTED BY IDOCK:   -4.87 KCAL/MOL
REMARK 922        TOTAL FREE ENERGY PREDICTED BY IDOCK:   -6.72 KCAL/MOL
REMARK 923 INTER-LIGAND FREE ENERGY PREDICTED BY IDOCK:   -6.03 KCAL/MOL
REMARK 924 INTRA-LIGAND FREE ENERGY PREDICTED BY IDOCK:   -0.68 KCAL/MOL
REMARK 927      BINDING AFFINITY PREDICTED BY RF-SCORE:    0.00 PKD
ROOT
HETATM    1  C   UNL     1     -10.370  16.293  65.738  1.00  0.00    -0.393 C  
HETATM    2  C   UNL     1     -10.515  16.532  67.244  1.00  0.00    -0.304 C  
HETATM    3  C   UNL     1     -10.098  17.956  67.597  1.00  0.00    -0.350 C  
HETATM    4  C   UNL     1      -8.799  18.097  68.329  1.00  0.00    -0.283 C  
HETATM    5  N   UNL     1      -8.201  16.961  68.779  1.00  0.00    -0.249 N  
HETATM    6  O   UNL     1      -8.304  19.204  68.548  1.00  0.00    -0.340 OA 
HETATM    7  H   UNL     1      -7.296  17.076  69.235  1.00  0.00     0.000 HD 
HETATM    8  N   UNL     1      -8.672  15.697  68.693  1.00  0.00    -0.181 NA 
HETATM    9  C   UNL     1      -9.757  15.459  68.021  1.00  0.00    -0.207 C  
ENDROOT
BRANCH   9  10
HETATM   10  C   UNL     1     -10.267  14.043  68.014  1.00  0.00    -0.238 A  
HETATM   11  C   UNL     1     -11.586  13.735  68.354  1.00  0.00    -0.369 A  
HETATM   12  C   UNL     1     -12.005  12.401  68.420  1.00  0.00    -0.269 A  
HETATM   13  C   UNL     1     -11.126  11.343  68.152  1.00  0.00    -0.248 A  
HETATM   14  C   UNL     1      -9.806  11.656  67.808  1.00  0.00    -0.186 A  
HETATM   15  C   UNL     1      -9.381  12.992  67.730  1.00  0.00    -0.199 A  
BRANCH  13  16
HETATM   16  N   UNL     1     -11.532   9.996  68.279  1.00  0.00    -0.583 NA 
HETATM   17  H   UNL     1     -11.868   9.458  67.480  1.00  0.00     0.000 HD 
BRANCH  16  18
HETATM   18  N   UNL     1     -11.451   9.452  69.533  1.00  0.00    -0.436 NA 
HETATM   19  H   UNL     1     -12.120   9.726  70.253  1.00  0.00     0.000 HD 
BRANCH  18  20
HETATM   20  C   UNL     1     -10.517   8.585  69.807  1.00  0.00    -0.220 C  
HETATM   21  C   UNL     1     -10.489   7.438  68.939  1.00  0.00    -0.203 C  
HETATM   22  C   UNL     1      -9.604   8.771  70.893  1.00  0.00    -0.221 C  
HETATM   23  N   UNL     1      -8.855   8.955  71.764  1.00  0.00    -0.358 NA 
HETATM   24  N   UNL     1     -10.439   6.515  68.236  1.00  0.00    -0.196 NA 
ENDBRANCH  18  20
ENDBRANCH  16  18
ENDBRANCH  13  16
ENDBRANCH   9  10
TORSDOF 4
ENDMDL
MODEL      113
REMARK 921   NORMALIZED FREE ENERGY PREDICTED BY IDOCK:   -4.86 KCAL/MOL
REMARK 922        TOTAL FREE ENERGY PREDICTED BY IDOCK:   -6.70 KCAL/MOL
REMARK 923 INTER-LIGAND FREE ENERGY PREDICTED BY IDOCK:   -6.03 KCAL/MOL
REMARK 924 INTRA-LIGAND FREE ENERGY PREDICTED BY IDOCK:   -0.67 KCAL/MOL
REMARK 927      BINDING AFFINITY PREDICTED BY RF-SCORE:    0.00 PKD
ROOT
HETATM    1  C   UNL     1     -12.048  13.251  70.208  1.00  0.00    -0.405 C  
HETATM    2  C   UNL     1     -11.897  12.253  69.056  1.00  0.00    -0.358 C  
HETATM    3  C   UNL     1     -12.267  10.848  69.521  1.00  0.00    -0.331 C  
HETATM    4  C   UNL     1     -11.128   9.888  69.680  1.00  0.00    -0.241 C  
HETATM    5  N   UNL     1      -9.906  10.277  69.225  1.00  0.00    -0.218 N  
HETATM    6  O   UNL     1     -11.296   8.771  70.172  1.00  0.00    -0.209 OA 
HETATM    7  H   UNL     1      -9.136   9.627  69.384  1.00  0.00     0.000 HD 
HETATM    8  N   UNL     1      -9.597  11.427  68.585  1.00  0.00    -0.193 NA 
HETATM    9  C   UNL     1     -10.497  12.353  68.455  1.00  0.00    -0.228 C  
ENDROOT
BRANCH   9  10
HETATM   10  C   UNL     1     -10.113  13.584  67.678  1.00  0.00    -0.229 A  
HETATM   11  C   UNL     1      -9.136  14.468  68.139  1.00  0.00    -0.191 A  
HETATM   12  C   UNL     1      -8.864  15.648  67.435  1.00  0.00    -0.204 A  
HETATM   13  C   UNL     1      -9.554  15.976  66.260  1.00  0.00    -0.307 A  
HETATM   14  C   UNL     1     -10.530  15.084  65.801  1.00  0.00    -0.353 A  
HETATM   15  C   UNL     1     -10.802  13.895  66.496  1.00  0.00    -0.295 A  
BRANCH  13  16
HETATM   16  N   UNL     1      -9.322  17.194  65.584  1.00  0.00    -0.447 NA 
HETATM   17  H   UNL     1      -8.875  17.224  64.667  1.00  0.00     0.000 HD 
BRANCH  16  18
HETATM   18  N   UNL     1      -9.730  18.333  66.226  1.00  0.00    -0.451 NA 
HETATM   19  H   UNL     1     -10.725  18.529  66.334  1.00  0.00     0.000 HD 
BRANCH  18  20
HETATM   20  C   UNL     1      -8.847  19.166  66.698  1.00  0.00    -0.324 C  
HETATM   21  C   UNL     1      -9.033  19.521  68.079  1.00  0.00    -0.327 C  
HETATM   22  C   UNL     1      -7.784  19.683  65.891  1.00  0.00    -0.298 C  
HETATM   23  N   UNL     1      -6.912  20.070  65.225  1.00  0.00    -0.301 NA 
HETATM   24  N   UNL     1      -9.157  19.803  69.199  1.00  0.00    -0.123 NA 
ENDBRANCH  18  20
ENDBRANCH  16  18
ENDBRANCH  13  16
ENDBRANCH   9  10
TORSDOF 4
ENDMDL
MODEL      114
REMARK 921   NORMALIZED FREE ENERGY PREDICTED BY IDOCK:   -4.84 KCAL/MOL
REMARK 922        TOTAL FREE ENERGY PREDICTED BY IDOCK:   -6.68 KCAL/MOL
REMARK 923 INTER-LIGAND FREE ENERGY PREDICTED BY IDOCK:   -6.10 KCAL/MOL
REMARK 924 INTRA-LIGAND FREE ENERGY PREDICTED BY IDOCK:   -0.58 KCAL/MOL
REMARK 927      BINDING AFFINITY PREDICTED BY RF-SCORE:    0.00 PKD
ROOT
HETATM    1  C   UNL     1     -11.055   6.128  67.553  1.00  0.00    -0.318 C  
HETATM    2  C   UNL     1      -9.916   6.102  68.576  1.00  0.00    -0.173 C  
HETATM    3  C   UNL     1      -9.177   4.769  68.511  1.00  0.00    -0.165 C  
HETATM    4  C   UNL     1      -9.400   3.837  69.663  1.00  0.00    -0.175 C  
HETATM    5  N   UNL     1     -10.077   4.318  70.741  1.00  0.00    -0.153 N  
HETATM    6  O   UNL     1      -8.958   2.688  69.651  1.00  0.00    -0.083 OA 
HETATM    7  H   UNL     1     -10.258   3.653  71.494  1.00  0.00     0.000 HD 
HETATM    8  N   UNL     1     -10.536   5.575  70.928  1.00  0.00    -0.251 NA 
HETATM    9  C   UNL     1     -10.451   6.441  69.965  1.00  0.00    -0.215 C  
ENDROOT
BRANCH   9  10
HETATM   10  C   UNL     1     -10.920   7.842  70.254  1.00  0.00    -0.249 A  
HETATM   11  C   UNL     1     -12.017   8.094  71.081  1.00  0.00    -0.296 A  
HETATM   12  C   UNL     1     -12.479   9.403  71.260  1.00  0.00    -0.416 A  
HETATM   13  C   UNL     1     -11.866  10.490  70.624  1.00  0.00    -0.360 A  
HETATM   14  C   UNL     1     -10.764  10.234  69.800  1.00  0.00    -0.328 A  
HETATM   15  C   UNL     1     -10.289   8.924  69.623  1.00  0.00    -0.214 A  
BRANCH  13  16
HETATM   16  N   UNL     1     -12.370  11.803  70.756  1.00  0.00    -0.374 NA 
HETATM   17  H   UNL     1     -13.280  11.990  71.178  1.00  0.00     0.000 HD 
BRANCH  16  18
HETATM   18  N   UNL     1     -11.570  12.811  70.288  1.00  0.00    -0.535 NA 
HETATM   19  H   UNL     1     -10.557  12.695  70.273  1.00  0.00     0.000 HD 
BRANCH  18  20
HETATM   20  C   UNL     1     -12.105  13.921  69.861  1.00  0.00    -0.344 C  
HETATM   21  C   UNL     1     -13.009  14.547  70.787  1.00  0.00    -0.343 C  
HETATM   22  C   UNL     1     -11.807  14.457  68.567  1.00  0.00    -0.334 C  
HETATM   23  N   UNL     1     -11.532  14.889  67.523  1.00  0.00    -0.346 NA 
HETATM   24  N   UNL     1     -13.728  15.077  71.530  1.00  0.00    -0.429 NA 
ENDBRANCH  18  20
ENDBRANCH  16  18
ENDBRANCH  13  16
ENDBRANCH   9  10
TORSDOF 4
ENDMDL
MODEL      115
REMARK 921   NORMALIZED FREE ENERGY PREDICTED BY IDOCK:   -4.82 KCAL/MOL
REMARK 922        TOTAL FREE ENERGY PREDICTED BY IDOCK:   -6.66 KCAL/MOL
REMARK 923 INTER-LIGAND FREE ENERGY PREDICTED BY IDOCK:   -5.98 KCAL/MOL
REMARK 924 INTRA-LIGAND FREE ENERGY PREDICTED BY IDOCK:   -0.67 KCAL/MOL
REMARK 927      BINDING AFFINITY PREDICTED BY RF-SCORE:    0.00 PKD
ROOT
HETATM    1  C   UNL     1     -11.829   9.073  71.793  1.00  0.00    -0.442 C  
HETATM    2  C   UNL     1     -11.808   7.744  71.033  1.00  0.00    -0.290 C  
HETATM    3  C   UNL     1     -12.332   6.619  71.919  1.00  0.00    -0.364 C  
HETATM    4  C   UNL     1     -11.311   5.640  72.412  1.00  0.00    -0.270 C  
HETATM    5  N   UNL     1     -10.057   5.719  71.888  1.00  0.00    -0.181 N  
HETATM    6  O   UNL     1     -11.601   4.771  73.236  1.00  0.00    -0.333 OA 
HETATM    7  H   UNL     1      -9.366   5.073  72.271  1.00  0.00     0.000 HD 
HETATM    8  N   UNL     1      -9.624   6.554  70.918  1.00  0.00    -0.175 NA 
HETATM    9  C   UNL     1     -10.412   7.484  70.470  1.00  0.00    -0.219 C  
ENDROOT
BRANCH   9  10
HETATM   10  C   UNL     1      -9.898   8.342  69.346  1.00  0.00    -0.185 A  
HETATM   11  C   UNL     1      -9.145   9.493  69.586  1.00  0.00    -0.207 A  
HETATM   12  C   UNL     1      -8.755  10.315  68.521  1.00  0.00    -0.130 A  
HETATM   13  C   UNL     1      -9.102  10.015  67.198  1.00  0.00    -0.138 A  
HETATM   14  C   UNL     1      -9.854   8.858  66.962  1.00  0.00    -0.277 A  
HETATM   15  C   UNL     1     -10.241   8.023  68.023  1.00  0.00    -0.260 A  
BRANCH  13  16
HETATM   16  N   UNL     1      -8.761  10.876  66.132  1.00  0.00    -0.179 NA 
HETATM   17  H   UNL     1      -7.955  10.698  65.533  1.00  0.00     0.000 HD 
BRANCH  16  18
HETATM   18  N   UNL     1      -9.573  11.963  65.945  1.00  0.00    -0.234 NA 
HETATM   19  H   UNL     1      -9.551  12.737  66.610  1.00  0.00     0.000 HD 
BRANCH  18  20
HETATM   20  C   UNL     1     -10.374  12.010  64.918  1.00  0.00    -0.278 C  
HETATM   21  C   UNL     1      -9.799  11.541  63.687  1.00  0.00    -0.353 C  
HETATM   22  C   UNL     1     -11.716  12.497  65.024  1.00  0.00    -0.362 C  
HETATM   23  N   UNL     1     -12.811  12.871  65.138  1.00  0.00    -0.773 NA 
HETATM   24  N   UNL     1      -9.357  11.148  62.687  1.00  0.00    -0.331 NA 
ENDBRANCH  18  20
ENDBRANCH  16  18
ENDBRANCH  13  16
ENDBRANCH   9  10
TORSDOF 4
ENDMDL
MODEL      116
REMARK 921   NORMALIZED FREE ENERGY PREDICTED BY IDOCK:   -4.79 KCAL/MOL
REMARK 922        TOTAL FREE ENERGY PREDICTED BY IDOCK:   -6.62 KCAL/MOL
REMARK 923 INTER-LIGAND FREE ENERGY PREDICTED BY IDOCK:   -5.84 KCAL/MOL
REMARK 924 INTRA-LIGAND FREE ENERGY PREDICTED BY IDOCK:   -0.78 KCAL/MOL
REMARK 927      BINDING AFFINITY PREDICTED BY RF-SCORE:    0.00 PKD
ROOT
HETATM    1  C   UNL     1     -10.053   4.948  66.140  1.00  0.00    -0.280 C  
HETATM    2  C   UNL     1      -8.754   5.695  65.826  1.00  0.00    -0.150 C  
HETATM    3  C   UNL     1      -7.605   4.708  65.644  1.00  0.00    -0.082 C  
HETATM    4  C   UNL     1      -6.589   4.670  66.744  1.00  0.00    -0.050 C  
HETATM    5  N   UNL     1      -6.664   5.632  67.704  1.00  0.00    -0.057 N  
HETATM    6  O   UNL     1      -5.695   3.823  66.762  1.00  0.00    -0.021 OA 
HETATM    7  H   UNL     1      -5.991   5.560  68.468  1.00  0.00     0.000 HD 
HETATM    8  N   UNL     1      -7.527   6.670  67.761  1.00  0.00    -0.096 NA 
HETATM    9  C   UNL     1      -8.488   6.756  66.892  1.00  0.00    -0.115 C  
ENDROOT
BRANCH   9  10
HETATM   10  C   UNL     1      -9.378   7.967  66.966  1.00  0.00    -0.197 A  
HETATM   11  C   UNL     1      -9.435   8.902  65.930  1.00  0.00    -0.303 A  
HETATM   12  C   UNL     1     -10.208  10.062  66.068  1.00  0.00    -0.277 A  
HETATM   13  C   UNL     1     -10.940  10.320  67.234  1.00  0.00    -0.210 A  
HETATM   14  C   UNL     1     -10.884   9.378  68.267  1.00  0.00    -0.163 A  
HETATM   15  C   UNL     1     -10.118   8.209  68.133  1.00  0.00    -0.237 A  
BRANCH  13  16
HETATM   16  N   UNL     1     -11.671  11.517  67.396  1.00  0.00    -0.609 NA 
HETATM   17  H   UNL     1     -11.914  11.879  68.319  1.00  0.00     0.000 HD 
BRANCH  16  18
HETATM   18  N   UNL     1     -12.035  12.168  66.247  1.00  0.00    -0.613 NA 
HETATM   19  H   UNL     1     -12.223  11.637  65.397  1.00  0.00     0.000 HD 
BRANCH  18  20
HETATM   20  C   UNL     1     -12.140  13.467  66.240  1.00  0.00    -0.428 C  
HETATM   21  C   UNL     1     -11.977  14.090  67.526  1.00  0.00    -0.395 C  
HETATM   22  C   UNL     1     -12.403  14.200  65.039  1.00  0.00    -0.440 C  
HETATM   23  N   UNL     1     -12.591  14.779  64.048  1.00  0.00    -0.794 NA 
HETATM   24  N   UNL     1     -11.828  14.611  68.553  1.00  0.00    -0.326 NA 
ENDBRANCH  18  20
ENDBRANCH  16  18
ENDBRANCH  13  16
ENDBRANCH   9  10
TORSDOF 4
ENDMDL
MODEL      117
REMARK 921   NORMALIZED FREE ENERGY PREDICTED BY IDOCK:   -4.77 KCAL/MOL
REMARK 922        TOTAL FREE ENERGY PREDICTED BY IDOCK:   -6.60 KCAL/MOL
REMARK 923 INTER-LIGAND FREE ENERGY PREDICTED BY IDOCK:   -6.22 KCAL/MOL
REMARK 924 INTRA-LIGAND FREE ENERGY PREDICTED BY IDOCK:   -0.38 KCAL/MOL
REMARK 927      BINDING AFFINITY PREDICTED BY RF-SCORE:    0.00 PKD
ROOT
HETATM    1  C   UNL     1     -10.818   7.871  69.991  1.00  0.00    -0.238 C  
HETATM    2  C   UNL     1     -11.032   9.061  70.930  1.00  0.00    -0.332 C  
HETATM    3  C   UNL     1     -11.765   8.615  72.191  1.00  0.00    -0.442 C  
HETATM    4  C   UNL     1     -13.191   9.058  72.314  1.00  0.00    -0.460 C  
HETATM    5  N   UNL     1     -13.652   9.960  71.405  1.00  0.00    -0.282 N  
HETATM    6  O   UNL     1     -13.913   8.648  73.224  1.00  0.00    -0.130 OA 
HETATM    7  H   UNL     1     -14.638  10.212  71.479  1.00  0.00     0.000 HD 
HETATM    8  N   UNL     1     -12.953  10.560  70.417  1.00  0.00    -0.246 NA 
HETATM    9  C   UNL     1     -11.727  10.199  70.185  1.00  0.00    -0.256 C  
ENDROOT
BRANCH   9  10
HETATM   10  C   UNL     1     -10.979  10.947  69.115  1.00  0.00    -0.290 A  
HETATM   11  C   UNL     1      -9.597  10.817  68.957  1.00  0.00    -0.193 A  
HETATM   12  C   UNL     1      -8.920  11.593  68.009  1.00  0.00    -0.176 A  
HETATM   13  C   UNL     1      -9.595  12.512  67.196  1.00  0.00    -0.208 A  
HETATM   14  C   UNL     1     -10.980  12.636  67.355  1.00  0.00    -0.289 A  
HETATM   15  C   UNL     1     -11.668  11.855  68.298  1.00  0.00    -0.385 A  
BRANCH  13  16
HETATM   16  N   UNL     1      -8.904  13.337  66.282  1.00  0.00    -0.430 NA 
HETATM   17  H   UNL     1      -8.214  12.960  65.632  1.00  0.00     0.000 HD 
BRANCH  16  18
HETATM   18  N   UNL     1      -9.209  14.672  66.316  1.00  0.00    -0.453 NA 
HETATM   19  H   UNL     1     -10.016  15.024  65.800  1.00  0.00     0.000 HD 
BRANCH  18  20
HETATM   20  C   UNL     1      -8.469  15.492  67.007  1.00  0.00    -0.235 C  
HETATM   21  C   UNL     1      -8.141  16.719  66.332  1.00  0.00    -0.320 C  
HETATM   22  C   UNL     1      -8.023  15.179  68.331  1.00  0.00    -0.136 C  
HETATM   23  N   UNL     1      -7.692  14.917  69.414  1.00  0.00    -0.172 NA 
HETATM   24  N   UNL     1      -7.882  17.723  65.810  1.00  0.00    -0.544 NA 
ENDBRANCH  18  20
ENDBRANCH  16  18
ENDBRANCH  13  16
ENDBRANCH   9  10
TORSDOF 4
ENDMDL
MODEL      118
REMARK 921   NORMALIZED FREE ENERGY PREDICTED BY IDOCK:   -4.77 KCAL/MOL
REMARK 922        TOTAL FREE ENERGY PREDICTED BY IDOCK:   -6.59 KCAL/MOL
REMARK 923 INTER-LIGAND FREE ENERGY PREDICTED BY IDOCK:   -5.93 KCAL/MOL
REMARK 924 INTRA-LIGAND FREE ENERGY PREDICTED BY IDOCK:   -0.66 KCAL/MOL
REMARK 927      BINDING AFFINITY PREDICTED BY RF-SCORE:    0.00 PKD
ROOT
HETATM    1  C   UNL     1      -7.246  10.619  67.653  1.00  0.00    -0.089 C  
HETATM    2  C   UNL     1      -8.296   9.509  67.743  1.00  0.00    -0.118 C  
HETATM    3  C   UNL     1      -7.782   8.237  67.076  1.00  0.00    -0.096 C  
HETATM    4  C   UNL     1      -8.416   7.879  65.767  1.00  0.00    -0.140 C  
HETATM    5  N   UNL     1      -9.508   8.592  65.379  1.00  0.00    -0.436 N  
HETATM    6  O   UNL     1      -7.990   6.948  65.082  1.00  0.00    -0.113 OA 
HETATM    7  H   UNL     1      -9.897   8.362  64.464  1.00  0.00     0.000 HD 
HETATM    8  N   UNL     1     -10.137   9.571  66.068  1.00  0.00    -0.283 NA 
HETATM    9  C   UNL     1      -9.629  10.001  67.182  1.00  0.00    -0.165 C  
ENDROOT
BRANCH   9  10
HETATM   10  C   UNL     1     -10.407  11.046  67.937  1.00  0.00    -0.213 A  
HETATM   11  C   UNL     1     -10.941  10.793  69.202  1.00  0.00    -0.293 A  
HETATM   12  C   UNL     1     -11.732  11.757  69.839  1.00  0.00    -0.399 A  
HETATM   13  C   UNL     1     -12.011  12.991  69.236  1.00  0.00    -0.278 A  
HETATM   14  C   UNL     1     -11.470  13.241  67.970  1.00  0.00    -0.344 A  
HETATM   15  C   UNL     1     -10.668  12.283  67.329  1.00  0.00    -0.263 A  
BRANCH  13  16
HETATM   16  N   UNL     1     -12.859  13.938  69.852  1.00  0.00    -0.234 NA 
HETATM   17  H   UNL     1     -13.624  14.385  69.346  1.00  0.00     0.000 HD 
BRANCH  16  18
HETATM   18  N   UNL     1     -12.599  14.223  71.166  1.00  0.00    -0.339 NA 
HETATM   19  H   UNL     1     -12.718  13.503  71.878  1.00  0.00     0.000 HD 
BRANCH  18  20
HETATM   20  C   UNL     1     -12.199  15.416  71.507  1.00  0.00    -0.366 C  
HETATM   21  C   UNL     1     -12.657  15.858  72.796  1.00  0.00    -0.470 C  
HETATM   22  C   UNL     1     -11.373  16.212  70.650  1.00  0.00    -0.370 C  
HETATM   23  N   UNL     1     -10.681  16.832  69.951  1.00  0.00    -0.233 NA 
HETATM   24  N   UNL     1     -13.003  16.223  73.843  1.00  0.00    -0.689 NA 
ENDBRANCH  18  20
ENDBRANCH  16  18
ENDBRANCH  13  16
ENDBRANCH   9  10
TORSDOF 4
ENDMDL
MODEL      119
REMARK 921   NORMALIZED FREE ENERGY PREDICTED BY IDOCK:   -4.77 KCAL/MOL
REMARK 922        TOTAL FREE ENERGY PREDICTED BY IDOCK:   -6.59 KCAL/MOL
REMARK 923 INTER-LIGAND FREE ENERGY PREDICTED BY IDOCK:   -5.94 KCAL/MOL
REMARK 924 INTRA-LIGAND FREE ENERGY PREDICTED BY IDOCK:   -0.65 KCAL/MOL
REMARK 927      BINDING AFFINITY PREDICTED BY RF-SCORE:    0.00 PKD
ROOT
HETATM    1  C   UNL     1     -10.364   9.602  69.037  1.00  0.00    -0.218 C  
HETATM    2  C   UNL     1     -10.835   9.233  67.628  1.00  0.00    -0.188 C  
HETATM    3  C   UNL     1     -10.742   7.725  67.416  1.00  0.00    -0.300 C  
HETATM    4  C   UNL     1      -9.653   7.255  66.503  1.00  0.00    -0.149 C  
HETATM    5  N   UNL     1      -8.968   8.198  65.800  1.00  0.00    -0.302 N  
HETATM    6  O   UNL     1      -9.406   6.056  66.363  1.00  0.00    -0.151 OA 
HETATM    7  H   UNL     1      -8.200   7.860  65.219  1.00  0.00     0.000 HD 
HETATM    8  N   UNL     1      -9.190   9.531  65.783  1.00  0.00    -0.194 NA 
HETATM    9  C   UNL     1     -10.068  10.047  66.588  1.00  0.00    -0.227 C  
ENDROOT
BRANCH   9  10
HETATM   10  C   UNL     1     -10.318  11.527  66.479  1.00  0.00    -0.269 A  
HETATM   11  C   UNL     1      -9.311  12.462  66.725  1.00  0.00    -0.220 A  
HETATM   12  C   UNL     1      -9.598  13.833  66.699  1.00  0.00    -0.295 A  
HETATM   13  C   UNL     1     -10.889  14.305  66.428  1.00  0.00    -0.307 A  
HETATM   14  C   UNL     1     -11.895  13.364  66.178  1.00  0.00    -0.427 A  
HETATM   15  C   UNL     1     -11.612  11.989  66.194  1.00  0.00    -0.371 A  
BRANCH  13  16
HETATM   16  N   UNL     1     -11.192  15.684  66.462  1.00  0.00    -0.136 NA 
HETATM   17  H   UNL     1     -11.956  16.054  67.028  1.00  0.00     0.000 HD 
BRANCH  16  18
HETATM   18  N   UNL     1     -10.404  16.499  65.694  1.00  0.00    -0.515 NA 
HETATM   19  H   UNL     1     -10.410  16.406  64.678  1.00  0.00     0.000 HD 
BRANCH  18  20
HETATM   20  C   UNL     1      -9.645  17.394  66.261  1.00  0.00    -0.242 C  
HETATM   21  C   UNL     1     -10.350  18.523  66.805  1.00  0.00    -0.401 C  
HETATM   22  C   UNL     1      -8.222  17.252  66.324  1.00  0.00    -0.267 C  
HETATM   23  N   UNL     1      -7.070  17.104  66.388  1.00  0.00    -0.264 NA 
HETATM   24  N   UNL     1     -10.906  19.432  67.267  1.00  0.00    -0.493 NA 
ENDBRANCH  18  20
ENDBRANCH  16  18
ENDBRANCH  13  16
ENDBRANCH   9  10
TORSDOF 4
ENDMDL
MODEL      120
REMARK 921   NORMALIZED FREE ENERGY PREDICTED BY IDOCK:   -4.73 KCAL/MOL
REMARK 922        TOTAL FREE ENERGY PREDICTED BY IDOCK:   -6.55 KCAL/MOL
REMARK 923 INTER-LIGAND FREE ENERGY PREDICTED BY IDOCK:   -6.26 KCAL/MOL
REMARK 924 INTRA-LIGAND FREE ENERGY PREDICTED BY IDOCK:   -0.29 KCAL/MOL
REMARK 927      BINDING AFFINITY PREDICTED BY RF-SCORE:    0.00 PKD
ROOT
HETATM    1  C   UNL     1     -10.713   7.463  73.377  1.00  0.00    -0.407 C  
HETATM    2  C   UNL     1      -9.543   7.131  72.447  1.00  0.00    -0.168 C  
HETATM    3  C   UNL     1      -8.482   6.331  73.195  1.00  0.00    -0.116 C  
HETATM    4  C   UNL     1      -7.212   7.061  73.513  1.00  0.00    -0.073 C  
HETATM    5  N   UNL     1      -7.034   8.289  72.955  1.00  0.00    -0.108 N  
HETATM    6  O   UNL     1      -6.344   6.554  74.225  1.00  0.00    -0.065 OA 
HETATM    7  H   UNL     1      -6.184   8.787  73.221  1.00  0.00     0.000 HD 
HETATM    8  N   UNL     1      -7.854   8.924  72.089  1.00  0.00    -0.358 NA 
HETATM    9  C   UNL     1      -9.009   8.407  71.799  1.00  0.00    -0.198 C  
ENDROOT
BRANCH   9  10
HETATM   10  C   UNL     1      -9.851   9.126  70.780  1.00  0.00    -0.334 A  
HETATM   11  C   UNL     1      -9.430   9.280  69.457  1.00  0.00    -0.178 A  
HETATM   12  C   UNL     1     -10.197  10.029  68.556  1.00  0.00    -0.196 A  
HETATM   13  C   UNL     1     -11.396  10.640  68.945  1.00  0.00    -0.274 A  
HETATM   14  C   UNL     1     -11.816  10.479  70.270  1.00  0.00    -0.418 A  
HETATM   15  C   UNL     1     -11.056   9.722  71.178  1.00  0.00    -0.414 A  
BRANCH  13  16
HETATM   16  N   UNL     1     -12.138  11.445  68.053  1.00  0.00    -0.615 NA 
HETATM   17  H   UNL     1     -12.832  11.047  67.420  1.00  0.00     0.000 HD 
BRANCH  16  18
HETATM   18  N   UNL     1     -11.874  12.788  68.083  1.00  0.00    -0.341 NA 
HETATM   19  H   UNL     1     -12.074  13.328  68.925  1.00  0.00     0.000 HD 
BRANCH  18  20
HETATM   20  C   UNL     1     -11.369  13.377  67.036  1.00  0.00    -0.317 C  
HETATM   21  C   UNL     1     -12.311  13.638  65.981  1.00  0.00    -0.445 C  
HETATM   22  C   UNL     1      -9.983  13.725  66.956  1.00  0.00    -0.251 C  
HETATM   23  N   UNL     1      -8.859  14.023  66.923  1.00  0.00    -0.220 NA 
HETATM   24  N   UNL     1     -13.061  13.873  65.127  1.00  0.00    -0.764 NA 
ENDBRANCH  18  20
ENDBRANCH  16  18
ENDBRANCH  13  16
ENDBRANCH   9  10
TORSDOF 4
ENDMDL
MODEL      121
REMARK 921   NORMALIZED FREE ENERGY PREDICTED BY IDOCK:   -4.73 KCAL/MOL
REMARK 922        TOTAL FREE ENERGY PREDICTED BY IDOCK:   -6.54 KCAL/MOL
REMARK 923 INTER-LIGAND FREE ENERGY PREDICTED BY IDOCK:   -5.96 KCAL/MOL
REMARK 924 INTRA-LIGAND FREE ENERGY PREDICTED BY IDOCK:   -0.58 KCAL/MOL
REMARK 927      BINDING AFFINITY PREDICTED BY RF-SCORE:    0.00 PKD
ROOT
HETATM    1  C   UNL     1      -7.796   7.891  67.134  1.00  0.00    -0.109 C  
HETATM    2  C   UNL     1      -8.979   7.459  68.003  1.00  0.00    -0.132 C  
HETATM    3  C   UNL     1      -8.897   5.966  68.306  1.00  0.00    -0.110 C  
HETATM    4  C   UNL     1      -9.895   5.097  67.605  1.00  0.00    -0.160 C  
HETATM    5  N   UNL     1     -10.896   5.713  66.918  1.00  0.00    -0.470 N  
HETATM    6  O   UNL     1      -9.837   3.868  67.675  1.00  0.00    -0.143 OA 
HETATM    7  H   UNL     1     -11.537   5.103  66.411  1.00  0.00     0.000 HD 
HETATM    8  N   UNL     1     -11.136   7.040  66.833  1.00  0.00    -0.258 NA 
HETATM    9  C   UNL     1     -10.293   7.881  67.350  1.00  0.00    -0.279 C  
ENDROOT
BRANCH   9  10
HETATM   10  C   UNL     1     -10.646   9.343  67.280  1.00  0.00    -0.314 A  
HETATM   11  C   UNL     1     -10.408  10.102  66.132  1.00  0.00    -0.237 A  
HETATM   12  C   UNL     1     -10.669  11.478  66.130  1.00  0.00    -0.324 A  
HETATM   13  C   UNL     1     -11.170  12.130  67.263  1.00  0.00    -0.306 A  
HETATM   14  C   UNL     1     -11.411  11.365  68.410  1.00  0.00    -0.346 A  
HETATM   15  C   UNL     1     -11.160   9.983  68.417  1.00  0.00    -0.236 A  
BRANCH  13  16
HETATM   16  N   UNL     1     -11.375  13.527  67.280  1.00  0.00    -0.302 NA 
HETATM   17  H   UNL     1     -10.882  14.152  66.641  1.00  0.00     0.000 HD 
BRANCH  16  18
HETATM   18  N   UNL     1     -12.273  13.999  68.200  1.00  0.00    -0.536 NA 
HETATM   19  H   UNL     1     -13.224  13.632  68.220  1.00  0.00     0.000 HD 
BRANCH  18  20
HETATM   20  C   UNL     1     -11.911  14.918  69.051  1.00  0.00    -0.272 C  
HETATM   21  C   UNL     1     -12.197  14.609  70.426  1.00  0.00    -0.329 C  
HETATM   22  C   UNL     1     -11.285  16.135  68.632  1.00  0.00    -0.369 C  
HETATM   23  N   UNL     1     -10.753  17.105  68.273  1.00  0.00    -0.375 NA 
HETATM   24  N   UNL     1     -12.403  14.368  71.543  1.00  0.00    -0.349 NA 
ENDBRANCH  18  20
ENDBRANCH  16  18
ENDBRANCH  13  16
ENDBRANCH   9  10
TORSDOF 4
ENDMDL
MODEL      122
REMARK 921   NORMALIZED FREE ENERGY PREDICTED BY IDOCK:   -4.70 KCAL/MOL
REMARK 922        TOTAL FREE ENERGY PREDICTED BY IDOCK:   -6.51 KCAL/MOL
REMARK 923 INTER-LIGAND FREE ENERGY PREDICTED BY IDOCK:   -6.43 KCAL/MOL
REMARK 924 INTRA-LIGAND FREE ENERGY PREDICTED BY IDOCK:   -0.08 KCAL/MOL
REMARK 927      BINDING AFFINITY PREDICTED BY RF-SCORE:    0.00 PKD
ROOT
HETATM    1  C   UNL     1      -9.605  10.730  63.097  1.00  0.00    -0.385 C  
HETATM    2  C   UNL     1      -8.783  10.369  64.337  1.00  0.00    -0.209 C  
HETATM    3  C   UNL     1      -7.875   9.179  64.043  1.00  0.00    -0.129 C  
HETATM    4  C   UNL     1      -8.262   7.883  64.686  1.00  0.00    -0.091 C  
HETATM    5  N   UNL     1      -9.259   7.910  65.611  1.00  0.00    -0.400 N  
HETATM    6  O   UNL     1      -7.676   6.833  64.414  1.00  0.00    -0.098 OA 
HETATM    7  H   UNL     1      -9.537   7.009  66.002  1.00  0.00     0.000 HD 
HETATM    8  N   UNL     1      -9.921   8.994  66.072  1.00  0.00    -0.256 NA 
HETATM    9  C   UNL     1      -9.707  10.156  65.534  1.00  0.00    -0.281 C  
ENDROOT
BRANCH   9  10
HETATM   10  C   UNL     1     -10.426  11.336  66.132  1.00  0.00    -0.305 A  
HETATM   11  C   UNL     1     -11.380  12.056  65.411  1.00  0.00    -0.375 A  
HETATM   12  C   UNL     1     -11.967  13.200  65.966  1.00  0.00    -0.488 A  
HETATM   13  C   UNL     1     -11.621  13.654  67.245  1.00  0.00    -0.356 A  
HETATM   14  C   UNL     1     -10.667  12.926  67.965  1.00  0.00    -0.244 A  
HETATM   15  C   UNL     1     -10.081  11.773  67.419  1.00  0.00    -0.212 A  
BRANCH  13  16
HETATM   16  N   UNL     1     -12.168  14.842  67.780  1.00  0.00    -0.562 NA 
HETATM   17  H   UNL     1     -13.167  15.042  67.734  1.00  0.00     0.000 HD 
BRANCH  16  18
HETATM   18  N   UNL     1     -11.284  15.709  68.364  1.00  0.00    -0.334 NA 
HETATM   19  H   UNL     1     -11.381  15.949  69.351  1.00  0.00     0.000 HD 
BRANCH  18  20
HETATM   20  C   UNL     1     -10.318  16.228  67.660  1.00  0.00    -0.284 C  
HETATM   21  C   UNL     1      -9.092  16.436  68.382  1.00  0.00    -0.214 C  
HETATM   22  C   UNL     1     -10.483  16.562  66.278  1.00  0.00    -0.281 C  
HETATM   23  N   UNL     1     -10.630  16.803  65.149  1.00  0.00    -0.682 NA 
HETATM   24  N   UNL     1      -8.089  16.594  68.944  1.00  0.00    -0.243 NA 
ENDBRANCH  18  20
ENDBRANCH  16  18
ENDBRANCH  13  16
ENDBRANCH   9  10
TORSDOF 4
ENDMDL
MODEL      123
REMARK 921   NORMALIZED FREE ENERGY PREDICTED BY IDOCK:   -4.69 KCAL/MOL
REMARK 922        TOTAL FREE ENERGY PREDICTED BY IDOCK:   -6.50 KCAL/MOL
REMARK 923 INTER-LIGAND FREE ENERGY PREDICTED BY IDOCK:   -5.66 KCAL/MOL
REMARK 924 INTRA-LIGAND FREE ENERGY PREDICTED BY IDOCK:   -0.84 KCAL/MOL
REMARK 927      BINDING AFFINITY PREDICTED BY RF-SCORE:    0.00 PKD
ROOT
HETATM    1  C   UNL     1      -9.674  12.452  65.640  1.00  0.00    -0.183 C  
HETATM    2  C   UNL     1      -9.484  11.921  67.063  1.00  0.00    -0.192 C  
HETATM    3  C   UNL     1      -9.520  10.396  67.069  1.00  0.00    -0.189 C  
HETATM    4  C   UNL     1     -10.744   9.770  67.664  1.00  0.00    -0.274 C  
HETATM    5  N   UNL     1     -11.620  10.586  68.310  1.00  0.00    -0.489 N  
HETATM    6  O   UNL     1     -10.936   8.554  67.604  1.00  0.00    -0.091 OA 
HETATM    7  H   UNL     1     -12.469  10.147  68.668  1.00  0.00     0.000 HD 
HETATM    8  N   UNL     1     -11.494  11.913  68.533  1.00  0.00    -0.268 NA 
HETATM    9  C   UNL     1     -10.502  12.563  68.003  1.00  0.00    -0.219 C  
ENDROOT
BRANCH   9  10
HETATM   10  C   UNL     1     -10.378  14.025  68.338  1.00  0.00    -0.251 A  
HETATM   11  C   UNL     1     -11.476  14.886  68.289  1.00  0.00    -0.343 A  
HETATM   12  C   UNL     1     -11.309  16.257  68.524  1.00  0.00    -0.330 A  
HETATM   13  C   UNL     1     -10.052  16.803  68.811  1.00  0.00    -0.286 A  
HETATM   14  C   UNL     1      -8.955  15.935  68.863  1.00  0.00    -0.228 A  
HETATM   15  C   UNL     1      -9.116  14.559  68.638  1.00  0.00    -0.187 A  
BRANCH  13  16
HETATM   16  N   UNL     1      -9.874  18.193  68.987  1.00  0.00    -0.298 NA 
HETATM   17  H   UNL     1      -9.925  18.630  69.908  1.00  0.00     0.000 HD 
BRANCH  16  18
HETATM   18  N   UNL     1      -9.628  18.922  67.854  1.00  0.00    -0.306 NA 
HETATM   19  H   UNL     1     -10.382  19.105  67.192  1.00  0.00     0.000 HD 
BRANCH  18  20
HETATM   20  C   UNL     1      -8.431  19.383  67.623  1.00  0.00    -0.304 C  
HETATM   21  C   UNL     1      -7.600  19.509  68.789  1.00  0.00    -0.351 C  
HETATM   22  C   UNL     1      -7.996  19.735  66.305  1.00  0.00    -0.332 C  
HETATM   23  N   UNL     1      -7.653  19.990  65.224  1.00  0.00    -0.263 NA 
HETATM   24  N   UNL     1      -6.909  19.599  69.718  1.00  0.00    -0.280 NA 
ENDBRANCH  18  20
ENDBRANCH  16  18
ENDBRANCH  13  16
ENDBRANCH   9  10
TORSDOF 4
ENDMDL
MODEL      124
REMARK 921   NORMALIZED FREE ENERGY PREDICTED BY IDOCK:   -4.68 KCAL/MOL
REMARK 922        TOTAL FREE ENERGY PREDICTED BY IDOCK:   -6.48 KCAL/MOL
REMARK 923 INTER-LIGAND FREE ENERGY PREDICTED BY IDOCK:   -5.91 KCAL/MOL
REMARK 924 INTRA-LIGAND FREE ENERGY PREDICTED BY IDOCK:   -0.57 KCAL/MOL
REMARK 927      BINDING AFFINITY PREDICTED BY RF-SCORE:    0.00 PKD
ROOT
HETATM    1  C   UNL     1     -11.249  14.329  69.176  1.00  0.00    -0.302 C  
HETATM    2  C   UNL     1     -11.151  13.702  67.783  1.00  0.00    -0.293 C  
HETATM    3  C   UNL     1     -11.740  12.295  67.793  1.00  0.00    -0.403 C  
HETATM    4  C   UNL     1     -10.756  11.171  67.687  1.00  0.00    -0.230 C  
HETATM    5  N   UNL     1      -9.462  11.488  67.405  1.00  0.00    -0.165 N  
HETATM    6  O   UNL     1     -11.107   9.997  67.815  1.00  0.00    -0.286 OA 
HETATM    7  H   UNL     1      -8.801  10.712  67.383  1.00  0.00     0.000 HD 
HETATM    8  N   UNL     1      -8.956  12.715  67.150  1.00  0.00    -0.199 NA 
HETATM    9  C   UNL     1      -9.711  13.763  67.280  1.00  0.00    -0.242 C  
ENDROOT
BRANCH   9  10
HETATM   10  C   UNL     1      -9.109  15.095  66.920  1.00  0.00    -0.270 A  
HETATM   11  C   UNL     1      -9.865  16.104  66.320  1.00  0.00    -0.329 A  
HETATM   12  C   UNL     1      -9.255  17.299  65.920  1.00  0.00    -0.005 A  
HETATM   13  C   UNL     1      -7.884  17.520  66.106  1.00  0.00    -0.246 A  
HETATM   14  C   UNL     1      -7.132  16.507  66.711  1.00  0.00    -0.253 A  
HETATM   15  C   UNL     1      -7.738  15.310  67.124  1.00  0.00    -0.238 A  
BRANCH  13  16
HETATM   16  N   UNL     1      -7.258  18.700  65.647  1.00  0.00    -0.501 NA 
HETATM   17  H   UNL     1      -6.367  18.678  65.150  1.00  0.00     0.000 HD 
BRANCH  16  18
HETATM   18  N   UNL     1      -7.911  19.875  65.907  1.00  0.00    -0.421 NA 
HETATM   19  H   UNL     1      -8.333  20.404  65.143  1.00  0.00     0.000 HD 
BRANCH  18  20
HETATM   20  C   UNL     1      -7.993  20.319  67.129  1.00  0.00    -0.339 C  
HETATM   21  C   UNL     1      -9.329  20.384  67.656  1.00  0.00    -0.320 C  
HETATM   22  C   UNL     1      -6.835  20.711  67.873  1.00  0.00    -0.293 C  
HETATM   23  N   UNL     1      -5.878  20.999  68.469  1.00  0.00    -0.346 NA 
HETATM   24  N   UNL     1     -10.400  20.425  68.105  1.00  0.00    -0.231 NA 
ENDBRANCH  18  20
ENDBRANCH  16  18
ENDBRANCH  13  16
ENDBRANCH   9  10
TORSDOF 4
ENDMDL
MODEL      125
REMARK 921   NORMALIZED FREE ENERGY PREDICTED BY IDOCK:   -4.67 KCAL/MOL
REMARK 922        TOTAL FREE ENERGY PREDICTED BY IDOCK:   -6.46 KCAL/MOL
REMARK 923 INTER-LIGAND FREE ENERGY PREDICTED BY IDOCK:   -5.92 KCAL/MOL
REMARK 924 INTRA-LIGAND FREE ENERGY PREDICTED BY IDOCK:   -0.54 KCAL/MOL
REMARK 927      BINDING AFFINITY PREDICTED BY RF-SCORE:    0.00 PKD
ROOT
HETATM    1  C   UNL     1     -12.367  13.607  70.044  1.00  0.00    -0.342 C  
HETATM    2  C   UNL     1     -10.994  13.985  69.482  1.00  0.00    -0.138 C  
HETATM    3  C   UNL     1     -10.854  15.502  69.402  1.00  0.00    -0.261 C  
HETATM    4  C   UNL     1     -10.889  16.093  68.026  1.00  0.00    -0.333 C  
HETATM    5  N   UNL     1     -10.851  15.236  66.970  1.00  0.00    -0.318 N  
HETATM    6  O   UNL     1     -10.915  17.313  67.853  1.00  0.00    -0.336 OA 
HETATM    7  H   UNL     1     -10.923  15.657  66.043  1.00  0.00     0.000 HD 
HETATM    8  N   UNL     1     -10.730  13.891  67.009  1.00  0.00    -0.282 NA 
HETATM    9  C   UNL     1     -10.757  13.275  68.152  1.00  0.00    -0.249 C  
ENDROOT
BRANCH   9  10
HETATM   10  C   UNL     1     -10.552  11.784  68.137  1.00  0.00    -0.230 A  
HETATM   11  C   UNL     1     -10.799  11.020  66.994  1.00  0.00    -0.334 A  
HETATM   12  C   UNL     1     -10.682   9.625  67.039  1.00  0.00    -0.225 A  
HETATM   13  C   UNL     1     -10.318   8.958  68.216  1.00  0.00    -0.206 A  
HETATM   14  C   UNL     1     -10.068   9.728  69.358  1.00  0.00    -0.221 A  
HETATM   15  C   UNL     1     -10.175  11.128  69.318  1.00  0.00    -0.110 A  
BRANCH  13  16
HETATM   16  N   UNL     1     -10.259   7.548  68.277  1.00  0.00    -0.181 NA 
HETATM   17  H   UNL     1      -9.428   7.031  67.990  1.00  0.00     0.000 HD 
BRANCH  16  18
HETATM   18  N   UNL     1     -11.379   6.913  68.743  1.00  0.00    -0.533 NA 
HETATM   19  H   UNL     1     -12.222   6.877  68.169  1.00  0.00     0.000 HD 
BRANCH  18  20
HETATM   20  C   UNL     1     -11.369   6.354  69.920  1.00  0.00    -0.434 C  
HETATM   21  C   UNL     1     -10.431   5.273  70.064  1.00  0.00    -0.281 C  
HETATM   22  C   UNL     1     -12.232   6.791  70.975  1.00  0.00    -0.352 C  
HETATM   23  N   UNL     1     -12.923   7.178  71.827  1.00  0.00    -0.349 NA 
HETATM   24  N   UNL     1      -9.667   4.410  70.203  1.00  0.00    -0.204 NA 
ENDBRANCH  18  20
ENDBRANCH  16  18
ENDBRANCH  13  16
ENDBRANCH   9  10
TORSDOF 4
ENDMDL
MODEL      126
REMARK 921   NORMALIZED FREE ENERGY PREDICTED BY IDOCK:   -4.66 KCAL/MOL
REMARK 922        TOTAL FREE ENERGY PREDICTED BY IDOCK:   -6.45 KCAL/MOL
REMARK 923 INTER-LIGAND FREE ENERGY PREDICTED BY IDOCK:   -5.93 KCAL/MOL
REMARK 924 INTRA-LIGAND FREE ENERGY PREDICTED BY IDOCK:   -0.52 KCAL/MOL
REMARK 927      BINDING AFFINITY PREDICTED BY RF-SCORE:    0.00 PKD
ROOT
HETATM    1  C   UNL     1     -12.456   8.098  71.602  1.00  0.00    -0.349 C  
HETATM    2  C   UNL     1     -11.885   6.716  71.273  1.00  0.00    -0.403 C  
HETATM    3  C   UNL     1     -12.012   5.790  72.479  1.00  0.00    -0.157 C  
HETATM    4  C   UNL     1     -10.736   5.462  73.192  1.00  0.00    -0.266 C  
HETATM    5  N   UNL     1      -9.569   5.850  72.610  1.00  0.00    -0.153 N  
HETATM    6  O   UNL     1     -10.738   4.831  74.251  1.00  0.00    -0.289 OA 
HETATM    7  H   UNL     1      -8.716   5.657  73.134  1.00  0.00     0.000 HD 
HETATM    8  N   UNL     1      -9.413   6.462  71.415  1.00  0.00    -0.156 NA 
HETATM    9  C   UNL     1     -10.458   6.849  70.748  1.00  0.00    -0.216 C  
ENDROOT
BRANCH   9  10
HETATM   10  C   UNL     1     -10.223   7.466  69.395  1.00  0.00    -0.201 A  
HETATM   11  C   UNL     1      -9.424   8.599  69.234  1.00  0.00    -0.158 A  
HETATM   12  C   UNL     1      -9.296   9.199  67.975  1.00  0.00    -0.149 A  
HETATM   13  C   UNL     1      -9.957   8.688  66.850  1.00  0.00    -0.260 A  
HETATM   14  C   UNL     1     -10.753   7.550  67.016  1.00  0.00    -0.367 A  
HETATM   15  C   UNL     1     -10.879   6.938  68.274  1.00  0.00    -0.244 A  
BRANCH  13  16
HETATM   16  N   UNL     1      -9.877   9.328  65.593  1.00  0.00    -0.441 NA 
HETATM   17  H   UNL     1      -9.918   8.804  64.719  1.00  0.00     0.000 HD 
BRANCH  16  18
HETATM   18  N   UNL     1      -9.740  10.691  65.613  1.00  0.00    -0.215 NA 
HETATM   19  H   UNL     1      -8.811  11.111  65.586  1.00  0.00     0.000 HD 
BRANCH  18  20
HETATM   20  C   UNL     1     -10.798  11.450  65.665  1.00  0.00    -0.218 C  
HETATM   21  C   UNL     1     -11.222  11.978  64.396  1.00  0.00    -0.344 C  
HETATM   22  C   UNL     1     -11.470  11.732  66.897  1.00  0.00    -0.293 C  
HETATM   23  N   UNL     1     -12.016  11.926  67.905  1.00  0.00    -0.577 NA 
HETATM   24  N   UNL     1     -11.590  12.397  63.377  1.00  0.00    -0.473 NA 
ENDBRANCH  18  20
ENDBRANCH  16  18
ENDBRANCH  13  16
ENDBRANCH   9  10
TORSDOF 4
ENDMDL
MODEL      127
REMARK 921   NORMALIZED FREE ENERGY PREDICTED BY IDOCK:   -4.65 KCAL/MOL
REMARK 922        TOTAL FREE ENERGY PREDICTED BY IDOCK:   -6.44 KCAL/MOL
REMARK 923 INTER-LIGAND FREE ENERGY PREDICTED BY IDOCK:   -5.97 KCAL/MOL
REMARK 924 INTRA-LIGAND FREE ENERGY PREDICTED BY IDOCK:   -0.48 KCAL/MOL
REMARK 927      BINDING AFFINITY PREDICTED BY RF-SCORE:    0.00 PKD
ROOT
HETATM    1  C   UNL     1      -7.000  16.622  68.038  1.00  0.00    -0.156 C  
HETATM    2  C   UNL     1      -7.409  16.803  66.574  1.00  0.00    -0.306 C  
HETATM    3  C   UNL     1      -6.847  18.111  66.025  1.00  0.00    -0.318 C  
HETATM    4  C   UNL     1      -7.841  19.207  65.792  1.00  0.00    -0.012 C  
HETATM    5  N   UNL     1      -9.162  18.896  65.904  1.00  0.00     0.004 N  
HETATM    6  O   UNL     1      -7.482  20.342  65.475  1.00  0.00    -0.275 OA 
HETATM    7  H   UNL     1      -9.819  19.667  65.786  1.00  0.00     0.000 HD 
HETATM    8  N   UNL     1      -9.700  17.682  66.152  1.00  0.00    -0.485 NA 
HETATM    9  C   UNL     1      -8.925  16.679  66.433  1.00  0.00    -0.291 C  
ENDROOT
BRANCH   9  10
HETATM   10  C   UNL     1      -9.577  15.338  66.637  1.00  0.00    -0.276 A  
HETATM   11  C   UNL     1      -8.917  14.146  66.333  1.00  0.00    -0.069 A  
HETATM   12  C   UNL     1      -9.584  12.920  66.453  1.00  0.00    -0.252 A  
HETATM   13  C   UNL     1     -10.917  12.850  66.877  1.00  0.00    -0.266 A  
HETATM   14  C   UNL     1     -11.573  14.047  67.184  1.00  0.00    -0.397 A  
HETATM   15  C   UNL     1     -10.909  15.279  67.075  1.00  0.00    -0.321 A  
BRANCH  13  16
HETATM   16  N   UNL     1     -11.607  11.619  66.939  1.00  0.00    -0.542 NA 
HETATM   17  H   UNL     1     -11.633  10.975  66.148  1.00  0.00     0.000 HD 
BRANCH  16  18
HETATM   18  N   UNL     1     -12.240  11.336  68.120  1.00  0.00    -0.599 NA 
HETATM   19  H   UNL     1     -13.237  11.122  68.127  1.00  0.00     0.000 HD 
BRANCH  18  20
HETATM   20  C   UNL     1     -11.568  11.341  69.237  1.00  0.00    -0.322 C  
HETATM   21  C   UNL     1     -12.066  12.249  70.234  1.00  0.00    -0.295 C  
HETATM   22  C   UNL     1     -10.423  10.506  69.436  1.00  0.00    -0.240 C  
HETATM   23  N   UNL     1      -9.511   9.800  69.587  1.00  0.00    -0.205 NA 
HETATM   24  N   UNL     1     -12.466  12.963  71.058  1.00  0.00    -0.348 NA 
ENDBRANCH  18  20
ENDBRANCH  16  18
ENDBRANCH  13  16
ENDBRANCH   9  10
TORSDOF 4
ENDMDL
MODEL      128
REMARK 921   NORMALIZED FREE ENERGY PREDICTED BY IDOCK:   -4.65 KCAL/MOL
REMARK 922        TOTAL FREE ENERGY PREDICTED BY IDOCK:   -6.44 KCAL/MOL
REMARK 923 INTER-LIGAND FREE ENERGY PREDICTED BY IDOCK:   -5.98 KCAL/MOL
REMARK 924 INTRA-LIGAND FREE ENERGY PREDICTED BY IDOCK:   -0.46 KCAL/MOL
REMARK 927      BINDING AFFINITY PREDICTED BY RF-SCORE:    0.00 PKD
ROOT
HETATM    1  C   UNL     1     -10.912  18.177  67.356  1.00  0.00    -0.113 C  
HETATM    2  C   UNL     1      -9.581  17.672  67.919  1.00  0.00    -0.282 C  
HETATM    3  C   UNL     1      -8.567  18.810  67.981  1.00  0.00    -0.324 C  
HETATM    4  C   UNL     1      -7.453  18.754  66.981  1.00  0.00    -0.219 C  
HETATM    5  N   UNL     1      -7.329  17.620  66.237  1.00  0.00    -0.284 N  
HETATM    6  O   UNL     1      -6.656  19.684  66.857  1.00  0.00    -0.193 OA 
HETATM    7  H   UNL     1      -6.594  17.622  65.530  1.00  0.00     0.000 HD 
HETATM    8  N   UNL     1      -8.070  16.493  66.330  1.00  0.00    -0.328 NA 
HETATM    9  C   UNL     1      -9.099  16.463  67.120  1.00  0.00    -0.205 C  
ENDROOT
BRANCH   9  10
HETATM   10  C   UNL     1      -9.846  15.160  67.230  1.00  0.00    -0.228 A  
HETATM   11  C   UNL     1     -10.809  14.785  66.291  1.00  0.00    -0.322 A  
HETATM   12  C   UNL     1     -11.547  13.608  66.469  1.00  0.00    -0.392 A  
HETATM   13  C   UNL     1     -11.346  12.778  67.580  1.00  0.00    -0.312 A  
HETATM   14  C   UNL     1     -10.376  13.157  68.516  1.00  0.00    -0.245 A  
HETATM   15  C   UNL     1      -9.627  14.331  68.339  1.00  0.00    -0.221 A  
BRANCH  13  16
HETATM   16  N   UNL     1     -12.131  11.624  67.791  1.00  0.00    -0.579 NA 
HETATM   17  H   UNL     1     -12.834  11.320  67.116  1.00  0.00     0.000 HD 
BRANCH  16  18
HETATM   18  N   UNL     1     -11.899  10.934  68.950  1.00  0.00    -0.518 NA 
HETATM   19  H   UNL     1     -12.379  11.203  69.809  1.00  0.00     0.000 HD 
BRANCH  18  20
HETATM   20  C   UNL     1     -11.064   9.933  68.957  1.00  0.00    -0.146 C  
HETATM   21  C   UNL     1     -10.581   9.561  70.259  1.00  0.00    -0.266 C  
HETATM   22  C   UNL     1     -10.665   9.271  67.752  1.00  0.00    -0.207 C  
HETATM   23  N   UNL     1     -10.374   8.730  66.764  1.00  0.00    -0.279 NA 
HETATM   24  N   UNL     1     -10.196   9.235  71.305  1.00  0.00    -0.319 NA 
ENDBRANCH  18  20
ENDBRANCH  16  18
ENDBRANCH  13  16
ENDBRANCH   9  10
TORSDOF 4
ENDMDL
MODEL      129
REMARK 921   NORMALIZED FREE ENERGY PREDICTED BY IDOCK:   -4.61 KCAL/MOL
REMARK 922        TOTAL FREE ENERGY PREDICTED BY IDOCK:   -6.40 KCAL/MOL
REMARK 923 INTER-LIGAND FREE ENERGY PREDICTED BY IDOCK:   -5.65 KCAL/MOL
REMARK 924 INTRA-LIGAND FREE ENERGY PREDICTED BY IDOCK:   -0.75 KCAL/MOL
REMARK 927      BINDING AFFINITY PREDICTED BY RF-SCORE:    0.00 PKD
ROOT
HETATM    1  C   UNL     1      -9.688   6.059  66.477  1.00  0.00    -0.183 C  
HETATM    2  C   UNL     1      -8.378   6.792  66.775  1.00  0.00    -0.115 C  
HETATM    3  C   UNL     1      -7.269   5.791  67.084  1.00  0.00    -0.075 C  
HETATM    4  C   UNL     1      -6.830   5.718  68.515  1.00  0.00    -0.063 C  
HETATM    5  N   UNL     1      -7.309   6.662  69.371  1.00  0.00    -0.089 N  
HETATM    6  O   UNL     1      -6.037   4.858  68.899  1.00  0.00    -0.027 OA 
HETATM    7  H   UNL     1      -7.034   6.567  70.348  1.00  0.00     0.000 HD 
HETATM    8  N   UNL     1      -8.106   7.712  69.072  1.00  0.00    -0.124 NA 
HETATM    9  C   UNL     1      -8.595   7.829  67.875  1.00  0.00    -0.122 C  
ENDROOT
BRANCH   9  10
HETATM   10  C   UNL     1      -9.423   9.052  67.584  1.00  0.00    -0.166 A  
HETATM   11  C   UNL     1     -10.393   9.511  68.477  1.00  0.00    -0.234 A  
HETATM   12  C   UNL     1     -11.205  10.600  68.138  1.00  0.00    -0.366 A  
HETATM   13  C   UNL     1     -11.073  11.257  66.908  1.00  0.00    -0.275 A  
HETATM   14  C   UNL     1     -10.096  10.796  66.018  1.00  0.00    -0.305 A  
HETATM   15  C   UNL     1      -9.272   9.710  66.355  1.00  0.00    -0.205 A  
BRANCH  13  16
HETATM   16  N   UNL     1     -11.932  12.317  66.541  1.00  0.00    -0.626 NA 
HETATM   17  H   UNL     1     -12.865  12.417  66.942  1.00  0.00     0.000 HD 
BRANCH  16  18
HETATM   18  N   UNL     1     -11.445  13.202  65.617  1.00  0.00    -0.314 NA 
HETATM   19  H   UNL     1     -11.067  12.862  64.733  1.00  0.00     0.000 HD 
BRANCH  18  20
HETATM   20  C   UNL     1     -11.464  14.481  65.868  1.00  0.00    -0.345 C  
HETATM   21  C   UNL     1     -11.420  14.820  67.265  1.00  0.00    -0.366 C  
HETATM   22  C   UNL     1     -11.529  15.458  64.824  1.00  0.00    -0.336 C  
HETATM   23  N   UNL     1     -11.555  16.236  63.960  1.00  0.00    -1.007 NA 
HETATM   24  N   UNL     1     -11.366  15.112  68.388  1.00  0.00    -0.300 NA 
ENDBRANCH  18  20
ENDBRANCH  16  18
ENDBRANCH  13  16
ENDBRANCH   9  10
TORSDOF 4
ENDMDL
MODEL      130
REMARK 921   NORMALIZED FREE ENERGY PREDICTED BY IDOCK:   -4.58 KCAL/MOL
REMARK 922        TOTAL FREE ENERGY PREDICTED BY IDOCK:   -6.36 KCAL/MOL
REMARK 923 INTER-LIGAND FREE ENERGY PREDICTED BY IDOCK:   -5.97 KCAL/MOL
REMARK 924 INTRA-LIGAND FREE ENERGY PREDICTED BY IDOCK:   -0.39 KCAL/MOL
REMARK 927      BINDING AFFINITY PREDICTED BY RF-SCORE:    0.00 PKD
ROOT
HETATM    1  C   UNL     1     -10.945  14.560  70.243  1.00  0.00    -0.005 C  
HETATM    2  C   UNL     1     -12.430  14.194  70.304  1.00  0.00    -0.416 C  
HETATM    3  C   UNL     1     -13.243  15.366  70.846  1.00  0.00    -0.512 C  
HETATM    4  C   UNL     1     -13.784  15.204  72.233  1.00  0.00    -0.491 C  
HETATM    5  N   UNL     1     -13.674  13.979  72.814  1.00  0.00    -0.445 N  
HETATM    6  O   UNL     1     -14.342  16.135  72.816  1.00  0.00    -0.309 OA 
HETATM    7  H   UNL     1     -14.008  13.903  73.776  1.00  0.00     0.000 HD 
HETATM    8  N   UNL     1     -13.174  12.851  72.263  1.00  0.00    -0.464 NA 
HETATM    9  C   UNL     1     -12.620  12.899  71.090  1.00  0.00    -0.281 C  
ENDROOT
BRANCH   9  10
HETATM   10  C   UNL     1     -12.139  11.600  70.501  1.00  0.00    -0.458 A  
HETATM   11  C   UNL     1     -11.537  11.543  69.242  1.00  0.00    -0.388 A  
HETATM   12  C   UNL     1     -11.179  10.308  68.687  1.00  0.00    -0.263 A  
HETATM   13  C   UNL     1     -11.410   9.105  69.366  1.00  0.00     0.202 A  
HETATM   14  C   UNL     1     -12.009   9.168  70.629  1.00  0.00    -0.171 A  
HETATM   15  C   UNL     1     -12.363  10.403  71.196  1.00  0.00    -0.505 A  
BRANCH  13  16
HETATM   16  N   UNL     1     -11.105   7.857  68.780  1.00  0.00    -0.395 NA 
HETATM   17  H   UNL     1     -10.886   7.767  67.787  1.00  0.00     0.000 HD 
BRANCH  16  18
HETATM   18  N   UNL     1     -11.118   6.773  69.617  1.00  0.00    -0.352 NA 
HETATM   19  H   UNL     1     -11.982   6.501  70.087  1.00  0.00     0.000 HD 
BRANCH  18  20
HETATM   20  C   UNL     1     -10.026   6.089  69.814  1.00  0.00    -0.175 C  
HETATM   21  C   UNL     1      -9.615   5.996  71.188  1.00  0.00    -0.172 C  
HETATM   22  C   UNL     1      -9.303   5.487  68.734  1.00  0.00    -0.125 C  
HETATM   23  N   UNL     1      -8.746   4.985  67.846  1.00  0.00    -0.103 NA 
HETATM   24  N   UNL     1      -9.278   5.895  72.295  1.00  0.00    -0.145 NA 
ENDBRANCH  18  20
ENDBRANCH  16  18
ENDBRANCH  13  16
ENDBRANCH   9  10
TORSDOF 4
ENDMDL
MODEL      131
REMARK 921   NORMALIZED FREE ENERGY PREDICTED BY IDOCK:   -4.58 KCAL/MOL
REMARK 922        TOTAL FREE ENERGY PREDICTED BY IDOCK:   -6.36 KCAL/MOL
REMARK 923 INTER-LIGAND FREE ENERGY PREDICTED BY IDOCK:   -5.87 KCAL/MOL
REMARK 924 INTRA-LIGAND FREE ENERGY PREDICTED BY IDOCK:   -0.48 KCAL/MOL
REMARK 927      BINDING AFFINITY PREDICTED BY RF-SCORE:    0.00 PKD
ROOT
HETATM    1  C   UNL     1     -12.109   8.176  72.078  1.00  0.00    -0.388 C  
HETATM    2  C   UNL     1     -11.668   6.958  71.261  1.00  0.00    -0.371 C  
HETATM    3  C   UNL     1     -11.609   5.719  72.148  1.00  0.00    -0.265 C  
HETATM    4  C   UNL     1     -10.239   5.214  72.482  1.00  0.00    -0.194 C  
HETATM    5  N   UNL     1      -9.184   5.772  71.828  1.00  0.00    -0.145 N  
HETATM    6  O   UNL     1     -10.072   4.301  73.292  1.00  0.00    -0.134 OA 
HETATM    7  H   UNL     1      -8.257   5.446  72.103  1.00  0.00     0.000 HD 
HETATM    8  N   UNL     1      -9.225   6.709  70.855  1.00  0.00    -0.157 NA 
HETATM    9  C   UNL     1     -10.357   7.259  70.538  1.00  0.00    -0.206 C  
ENDROOT
BRANCH   9  10
HETATM   10  C   UNL     1     -10.350   8.248  69.403  1.00  0.00    -0.223 A  
HETATM   11  C   UNL     1     -10.285   9.624  69.629  1.00  0.00    -0.239 A  
HETATM   12  C   UNL     1     -10.368  10.520  68.556  1.00  0.00    -0.199 A  
HETATM   13  C   UNL     1     -10.515  10.072  67.237  1.00  0.00    -0.254 A  
HETATM   14  C   UNL     1     -10.576   8.691  67.015  1.00  0.00    -0.293 A  
HETATM   15  C   UNL     1     -10.485   7.787  68.085  1.00  0.00    -0.230 A  
BRANCH  13  16
HETATM   16  N   UNL     1     -10.660  10.976  66.162  1.00  0.00    -0.250 NA 
HETATM   17  H   UNL     1     -10.906  10.661  65.223  1.00  0.00     0.000 HD 
BRANCH  16  18
HETATM   18  N   UNL     1     -10.450  12.299  66.448  1.00  0.00    -0.232 NA 
HETATM   19  H   UNL     1      -9.528  12.617  66.746  1.00  0.00     0.000 HD 
BRANCH  18  20
HETATM   20  C   UNL     1     -11.430  13.151  66.340  1.00  0.00    -0.334 C  
HETATM   21  C   UNL     1     -11.721  13.888  67.540  1.00  0.00    -0.380 C  
HETATM   22  C   UNL     1     -12.153  13.325  65.116  1.00  0.00    -0.413 C  
HETATM   23  N   UNL     1     -12.710  13.470  64.106  1.00  0.00    -0.651 NA 
HETATM   24  N   UNL     1     -11.957  14.505  68.495  1.00  0.00    -0.315 NA 
ENDBRANCH  18  20
ENDBRANCH  16  18
ENDBRANCH  13  16
ENDBRANCH   9  10
TORSDOF 4
ENDMDL
MODEL      132
REMARK 921   NORMALIZED FREE ENERGY PREDICTED BY IDOCK:   -4.56 KCAL/MOL
REMARK 922        TOTAL FREE ENERGY PREDICTED BY IDOCK:   -6.33 KCAL/MOL
REMARK 923 INTER-LIGAND FREE ENERGY PREDICTED BY IDOCK:   -5.75 KCAL/MOL
REMARK 924 INTRA-LIGAND FREE ENERGY PREDICTED BY IDOCK:   -0.58 KCAL/MOL
REMARK 927      BINDING AFFINITY PREDICTED BY RF-SCORE:    0.00 PKD
ROOT
HETATM    1  C   UNL     1      -6.222  17.104  69.594  1.00  0.00    -0.235 C  
HETATM    2  C   UNL     1      -6.878  17.493  68.267  1.00  0.00    -0.200 C  
HETATM    3  C   UNL     1      -6.367  18.854  67.803  1.00  0.00    -0.216 C  
HETATM    4  C   UNL     1      -7.338  19.990  67.902  1.00  0.00    -0.297 C  
HETATM    5  N   UNL     1      -8.629  19.691  68.212  1.00  0.00    -0.329 N  
HETATM    6  O   UNL     1      -6.992  21.150  67.678  1.00  0.00    -0.365 OA 
HETATM    7  H   UNL     1      -9.263  20.483  68.320  1.00  0.00     0.000 HD 
HETATM    8  N   UNL     1      -9.167  18.464  68.392  1.00  0.00    -0.314 NA 
HETATM    9  C   UNL     1      -8.398  17.418  68.391  1.00  0.00    -0.263 C  
ENDROOT
BRANCH   9  10
HETATM   10  C   UNL     1      -9.062  16.074  68.532  1.00  0.00    -0.203 A  
HETATM   11  C   UNL     1      -8.597  14.950  67.846  1.00  0.00    -0.160 A  
HETATM   12  C   UNL     1      -9.289  13.735  67.932  1.00  0.00    -0.211 A  
HETATM   13  C   UNL     1     -10.455  13.609  68.698  1.00  0.00    -0.234 A  
HETATM   14  C   UNL     1     -10.914  14.737  69.387  1.00  0.00    -0.282 A  
HETATM   15  C   UNL     1     -10.221  15.956  69.313  1.00  0.00    -0.250 A  
BRANCH  13  16
HETATM   16  N   UNL     1     -11.185  12.401  68.736  1.00  0.00    -0.255 NA 
HETATM   17  H   UNL     1     -10.870  11.565  68.242  1.00  0.00     0.000 HD 
BRANCH  16  18
HETATM   18  N   UNL     1     -12.341  12.412  69.471  1.00  0.00    -0.044 NA 
HETATM   19  H   UNL     1     -13.183  12.844  69.092  1.00  0.00     0.000 HD 
BRANCH  18  20
HETATM   20  C   UNL     1     -12.363  11.870  70.656  1.00  0.00    -0.313 C  
HETATM   21  C   UNL     1     -13.091  12.618  71.645  1.00  0.00    -0.323 C  
HETATM   22  C   UNL     1     -11.706  10.629  70.935  1.00  0.00    -0.289 C  
HETATM   23  N   UNL     1     -11.188   9.607  71.134  1.00  0.00    -0.360 NA 
HETATM   24  N   UNL     1     -13.691  13.199  72.452  1.00  0.00    -0.611 NA 
ENDBRANCH  18  20
ENDBRANCH  16  18
ENDBRANCH  13  16
ENDBRANCH   9  10
TORSDOF 4
ENDMDL
MODEL      133
REMARK 921   NORMALIZED FREE ENERGY PREDICTED BY IDOCK:   -4.55 KCAL/MOL
REMARK 922        TOTAL FREE ENERGY PREDICTED BY IDOCK:   -6.32 KCAL/MOL
REMARK 923 INTER-LIGAND FREE ENERGY PREDICTED BY IDOCK:   -5.95 KCAL/MOL
REMARK 924 INTRA-LIGAND FREE ENERGY PREDICTED BY IDOCK:   -0.37 KCAL/MOL
REMARK 927      BINDING AFFINITY PREDICTED BY RF-SCORE:    0.00 PKD
ROOT
HETATM    1  C   UNL     1      -9.015   8.525  68.422  1.00  0.00    -0.139 C  
HETATM    2  C   UNL     1      -9.800   8.020  67.209  1.00  0.00    -0.258 C  
HETATM    3  C   UNL     1      -9.401   6.585  66.880  1.00  0.00    -0.166 C  
HETATM    4  C   UNL     1      -8.577   6.400  65.643  1.00  0.00    -0.133 C  
HETATM    5  N   UNL     1      -8.414   7.476  64.826  1.00  0.00    -0.359 N  
HETATM    6  O   UNL     1      -8.092   5.305  65.354  1.00  0.00    -0.111 OA 
HETATM    7  H   UNL     1      -7.812   7.341  64.013  1.00  0.00     0.000 HD 
HETATM    8  N   UNL     1      -8.961   8.704  64.968  1.00  0.00    -0.080 NA 
HETATM    9  C   UNL     1      -9.638   8.988  66.039  1.00  0.00    -0.272 C  
ENDROOT
BRANCH   9  10
HETATM   10  C   UNL     1     -10.276  10.349  66.112  1.00  0.00    -0.288 A  
HETATM   11  C   UNL     1     -10.016  11.334  65.157  1.00  0.00    -0.312 A  
HETATM   12  C   UNL     1     -10.558  12.617  65.302  1.00  0.00    -0.317 A  
HETATM   13  C   UNL     1     -11.369  12.951  66.394  1.00  0.00    -0.319 A  
HETATM   14  C   UNL     1     -11.630  11.959  67.347  1.00  0.00    -0.367 A  
HETATM   15  C   UNL     1     -11.097  10.667  67.204  1.00  0.00    -0.267 A  
BRANCH  13  16
HETATM   16  N   UNL     1     -11.866  14.261  66.572  1.00  0.00    -0.402 NA 
HETATM   17  H   UNL     1     -11.787  14.969  65.842  1.00  0.00     0.000 HD 
BRANCH  16  18
HETATM   18  N   UNL     1     -12.459  14.528  67.777  1.00  0.00    -0.511 NA 
HETATM   19  H   UNL     1     -13.399  14.184  67.971  1.00  0.00     0.000 HD 
BRANCH  18  20
HETATM   20  C   UNL     1     -11.822  15.224  68.676  1.00  0.00    -0.305 C  
HETATM   21  C   UNL     1     -12.004  14.770  70.028  1.00  0.00    -0.316 C  
HETATM   22  C   UNL     1     -11.012  16.352  68.329  1.00  0.00    -0.355 C  
HETATM   23  N   UNL     1     -10.338  17.249  68.022  1.00  0.00    -0.335 NA 
HETATM   24  N   UNL     1     -12.126  14.405  71.124  1.00  0.00    -0.336 NA 
ENDBRANCH  18  20
ENDBRANCH  16  18
ENDBRANCH  13  16
ENDBRANCH   9  10
TORSDOF 4
ENDMDL
MODEL      134
REMARK 921   NORMALIZED FREE ENERGY PREDICTED BY IDOCK:   -4.54 KCAL/MOL
REMARK 922        TOTAL FREE ENERGY PREDICTED BY IDOCK:   -6.31 KCAL/MOL
REMARK 923 INTER-LIGAND FREE ENERGY PREDICTED BY IDOCK:   -5.84 KCAL/MOL
REMARK 924 INTRA-LIGAND FREE ENERGY PREDICTED BY IDOCK:   -0.48 KCAL/MOL
REMARK 927      BINDING AFFINITY PREDICTED BY RF-SCORE:    0.00 PKD
ROOT
HETATM    1  C   UNL     1     -11.893  15.361  68.771  1.00  0.00    -0.339 C  
HETATM    2  C   UNL     1     -11.239  14.501  67.687  1.00  0.00    -0.335 C  
HETATM    3  C   UNL     1     -12.017  13.202  67.500  1.00  0.00    -0.367 C  
HETATM    4  C   UNL     1     -11.355  11.960  68.012  1.00  0.00    -0.288 C  
HETATM    5  N   UNL     1     -10.060  12.058  68.421  1.00  0.00    -0.208 N  
HETATM    6  O   UNL     1     -11.946  10.880  68.031  1.00  0.00    -0.586 OA 
HETATM    7  H   UNL     1      -9.643  11.211  68.809  1.00  0.00     0.000 HD 
HETATM    8  N   UNL     1      -9.264  13.148  68.371  1.00  0.00    -0.179 NA 
HETATM    9  C   UNL     1      -9.760  14.291  68.005  1.00  0.00    -0.223 C  
ENDROOT
BRANCH   9  10
HETATM   10  C   UNL     1      -8.811  15.455  67.907  1.00  0.00    -0.168 A  
HETATM   11  C   UNL     1      -8.336  15.914  66.677  1.00  0.00    -0.328 A  
HETATM   12  C   UNL     1      -7.388  16.943  66.626  1.00  0.00    -0.298 A  
HETATM   13  C   UNL     1      -6.891  17.539  67.792  1.00  0.00    -0.174 A  
HETATM   14  C   UNL     1      -7.373  17.079  69.023  1.00  0.00    -0.225 A  
HETATM   15  C   UNL     1      -8.330  16.053  69.081  1.00  0.00    -0.244 A  
BRANCH  13  16
HETATM   16  N   UNL     1      -5.890  18.535  67.743  1.00  0.00    -0.166 NA 
HETATM   17  H   UNL     1      -4.901  18.300  67.659  1.00  0.00     0.000 HD 
BRANCH  16  18
HETATM   18  N   UNL     1      -6.320  19.833  67.814  1.00  0.00    -0.208 NA 
HETATM   19  H   UNL     1      -5.963  20.450  68.544  1.00  0.00     0.000 HD 
BRANCH  18  20
HETATM   20  C   UNL     1      -7.186  20.281  66.949  1.00  0.00    -0.270 C  
HETATM   21  C   UNL     1      -6.646  20.552  65.644  1.00  0.00    -0.233 C  
HETATM   22  C   UNL     1      -8.561  20.486  67.289  1.00  0.00    -0.280 C  
HETATM   23  N   UNL     1      -9.679  20.620  67.579  1.00  0.00    -0.424 NA 
HETATM   24  N   UNL     1      -6.232  20.757  64.579  1.00  0.00    -0.294 NA 
ENDBRANCH  18  20
ENDBRANCH  16  18
ENDBRANCH  13  16
ENDBRANCH   9  10
TORSDOF 4
ENDMDL
MODEL      135
REMARK 921   NORMALIZED FREE ENERGY PREDICTED BY IDOCK:   -4.51 KCAL/MOL
REMARK 922        TOTAL FREE ENERGY PREDICTED BY IDOCK:   -6.28 KCAL/MOL
REMARK 923 INTER-LIGAND FREE ENERGY PREDICTED BY IDOCK:   -5.81 KCAL/MOL
REMARK 924 INTRA-LIGAND FREE ENERGY PREDICTED BY IDOCK:   -0.47 KCAL/MOL
REMARK 927      BINDING AFFINITY PREDICTED BY RF-SCORE:    0.00 PKD
ROOT
HETATM    1  C   UNL     1     -11.066   7.399  70.114  1.00  0.00    -0.265 C  
HETATM    2  C   UNL     1     -11.082   8.676  70.959  1.00  0.00    -0.316 C  
HETATM    3  C   UNL     1     -11.845   8.442  72.258  1.00  0.00    -0.456 C  
HETATM    4  C   UNL     1     -13.186   9.101  72.360  1.00  0.00    -0.444 C  
HETATM    5  N   UNL     1     -13.528   9.990  71.389  1.00  0.00    -0.321 N  
HETATM    6  O   UNL     1     -13.941   8.874  73.307  1.00  0.00    -0.238 OA 
HETATM    7  H   UNL     1     -14.464  10.392  71.452  1.00  0.00     0.000 HD 
HETATM    8  N   UNL     1     -12.769  10.401  70.349  1.00  0.00    -0.277 NA 
HETATM    9  C   UNL     1     -11.616   9.844  70.134  1.00  0.00    -0.218 C  
ENDROOT
BRANCH   9  10
HETATM   10  C   UNL     1     -10.788  10.388  69.000  1.00  0.00    -0.273 A  
HETATM   11  C   UNL     1     -11.376  10.927  67.854  1.00  0.00    -0.380 A  
HETATM   12  C   UNL     1     -10.577  11.345  66.782  1.00  0.00    -0.298 A  
HETATM   13  C   UNL     1      -9.181  11.239  66.824  1.00  0.00    -0.175 A  
HETATM   14  C   UNL     1      -8.597  10.702  67.976  1.00  0.00    -0.122 A  
HETATM   15  C   UNL     1      -9.390  10.289  69.059  1.00  0.00    -0.195 A  
BRANCH  13  16
HETATM   16  N   UNL     1      -8.380  11.604  65.719  1.00  0.00    -0.364 NA 
HETATM   17  H   UNL     1      -8.110  12.572  65.547  1.00  0.00     0.000 HD 
BRANCH  16  18
HETATM   18  N   UNL     1      -7.986  10.587  64.891  1.00  0.00    -0.298 NA 
HETATM   19  H   UNL     1      -7.122  10.080  65.081  1.00  0.00     0.000 HD 
BRANCH  18  20
HETATM   20  C   UNL     1      -8.716  10.266  63.860  1.00  0.00    -0.204 C  
HETATM   21  C   UNL     1      -8.280   9.091  63.157  1.00  0.00    -0.181 C  
HETATM   22  C   UNL     1      -9.857  11.038  63.469  1.00  0.00    -0.359 C  
HETATM   23  N   UNL     1     -10.795  11.664  63.184  1.00  0.00    -0.272 NA 
HETATM   24  N   UNL     1      -7.952   8.132  62.588  1.00  0.00    -0.149 NA 
ENDBRANCH  18  20
ENDBRANCH  16  18
ENDBRANCH  13  16
ENDBRANCH   9  10
TORSDOF 4
ENDMDL
MODEL      136
REMARK 921   NORMALIZED FREE ENERGY PREDICTED BY IDOCK:   -4.49 KCAL/MOL
REMARK 922        TOTAL FREE ENERGY PREDICTED BY IDOCK:   -6.25 KCAL/MOL
REMARK 923 INTER-LIGAND FREE ENERGY PREDICTED BY IDOCK:   -5.43 KCAL/MOL
REMARK 924 INTRA-LIGAND FREE ENERGY PREDICTED BY IDOCK:   -0.82 KCAL/MOL
REMARK 927      BINDING AFFINITY PREDICTED BY RF-SCORE:    0.00 PKD
ROOT
HETATM    1  C   UNL     1     -11.844  12.764  67.591  1.00  0.00    -0.396 C  
HETATM    2  C   UNL     1     -10.924  13.261  66.473  1.00  0.00    -0.299 C  
HETATM    3  C   UNL     1     -11.523  14.493  65.802  1.00  0.00    -0.342 C  
HETATM    4  C   UNL     1     -12.064  14.291  64.420  1.00  0.00    -0.468 C  
HETATM    5  N   UNL     1     -11.813  13.100  63.812  1.00  0.00    -0.525 N  
HETATM    6  O   UNL     1     -12.684  15.183  63.838  1.00  0.00    -0.759 OA 
HETATM    7  H   UNL     1     -12.229  12.967  62.890  1.00  0.00     0.000 HD 
HETATM    8  N   UNL     1     -11.074  12.074  64.290  1.00  0.00    -0.328 NA 
HETATM    9  C   UNL     1     -10.615  12.122  65.503  1.00  0.00    -0.277 C  
ENDROOT
BRANCH   9  10
HETATM   10  C   UNL     1      -9.745  10.981  65.957  1.00  0.00    -0.265 A  
HETATM   11  C   UNL     1     -10.121   9.650  65.766  1.00  0.00    -0.274 A  
HETATM   12  C   UNL     1      -9.331   8.613  66.277  1.00  0.00    -0.282 A  
HETATM   13  C   UNL     1      -8.152   8.873  66.988  1.00  0.00    -0.109 A  
HETATM   14  C   UNL     1      -7.777  10.208  67.174  1.00  0.00    -0.092 A  
HETATM   15  C   UNL     1      -8.560  11.253  66.657  1.00  0.00    -0.167 A  
BRANCH  13  16
HETATM   16  N   UNL     1      -7.388   7.830  67.556  1.00  0.00    -0.090 NA 
HETATM   17  H   UNL     1      -6.696   7.312  67.013  1.00  0.00     0.000 HD 
BRANCH  16  18
HETATM   18  N   UNL     1      -7.625   7.550  68.875  1.00  0.00    -0.103 NA 
HETATM   19  H   UNL     1      -7.190   8.116  69.603  1.00  0.00     0.000 HD 
BRANCH  18  20
HETATM   20  C   UNL     1      -8.408   6.560  69.200  1.00  0.00    -0.119 C  
HETATM   21  C   UNL     1      -8.377   5.446  68.291  1.00  0.00    -0.098 C  
HETATM   22  C   UNL     1      -9.231   6.596  70.371  1.00  0.00    -0.156 C  
HETATM   23  N   UNL     1      -9.871   6.635  71.341  1.00  0.00    -0.179 NA 
HETATM   24  N   UNL     1      -8.350   4.530  67.578  1.00  0.00    -0.100 NA 
ENDBRANCH  18  20
ENDBRANCH  16  18
ENDBRANCH  13  16
ENDBRANCH   9  10
TORSDOF 4
ENDMDL
MODEL      137
REMARK 921   NORMALIZED FREE ENERGY PREDICTED BY IDOCK:   -4.47 KCAL/MOL
REMARK 922        TOTAL FREE ENERGY PREDICTED BY IDOCK:   -6.23 KCAL/MOL
REMARK 923 INTER-LIGAND FREE ENERGY PREDICTED BY IDOCK:   -5.99 KCAL/MOL
REMARK 924 INTRA-LIGAND FREE ENERGY PREDICTED BY IDOCK:   -0.24 KCAL/MOL
REMARK 927      BINDING AFFINITY PREDICTED BY RF-SCORE:    0.00 PKD
ROOT
HETATM    1  C   UNL     1     -10.319   8.670  68.560  1.00  0.00    -0.228 C  
HETATM    2  C   UNL     1     -10.680   8.187  67.153  1.00  0.00    -0.264 C  
HETATM    3  C   UNL     1     -10.641   6.663  67.090  1.00  0.00    -0.401 C  
HETATM    4  C   UNL     1      -9.497   6.066  66.329  1.00  0.00    -0.127 C  
HETATM    5  N   UNL     1      -8.708   6.910  65.610  1.00  0.00    -0.298 N  
HETATM    6  O   UNL     1      -9.297   4.851  66.323  1.00  0.00    -0.133 OA 
HETATM    7  H   UNL     1      -7.909   6.489  65.137  1.00  0.00     0.000 HD 
HETATM    8  N   UNL     1      -8.864   8.243  65.451  1.00  0.00    -0.124 NA 
HETATM    9  C   UNL     1      -9.785   8.868  66.120  1.00  0.00    -0.268 C  
ENDROOT
BRANCH   9  10
HETATM   10  C   UNL     1      -9.953  10.340  65.853  1.00  0.00    -0.321 A  
HETATM   11  C   UNL     1      -9.844  11.288  66.872  1.00  0.00    -0.220 A  
HETATM   12  C   UNL     1     -10.091  12.641  66.607  1.00  0.00    -0.248 A  
HETATM   13  C   UNL     1     -10.450  13.082  65.327  1.00  0.00    -0.304 A  
HETATM   14  C   UNL     1     -10.554  12.129  64.307  1.00  0.00    -0.385 A  
HETATM   15  C   UNL     1     -10.299  10.772  64.564  1.00  0.00    -0.401 A  
BRANCH  13  16
HETATM   16  N   UNL     1     -10.758  14.437  65.073  1.00  0.00    -0.398 NA 
HETATM   17  H   UNL     1     -11.018  14.765  64.142  1.00  0.00     0.000 HD 
BRANCH  16  18
HETATM   18  N   UNL     1     -10.691  15.287  66.145  1.00  0.00    -0.314 NA 
HETATM   19  H   UNL     1     -11.301  15.144  66.949  1.00  0.00     0.000 HD 
BRANCH  18  20
HETATM   20  C   UNL     1      -9.846  16.279  66.136  1.00  0.00    -0.334 C  
HETATM   21  C   UNL     1      -8.483  15.911  66.410  1.00  0.00    -0.313 C  
HETATM   22  C   UNL     1     -10.260  17.625  65.878  1.00  0.00    -0.232 C  
HETATM   23  N   UNL     1     -10.613  18.707  65.640  1.00  0.00    -0.587 NA 
HETATM   24  N   UNL     1      -7.375  15.629  66.610  1.00  0.00    -0.092 NA 
ENDBRANCH  18  20
ENDBRANCH  16  18
ENDBRANCH  13  16
ENDBRANCH   9  10
TORSDOF 4
ENDMDL
MODEL      138
REMARK 921   NORMALIZED FREE ENERGY PREDICTED BY IDOCK:   -4.41 KCAL/MOL
REMARK 922        TOTAL FREE ENERGY PREDICTED BY IDOCK:   -6.15 KCAL/MOL
REMARK 923 INTER-LIGAND FREE ENERGY PREDICTED BY IDOCK:   -5.53 KCAL/MOL
REMARK 924 INTRA-LIGAND FREE ENERGY PREDICTED BY IDOCK:   -0.61 KCAL/MOL
REMARK 927      BINDING AFFINITY PREDICTED BY RF-SCORE:    0.00 PKD
ROOT
HETATM    1  C   UNL     1      -7.746  18.933  66.375  1.00  0.00    -0.291 C  
HETATM    2  C   UNL     1      -8.149  18.886  67.852  1.00  0.00    -0.300 C  
HETATM    3  C   UNL     1      -7.579  20.091  68.594  1.00  0.00    -0.173 C  
HETATM    4  C   UNL     1      -6.448  19.809  69.535  1.00  0.00    -0.348 C  
HETATM    5  N   UNL     1      -6.151  18.506  69.791  1.00  0.00    -0.251 N  
HETATM    6  O   UNL     1      -5.831  20.722  70.085  1.00  0.00    -0.492 OA 
HETATM    7  H   UNL     1      -5.348  18.337  70.398  1.00  0.00     0.000 HD 
HETATM    8  N   UNL     1      -6.797  17.412  69.334  1.00  0.00    -0.201 NA 
HETATM    9  C   UNL     1      -7.750  17.544  68.462  1.00  0.00    -0.272 C  
ENDROOT
BRANCH   9  10
HETATM   10  C   UNL     1      -8.476  16.296  68.039  1.00  0.00    -0.174 A  
HETATM   11  C   UNL     1      -9.839  16.118  68.288  1.00  0.00    -0.224 A  
HETATM   12  C   UNL     1     -10.465  14.909  67.958  1.00  0.00    -0.246 A  
HETATM   13  C   UNL     1      -9.755  13.852  67.375  1.00  0.00    -0.234 A  
HETATM   14  C   UNL     1      -8.390  14.036  67.123  1.00  0.00    -0.174 A  
HETATM   15  C   UNL     1      -7.758  15.249  67.443  1.00  0.00    -0.225 A  
BRANCH  13  16
HETATM   16  N   UNL     1     -10.372  12.612  67.099  1.00  0.00    -0.231 NA 
HETATM   17  H   UNL     1     -11.357  12.443  67.306  1.00  0.00     0.000 HD 
BRANCH  16  18
HETATM   18  N   UNL     1      -9.577  11.649  66.537  1.00  0.00    -0.203 NA 
HETATM   19  H   UNL     1      -8.571  11.656  66.705  1.00  0.00     0.000 HD 
BRANCH  18  20
HETATM   20  C   UNL     1     -10.107  10.723  65.788  1.00  0.00    -0.261 C  
HETATM   21  C   UNL     1     -10.533  11.171  64.490  1.00  0.00    -0.350 C  
HETATM   22  C   UNL     1     -10.250   9.372  66.240  1.00  0.00    -0.214 C  
HETATM   23  N   UNL     1     -10.333   8.275  66.616  1.00  0.00    -0.286 NA 
HETATM   24  N   UNL     1     -10.865  11.512  63.431  1.00  0.00    -0.384 NA 
ENDBRANCH  18  20
ENDBRANCH  16  18
ENDBRANCH  13  16
ENDBRANCH   9  10
TORSDOF 4
ENDMDL
MODEL      139
REMARK 921   NORMALIZED FREE ENERGY PREDICTED BY IDOCK:   -4.37 KCAL/MOL
REMARK 922        TOTAL FREE ENERGY PREDICTED BY IDOCK:   -6.10 KCAL/MOL
REMARK 923 INTER-LIGAND FREE ENERGY PREDICTED BY IDOCK:   -5.25 KCAL/MOL
REMARK 924 INTRA-LIGAND FREE ENERGY PREDICTED BY IDOCK:   -0.85 KCAL/MOL
REMARK 927      BINDING AFFINITY PREDICTED BY RF-SCORE:    0.00 PKD
ROOT
HETATM    1  C   UNL     1     -12.044  13.828  68.657  1.00  0.00    -0.333 C  
HETATM    2  C   UNL     1     -10.659  14.405  68.355  1.00  0.00    -0.248 C  
HETATM    3  C   UNL     1     -10.603  15.879  68.744  1.00  0.00    -0.245 C  
HETATM    4  C   UNL     1     -10.574  16.857  67.610  1.00  0.00    -0.325 C  
HETATM    5  N   UNL     1     -10.410  16.362  66.353  1.00  0.00    -0.308 N  
HETATM    6  O   UNL     1     -10.659  18.070  67.808  1.00  0.00    -0.401 OA 
HETATM    7  H   UNL     1     -10.440  17.041  65.593  1.00  0.00     0.000 HD 
HETATM    8  N   UNL     1     -10.213  15.073  65.999  1.00  0.00    -0.282 NA 
HETATM    9  C   UNL     1     -10.286  14.139  66.899  1.00  0.00    -0.267 C  
ENDROOT
BRANCH   9  10
HETATM   10  C   UNL     1      -9.994  12.731  66.456  1.00  0.00    -0.256 A  
HETATM   11  C   UNL     1     -10.589  12.179  65.320  1.00  0.00    -0.319 A  
HETATM   12  C   UNL     1     -10.362  10.839  64.985  1.00  0.00    -0.357 A  
HETATM   13  C   UNL     1      -9.542  10.016  65.768  1.00  0.00    -0.231 A  
HETATM   14  C   UNL     1      -8.945  10.574  66.904  1.00  0.00    -0.151 A  
HETATM   15  C   UNL     1      -9.160  11.921  67.241  1.00  0.00    -0.178 A  
BRANCH  13  16
HETATM   16  N   UNL     1      -9.362   8.649  65.464  1.00  0.00    -0.436 NA 
HETATM   17  H   UNL     1      -8.731   8.340  64.724  1.00  0.00     0.000 HD 
BRANCH  16  18
HETATM   18  N   UNL     1     -10.081   7.759  66.217  1.00  0.00    -0.468 NA 
HETATM   19  H   UNL     1     -11.090   7.871  66.314  1.00  0.00     0.000 HD 
BRANCH  18  20
HETATM   20  C   UNL     1      -9.475   6.770  66.811  1.00  0.00    -0.162 C  
HETATM   21  C   UNL     1      -8.066   6.677  66.537  1.00  0.00    -0.111 C  
HETATM   22  C   UNL     1     -10.172   5.853  67.661  1.00  0.00    -0.187 C  
HETATM   23  N   UNL     1     -10.753   5.136  68.368  1.00  0.00     0.076 NA 
HETATM   24  N   UNL     1      -6.924   6.599  66.342  1.00  0.00    -0.061 NA 
ENDBRANCH  18  20
ENDBRANCH  16  18
ENDBRANCH  13  16
ENDBRANCH   9  10
TORSDOF 4
ENDMDL
MODEL      140
REMARK 921   NORMALIZED FREE ENERGY PREDICTED BY IDOCK:   -4.35 KCAL/MOL
REMARK 922        TOTAL FREE ENERGY PREDICTED BY IDOCK:   -6.08 KCAL/MOL
REMARK 923 INTER-LIGAND FREE ENERGY PREDICTED BY IDOCK:   -5.95 KCAL/MOL
REMARK 924 INTRA-LIGAND FREE ENERGY PREDICTED BY IDOCK:   -0.13 KCAL/MOL
REMARK 927      BINDING AFFINITY PREDICTED BY RF-SCORE:    0.00 PKD
ROOT
HETATM    1  C   UNL     1      -9.956   5.195  69.969  1.00  0.00    -0.326 C  
HETATM    2  C   UNL     1      -9.810   5.603  71.437  1.00  0.00    -0.221 C  
HETATM    3  C   UNL     1      -9.642   4.368  72.316  1.00  0.00    -0.200 C  
HETATM    4  C   UNL     1     -10.814   4.010  73.177  1.00  0.00    -0.184 C  
HETATM    5  N   UNL     1     -11.840   4.901  73.249  1.00  0.00    -0.428 N  
HETATM    6  O   UNL     1     -10.837   2.963  73.826  1.00  0.00    -0.183 OA 
HETATM    7  H   UNL     1     -12.648   4.617  73.805  1.00  0.00     0.000 HD 
HETATM    8  N   UNL     1     -11.910   6.120  72.670  1.00  0.00    -0.162 NA 
HETATM    9  C   UNL     1     -10.976   6.498  71.852  1.00  0.00    -0.250 C  
ENDROOT
BRANCH   9  10
HETATM   10  C   UNL     1     -11.075   7.890  71.288  1.00  0.00    -0.278 A  
HETATM   11  C   UNL     1     -11.739   8.913  71.968  1.00  0.00    -0.438 A  
HETATM   12  C   UNL     1     -11.887  10.174  71.377  1.00  0.00    -0.414 A  
HETATM   13  C   UNL     1     -11.382  10.447  70.099  1.00  0.00    -0.323 A  
HETATM   14  C   UNL     1     -10.714   9.420  69.423  1.00  0.00    -0.234 A  
HETATM   15  C   UNL     1     -10.553   8.156  70.013  1.00  0.00    -0.239 A  
BRANCH  13  16
HETATM   16  N   UNL     1     -11.584  11.700  69.478  1.00  0.00    -0.305 NA 
HETATM   17  H   UNL     1     -12.489  12.171  69.500  1.00  0.00     0.000 HD 
BRANCH  16  18
HETATM   18  N   UNL     1     -10.500  12.247  68.845  1.00  0.00    -0.396 NA 
HETATM   19  H   UNL     1      -9.645  12.435  69.368  1.00  0.00     0.000 HD 
BRANCH  18  20
HETATM   20  C   UNL     1     -10.562  12.528  67.574  1.00  0.00    -0.220 C  
HETATM   21  C   UNL     1      -9.587  11.853  66.761  1.00  0.00    -0.204 C  
HETATM   22  C   UNL     1     -11.528  13.443  67.046  1.00  0.00    -0.337 C  
HETATM   23  N   UNL     1     -12.337  14.170  66.634  1.00  0.00    -0.424 NA 
HETATM   24  N   UNL     1      -8.819  11.302  66.087  1.00  0.00    -0.190 NA 
ENDBRANCH  18  20
ENDBRANCH  16  18
ENDBRANCH  13  16
ENDBRANCH   9  10
TORSDOF 4
ENDMDL
MODEL      141
REMARK 921   NORMALIZED FREE ENERGY PREDICTED BY IDOCK:   -4.34 KCAL/MOL
REMARK 922        TOTAL FREE ENERGY PREDICTED BY IDOCK:   -6.06 KCAL/MOL
REMARK 923 INTER-LIGAND FREE ENERGY PREDICTED BY IDOCK:   -5.69 KCAL/MOL
REMARK 924 INTRA-LIGAND FREE ENERGY PREDICTED BY IDOCK:   -0.38 KCAL/MOL
REMARK 927      BINDING AFFINITY PREDICTED BY RF-SCORE:    0.00 PKD
ROOT
HETATM    1  C   UNL     1      -9.881  10.371  64.472  1.00  0.00    -0.405 C  
HETATM    2  C   UNL     1      -9.362   9.894  65.831  1.00  0.00    -0.245 C  
HETATM    3  C   UNL     1      -9.654   8.408  66.018  1.00  0.00    -0.196 C  
HETATM    4  C   UNL     1     -10.728   8.068  67.006  1.00  0.00    -0.193 C  
HETATM    5  N   UNL     1     -11.214   9.075  67.780  1.00  0.00    -0.310 N  
HETATM    6  O   UNL     1     -11.133   6.913  67.139  1.00  0.00    -0.370 OA 
HETATM    7  H   UNL     1     -11.976   8.831  68.413  1.00  0.00     0.000 HD 
HETATM    8  N   UNL     1     -10.802  10.362  67.807  1.00  0.00    -0.276 NA 
HETATM    9  C   UNL     1      -9.923  10.775  66.946  1.00  0.00    -0.200 C  
ENDROOT
BRANCH   9  10
HETATM   10  C   UNL     1      -9.455  12.200  67.065  1.00  0.00    -0.201 A  
HETATM   11  C   UNL     1      -8.606  12.611  68.095  1.00  0.00    -0.188 A  
HETATM   12  C   UNL     1      -8.259  13.961  68.227  1.00  0.00    -0.158 A  
HETATM   13  C   UNL     1      -8.747  14.933  67.344  1.00  0.00    -0.194 A  
HETATM   14  C   UNL     1      -9.595  14.516  66.311  1.00  0.00    -0.328 A  
HETATM   15  C   UNL     1      -9.939  13.162  66.166  1.00  0.00    -0.291 A  
BRANCH  13  16
HETATM   16  N   UNL     1      -8.446  16.302  67.514  1.00  0.00    -0.166 NA 
HETATM   17  H   UNL     1      -7.974  16.844  66.789  1.00  0.00     0.000 HD 
BRANCH  16  18
HETATM   18  N   UNL     1      -8.823  16.864  68.705  1.00  0.00    -0.257 NA 
HETATM   19  H   UNL     1      -8.186  16.847  69.501  1.00  0.00     0.000 HD 
BRANCH  18  20
HETATM   20  C   UNL     1      -9.996  17.419  68.820  1.00  0.00    -0.329 C  
HETATM   21  C   UNL     1     -10.996  16.589  69.436  1.00  0.00    -0.288 C  
HETATM   22  C   UNL     1     -10.254  18.750  68.360  1.00  0.00    -0.361 C  
HETATM   23  N   UNL     1     -10.435  19.842  68.003  1.00  0.00    -0.399 NA 
HETATM   24  N   UNL     1     -11.811  15.940  69.949  1.00  0.00    -0.327 NA 
ENDBRANCH  18  20
ENDBRANCH  16  18
ENDBRANCH  13  16
ENDBRANCH   9  10
TORSDOF 4
ENDMDL
MODEL      142
REMARK 921   NORMALIZED FREE ENERGY PREDICTED BY IDOCK:   -4.34 KCAL/MOL
REMARK 922        TOTAL FREE ENERGY PREDICTED BY IDOCK:   -6.06 KCAL/MOL
REMARK 923 INTER-LIGAND FREE ENERGY PREDICTED BY IDOCK:   -5.37 KCAL/MOL
REMARK 924 INTRA-LIGAND FREE ENERGY PREDICTED BY IDOCK:   -0.68 KCAL/MOL
REMARK 927      BINDING AFFINITY PREDICTED BY RF-SCORE:    0.00 PKD
ROOT
HETATM    1  C   UNL     1      -7.753   7.404  66.020  1.00  0.00    -0.095 C  
HETATM    2  C   UNL     1      -8.608   6.699  67.077  1.00  0.00    -0.113 C  
HETATM    3  C   UNL     1      -8.611   5.193  66.838  1.00  0.00    -0.105 C  
HETATM    4  C   UNL     1      -9.889   4.613  66.315  1.00  0.00    -0.226 C  
HETATM    5  N   UNL     1     -10.981   5.424  66.276  1.00  0.00    -0.742 N  
HETATM    6  O   UNL     1      -9.962   3.434  65.965  1.00  0.00     0.035 OA 
HETATM    7  H   UNL     1     -11.828   5.023  65.873  1.00  0.00     0.000 HD 
HETATM    8  N   UNL     1     -11.070   6.701  66.710  1.00  0.00    -0.278 NA 
HETATM    9  C   UNL     1     -10.004   7.317  67.120  1.00  0.00    -0.215 C  
ENDROOT
BRANCH   9  10
HETATM   10  C   UNL     1     -10.176   8.715  67.652  1.00  0.00    -0.300 A  
HETATM   11  C   UNL     1     -10.516   9.781  66.817  1.00  0.00    -0.259 A  
HETATM   12  C   UNL     1     -10.584  11.083  67.329  1.00  0.00    -0.287 A  
HETATM   13  C   UNL     1     -10.317  11.356  68.677  1.00  0.00    -0.203 A  
HETATM   14  C   UNL     1      -9.980  10.283  69.510  1.00  0.00    -0.252 A  
HETATM   15  C   UNL     1      -9.919   8.974  69.006  1.00  0.00    -0.191 A  
BRANCH  13  16
HETATM   16  N   UNL     1     -10.326  12.676  69.178  1.00  0.00    -0.423 NA 
HETATM   17  H   UNL     1     -10.592  12.884  70.141  1.00  0.00     0.000 HD 
BRANCH  16  18
HETATM   18  N   UNL     1      -9.959  13.662  68.302  1.00  0.00    -0.233 NA 
HETATM   19  H   UNL     1      -9.203  13.499  67.637  1.00  0.00     0.000 HD 
BRANCH  18  20
HETATM   20  C   UNL     1     -10.576  14.810  68.317  1.00  0.00    -0.241 C  
HETATM   21  C   UNL     1     -10.387  15.610  67.137  1.00  0.00    -0.285 C  
HETATM   22  C   UNL     1     -11.371  15.229  69.431  1.00  0.00    -0.294 C  
HETATM   23  N   UNL     1     -12.034  15.539  70.335  1.00  0.00    -0.339 NA 
HETATM   24  N   UNL     1     -10.261  16.260  66.183  1.00  0.00    -0.329 NA 
ENDBRANCH  18  20
ENDBRANCH  16  18
ENDBRANCH  13  16
ENDBRANCH   9  10
TORSDOF 4
ENDMDL
MODEL      143
REMARK 921   NORMALIZED FREE ENERGY PREDICTED BY IDOCK:   -4.33 KCAL/MOL
REMARK 922        TOTAL FREE ENERGY PREDICTED BY IDOCK:   -6.05 KCAL/MOL
REMARK 923 INTER-LIGAND FREE ENERGY PREDICTED BY IDOCK:   -5.40 KCAL/MOL
REMARK 924 INTRA-LIGAND FREE ENERGY PREDICTED BY IDOCK:   -0.64 KCAL/MOL
REMARK 927      BINDING AFFINITY PREDICTED BY RF-SCORE:    0.00 PKD
ROOT
HETATM    1  C   UNL     1      -9.513  10.163  63.288  1.00  0.00    -0.302 C  
HETATM    2  C   UNL     1      -8.397   9.583  64.161  1.00  0.00    -0.174 C  
HETATM    3  C   UNL     1      -7.736   8.401  63.458  1.00  0.00    -0.144 C  
HETATM    4  C   UNL     1      -8.036   7.048  64.027  1.00  0.00    -0.075 C  
HETATM    5  N   UNL     1      -8.704   6.994  65.211  1.00  0.00    -0.359 N  
HETATM    6  O   UNL     1      -7.662   6.019  63.462  1.00  0.00    -0.084 OA 
HETATM    7  H   UNL     1      -8.938   6.063  65.557  1.00  0.00     0.000 HD 
HETATM    8  N   UNL     1      -9.092   8.034  65.982  1.00  0.00    -0.167 NA 
HETATM    9  C   UNL     1      -8.937   9.249  65.549  1.00  0.00    -0.205 C  
ENDROOT
BRANCH   9  10
HETATM   10  C   UNL     1      -9.329  10.367  66.478  1.00  0.00    -0.193 A  
HETATM   11  C   UNL     1      -8.374  11.120  67.163  1.00  0.00    -0.136 A  
HETATM   12  C   UNL     1      -8.774  12.096  68.085  1.00  0.00    -0.185 A  
HETATM   13  C   UNL     1     -10.127  12.345  68.347  1.00  0.00    -0.217 A  
HETATM   14  C   UNL     1     -11.080  11.590  67.655  1.00  0.00    -0.324 A  
HETATM   15  C   UNL     1     -10.687  10.617  66.722  1.00  0.00    -0.272 A  
BRANCH  13  16
HETATM   16  N   UNL     1     -10.529  13.286  69.321  1.00  0.00    -0.425 NA 
HETATM   17  H   UNL     1     -10.054  14.182  69.431  1.00  0.00     0.000 HD 
BRANCH  16  18
HETATM   18  N   UNL     1     -11.591  12.929  70.109  1.00  0.00    -0.535 NA 
HETATM   19  H   UNL     1     -11.780  11.945  70.296  1.00  0.00     0.000 HD 
BRANCH  18  20
HETATM   20  C   UNL     1     -12.360  13.849  70.620  1.00  0.00    -0.381 C  
HETATM   21  C   UNL     1     -13.217  13.394  71.681  1.00  0.00    -0.364 C  
HETATM   22  C   UNL     1     -12.345  15.200  70.146  1.00  0.00    -0.341 C  
HETATM   23  N   UNL     1     -12.299  16.297  69.764  1.00  0.00     0.108 NA 
HETATM   24  N   UNL     1     -13.902  13.048  72.553  1.00  0.00    -0.631 NA 
ENDBRANCH  18  20
ENDBRANCH  16  18
ENDBRANCH  13  16
ENDBRANCH   9  10
TORSDOF 4
ENDMDL
MODEL      144
REMARK 921   NORMALIZED FREE ENERGY PREDICTED BY IDOCK:   -4.33 KCAL/MOL
REMARK 922        TOTAL FREE ENERGY PREDICTED BY IDOCK:   -6.05 KCAL/MOL
REMARK 923 INTER-LIGAND FREE ENERGY PREDICTED BY IDOCK:   -5.39 KCAL/MOL
REMARK 924 INTRA-LIGAND FREE ENERGY PREDICTED BY IDOCK:   -0.66 KCAL/MOL
REMARK 927      BINDING AFFINITY PREDICTED BY RF-SCORE:    0.00 PKD
ROOT
HETATM    1  C   UNL     1     -12.265  13.572  66.845  1.00  0.00    -0.377 C  
HETATM    2  C   UNL     1     -11.034  13.781  67.731  1.00  0.00    -0.272 C  
HETATM    3  C   UNL     1     -10.472  15.186  67.535  1.00  0.00    -0.258 C  
HETATM    4  C   UNL     1      -9.179  15.278  66.786  1.00  0.00    -0.250 C  
HETATM    5  N   UNL     1      -8.524  14.117  66.512  1.00  0.00    -0.384 N  
HETATM    6  O   UNL     1      -8.704  16.366  66.459  1.00  0.00    -0.231 OA 
HETATM    7  H   UNL     1      -7.669  14.199  65.961  1.00  0.00     0.000 HD 
HETATM    8  N   UNL     1      -8.878  12.867  66.886  1.00  0.00    -0.209 NA 
HETATM    9  C   UNL     1     -10.014  12.672  67.483  1.00  0.00    -0.205 C  
ENDROOT
BRANCH   9  10
HETATM   10  C   UNL     1     -10.325  11.269  67.933  1.00  0.00    -0.205 A  
HETATM   11  C   UNL     1     -10.702  10.987  69.248  1.00  0.00    -0.263 A  
HETATM   12  C   UNL     1     -10.899   9.662  69.655  1.00  0.00    -0.266 A  
HETATM   13  C   UNL     1     -10.727   8.589  68.770  1.00  0.00    -0.054 A  
HETATM   14  C   UNL     1     -10.353   8.878  67.453  1.00  0.00    -0.337 A  
HETATM   15  C   UNL     1     -10.162  10.205  67.034  1.00  0.00    -0.290 A  
BRANCH  13  16
HETATM   16  N   UNL     1     -10.867   7.251  69.197  1.00  0.00    -0.371 NA 
HETATM   17  H   UNL     1     -11.429   6.576  68.678  1.00  0.00     0.000 HD 
BRANCH  16  18
HETATM   18  N   UNL     1     -10.207   6.907  70.347  1.00  0.00    -0.191 NA 
HETATM   19  H   UNL     1      -9.187   6.906  70.368  1.00  0.00     0.000 HD 
BRANCH  18  20
HETATM   20  C   UNL     1     -10.881   6.580  71.413  1.00  0.00    -0.245 C  
HETATM   21  C   UNL     1     -12.292   6.849  71.337  1.00  0.00    -0.376 C  
HETATM   22  C   UNL     1     -10.251   6.004  72.562  1.00  0.00    -0.186 C  
HETATM   23  N   UNL     1      -9.724   5.512  73.475  1.00  0.00    -0.146 NA 
HETATM   24  N   UNL     1     -13.436   7.042  71.286  1.00  0.00    -0.270 NA 
ENDBRANCH  18  20
ENDBRANCH  16  18
ENDBRANCH  13  16
ENDBRANCH   9  10
TORSDOF 4
ENDMDL
MODEL      145
REMARK 921   NORMALIZED FREE ENERGY PREDICTED BY IDOCK:   -4.30 KCAL/MOL
REMARK 922        TOTAL FREE ENERGY PREDICTED BY IDOCK:   -6.01 KCAL/MOL
REMARK 923 INTER-LIGAND FREE ENERGY PREDICTED BY IDOCK:   -5.36 KCAL/MOL
REMARK 924 INTRA-LIGAND FREE ENERGY PREDICTED BY IDOCK:   -0.65 KCAL/MOL
REMARK 927      BINDING AFFINITY PREDICTED BY RF-SCORE:    0.00 PKD
ROOT
HETATM    1  C   UNL     1     -11.904  15.272  68.453  1.00  0.00    -0.283 C  
HETATM    2  C   UNL     1     -10.512  15.876  68.252  1.00  0.00    -0.257 C  
HETATM    3  C   UNL     1     -10.550  17.384  68.481  1.00  0.00    -0.340 C  
HETATM    4  C   UNL     1     -10.417  18.238  67.257  1.00  0.00    -0.398 C  
HETATM    5  N   UNL     1     -10.089  17.621  66.090  1.00  0.00    -0.323 N  
HETATM    6  O   UNL     1     -10.565  19.460  67.310  1.00  0.00    -0.432 OA 
HETATM    7  H   UNL     1     -10.049  18.215  65.261  1.00  0.00     0.000 HD 
HETATM    8  N   UNL     1      -9.809  16.313  65.903  1.00  0.00    -0.383 NA 
HETATM    9  C   UNL     1      -9.959  15.476  66.885  1.00  0.00    -0.247 C  
ENDROOT
BRANCH   9  10
HETATM   10  C   UNL     1      -9.570  14.044  66.637  1.00  0.00    -0.299 A  
HETATM   11  C   UNL     1     -10.382  13.180  65.899  1.00  0.00    -0.295 A  
HETATM   12  C   UNL     1     -10.033  11.831  65.759  1.00  0.00    -0.269 A  
HETATM   13  C   UNL     1      -8.874  11.309  66.347  1.00  0.00    -0.182 A  
HETATM   14  C   UNL     1      -8.061  12.180  67.082  1.00  0.00    -0.175 A  
HETATM   15  C   UNL     1      -8.399  13.536  67.219  1.00  0.00    -0.188 A  
BRANCH  13  16
HETATM   16  N   UNL     1      -8.554   9.937  66.257  1.00  0.00    -0.127 NA 
HETATM   17  H   UNL     1      -7.746   9.606  65.728  1.00  0.00     0.000 HD 
BRANCH  16  18
HETATM   18  N   UNL     1      -9.387   9.074  66.918  1.00  0.00    -0.150 NA 
HETATM   19  H   UNL     1      -9.995   9.420  67.660  1.00  0.00     0.000 HD 
BRANCH  18  20
HETATM   20  C   UNL     1      -9.402   7.810  66.599  1.00  0.00    -0.188 C  
HETATM   21  C   UNL     1     -10.355   7.018  67.328  1.00  0.00    -0.261 C  
HETATM   22  C   UNL     1      -8.529   7.269  65.602  1.00  0.00    -0.131 C  
HETATM   23  N   UNL     1      -7.829   6.855  64.771  1.00  0.00    -0.115 NA 
HETATM   24  N   UNL     1     -11.133   6.367  67.894  1.00  0.00    -0.318 NA 
ENDBRANCH  18  20
ENDBRANCH  16  18
ENDBRANCH  13  16
ENDBRANCH   9  10
TORSDOF 4
ENDMDL
MODEL      146
REMARK 921   NORMALIZED FREE ENERGY PREDICTED BY IDOCK:   -4.26 KCAL/MOL
REMARK 922        TOTAL FREE ENERGY PREDICTED BY IDOCK:   -5.96 KCAL/MOL
REMARK 923 INTER-LIGAND FREE ENERGY PREDICTED BY IDOCK:   -5.15 KCAL/MOL
REMARK 924 INTRA-LIGAND FREE ENERGY PREDICTED BY IDOCK:   -0.82 KCAL/MOL
REMARK 927      BINDING AFFINITY PREDICTED BY RF-SCORE:    0.00 PKD
ROOT
HETATM    1  C   UNL     1     -10.385   8.320  70.762  1.00  0.00    -0.221 C  
HETATM    2  C   UNL     1     -10.593   7.355  69.592  1.00  0.00    -0.243 C  
HETATM    3  C   UNL     1     -10.774   5.931  70.106  1.00  0.00    -0.389 C  
HETATM    4  C   UNL     1      -9.630   4.994  69.864  1.00  0.00    -0.176 C  
HETATM    5  N   UNL     1      -8.622   5.425  69.057  1.00  0.00    -0.102 N  
HETATM    6  O   UNL     1      -9.615   3.862  70.349  1.00  0.00    -0.171 OA 
HETATM    7  H   UNL     1      -7.832   4.790  68.943  1.00  0.00     0.000 HD 
HETATM    8  N   UNL     1      -8.550   6.597  68.389  1.00  0.00    -0.124 NA 
HETATM    9  C   UNL     1      -9.459   7.504  68.581  1.00  0.00    -0.146 C  
ENDROOT
BRANCH   9  10
HETATM   10  C   UNL     1      -9.361   8.763  67.761  1.00  0.00    -0.157 A  
HETATM   11  C   UNL     1      -8.136   9.386  67.515  1.00  0.00    -0.110 A  
HETATM   12  C   UNL     1      -8.090  10.602  66.822  1.00  0.00    -0.131 A  
HETATM   13  C   UNL     1      -9.255  11.225  66.357  1.00  0.00    -0.192 A  
HETATM   14  C   UNL     1     -10.480  10.594  66.601  1.00  0.00    -0.296 A  
HETATM   15  C   UNL     1     -10.534   9.370  67.288  1.00  0.00    -0.332 A  
BRANCH  13  16
HETATM   16  N   UNL     1      -9.213  12.480  65.711  1.00  0.00    -0.444 NA 
HETATM   17  H   UNL     1      -9.293  12.567  64.697  1.00  0.00     0.000 HD 
BRANCH  16  18
HETATM   18  N   UNL     1      -9.060  13.575  66.519  1.00  0.00    -0.436 NA 
HETATM   19  H   UNL     1      -8.264  13.633  67.155  1.00  0.00     0.000 HD 
BRANCH  18  20
HETATM   20  C   UNL     1      -9.931  14.543  66.477  1.00  0.00    -0.280 C  
HETATM   21  C   UNL     1     -11.176  14.203  65.843  1.00  0.00    -0.313 C  
HETATM   22  C   UNL     1      -9.653  15.838  67.020  1.00  0.00    -0.226 C  
HETATM   23  N   UNL     1      -9.417  16.875  67.490  1.00  0.00    -0.239 NA 
HETATM   24  N   UNL     1     -12.195  13.940  65.351  1.00  0.00    -0.417 NA 
ENDBRANCH  18  20
ENDBRANCH  16  18
ENDBRANCH  13  16
ENDBRANCH   9  10
TORSDOF 4
ENDMDL
MODEL      147
REMARK 921   NORMALIZED FREE ENERGY PREDICTED BY IDOCK:   -4.24 KCAL/MOL
REMARK 922        TOTAL FREE ENERGY PREDICTED BY IDOCK:   -5.94 KCAL/MOL
REMARK 923 INTER-LIGAND FREE ENERGY PREDICTED BY IDOCK:   -5.33 KCAL/MOL
REMARK 924 INTRA-LIGAND FREE ENERGY PREDICTED BY IDOCK:   -0.61 KCAL/MOL
REMARK 927      BINDING AFFINITY PREDICTED BY RF-SCORE:    0.00 PKD
ROOT
HETATM    1  C   UNL     1     -10.526  15.560  65.580  1.00  0.00    -0.407 C  
HETATM    2  C   UNL     1     -10.908  15.801  67.043  1.00  0.00    -0.273 C  
HETATM    3  C   UNL     1     -10.767  17.279  67.390  1.00  0.00    -0.247 C  
HETATM    4  C   UNL     1      -9.616  17.639  68.279  1.00  0.00    -0.306 C  
HETATM    5  N   UNL     1      -8.916  16.620  68.848  1.00  0.00    -0.254 N  
HETATM    6  O   UNL     1      -9.333  18.814  68.517  1.00  0.00    -0.324 OA 
HETATM    7  H   UNL     1      -8.109  16.886  69.412  1.00  0.00     0.000 HD 
HETATM    8  N   UNL     1      -9.169  15.296  68.751  1.00  0.00    -0.192 NA 
HETATM    9  C   UNL     1     -10.104  14.876  67.954  1.00  0.00    -0.227 C  
ENDROOT
BRANCH   9  10
HETATM   10  C   UNL     1     -10.383  13.397  67.937  1.00  0.00    -0.238 A  
HETATM   11  C   UNL     1     -11.654  12.886  68.207  1.00  0.00    -0.374 A  
HETATM   12  C   UNL     1     -11.859  11.502  68.268  1.00  0.00    -0.327 A  
HETATM   13  C   UNL     1     -10.811  10.596  68.062  1.00  0.00    -0.261 A  
HETATM   14  C   UNL     1      -9.540  11.113  67.787  1.00  0.00    -0.180 A  
HETATM   15  C   UNL     1      -9.328  12.499  67.715  1.00  0.00    -0.198 A  
BRANCH  13  16
HETATM   16  N   UNL     1     -11.006   9.202  68.183  1.00  0.00    -0.484 NA 
HETATM   17  H   UNL     1     -11.929   8.800  68.352  1.00  0.00     0.000 HD 
BRANCH  16  18
HETATM   18  N   UNL     1      -9.889   8.419  68.061  1.00  0.00    -0.163 NA 
HETATM   19  H   UNL     1      -9.178   8.427  68.793  1.00  0.00     0.000 HD 
BRANCH  18  20
HETATM   20  C   UNL     1      -9.734   7.664  67.010  1.00  0.00    -0.195 C  
HETATM   21  C   UNL     1     -10.309   6.351  67.124  1.00  0.00    -0.232 C  
HETATM   22  C   UNL     1      -9.040   8.120  65.845  1.00  0.00    -0.130 C  
HETATM   23  N   UNL     1      -8.495   8.520  64.898  1.00  0.00    -0.169 NA 
HETATM   24  N   UNL     1     -10.784   5.293  67.191  1.00  0.00    -0.151 NA 
ENDBRANCH  18  20
ENDBRANCH  16  18
ENDBRANCH  13  16
ENDBRANCH   9  10
TORSDOF 4
ENDMDL
MODEL      148
REMARK 921   NORMALIZED FREE ENERGY PREDICTED BY IDOCK:   -4.24 KCAL/MOL
REMARK 922        TOTAL FREE ENERGY PREDICTED BY IDOCK:   -5.94 KCAL/MOL
REMARK 923 INTER-LIGAND FREE ENERGY PREDICTED BY IDOCK:   -5.14 KCAL/MOL
REMARK 924 INTRA-LIGAND FREE ENERGY PREDICTED BY IDOCK:   -0.80 KCAL/MOL
REMARK 927      BINDING AFFINITY PREDICTED BY RF-SCORE:    0.00 PKD
ROOT
HETATM    1  C   UNL     1     -12.215  13.927  68.035  1.00  0.00    -0.188 C  
HETATM    2  C   UNL     1     -10.687  14.019  67.990  1.00  0.00    -0.253 C  
HETATM    3  C   UNL     1     -10.253  15.415  67.555  1.00  0.00    -0.244 C  
HETATM    4  C   UNL     1      -9.679  15.525  66.176  1.00  0.00    -0.319 C  
HETATM    5  N   UNL     1      -9.420  14.369  65.506  1.00  0.00    -0.519 N  
HETATM    6  O   UNL     1      -9.418  16.620  65.676  1.00  0.00    -0.511 OA 
HETATM    7  H   UNL     1      -9.073  14.468  64.552  1.00  0.00     0.000 HD 
HETATM    8  N   UNL     1      -9.569  13.106  65.963  1.00  0.00    -0.209 NA 
HETATM    9  C   UNL     1     -10.119  12.900  67.120  1.00  0.00    -0.243 C  
ENDROOT
BRANCH   9  10
HETATM   10  C   UNL     1     -10.199  11.477  67.603  1.00  0.00    -0.205 A  
HETATM   11  C   UNL     1      -9.911  11.132  68.925  1.00  0.00    -0.176 A  
HETATM   12  C   UNL     1      -9.911   9.789  69.320  1.00  0.00    -0.201 A  
HETATM   13  C   UNL     1     -10.196   8.759  68.414  1.00  0.00    -0.196 A  
HETATM   14  C   UNL     1     -10.488   9.109  67.091  1.00  0.00    -0.325 A  
HETATM   15  C   UNL     1     -10.499  10.455  66.690  1.00  0.00    -0.279 A  
BRANCH  13  16
HETATM   16  N   UNL     1     -10.137   7.401  68.798  1.00  0.00    -0.174 NA 
HETATM   17  H   UNL     1      -9.705   6.692  68.204  1.00  0.00     0.000 HD 
BRANCH  16  18
HETATM   18  N   UNL     1     -10.689   7.087  70.011  1.00  0.00    -0.233 NA 
HETATM   19  H   UNL     1     -11.659   7.332  70.209  1.00  0.00     0.000 HD 
BRANCH  18  20
HETATM   20  C   UNL     1      -9.974   6.476  70.914  1.00  0.00    -0.184 C  
HETATM   21  C   UNL     1      -8.665   6.077  70.474  1.00  0.00    -0.138 C  
HETATM   22  C   UNL     1     -10.471   6.225  72.233  1.00  0.00    -0.199 C  
HETATM   23  N   UNL     1     -10.884   6.055  73.306  1.00  0.00    -0.261 NA 
HETATM   24  N   UNL     1      -7.597   5.765  70.141  1.00  0.00    -0.084 NA 
ENDBRANCH  18  20
ENDBRANCH  16  18
ENDBRANCH  13  16
ENDBRANCH   9  10
TORSDOF 4
ENDMDL
MODEL      149
REMARK 921   NORMALIZED FREE ENERGY PREDICTED BY IDOCK:   -4.22 KCAL/MOL
REMARK 922        TOTAL FREE ENERGY PREDICTED BY IDOCK:   -5.92 KCAL/MOL
REMARK 923 INTER-LIGAND FREE ENERGY PREDICTED BY IDOCK:   -5.31 KCAL/MOL
REMARK 924 INTRA-LIGAND FREE ENERGY PREDICTED BY IDOCK:   -0.62 KCAL/MOL
REMARK 927      BINDING AFFINITY PREDICTED BY RF-SCORE:    0.00 PKD
ROOT
HETATM    1  C   UNL     1      -9.485  10.876  63.758  1.00  0.00    -0.308 C  
HETATM    2  C   UNL     1     -10.661  11.406  64.583  1.00  0.00    -0.378 C  
HETATM    3  C   UNL     1     -11.729  11.994  63.666  1.00  0.00    -0.587 C  
HETATM    4  C   UNL     1     -11.855  13.487  63.677  1.00  0.00    -0.333 C  
HETATM    5  N   UNL     1     -11.155  14.172  64.622  1.00  0.00    -0.466 N  
HETATM    6  O   UNL     1     -12.592  14.073  62.883  1.00  0.00    -0.523 OA 
HETATM    7  H   UNL     1     -11.220  15.190  64.582  1.00  0.00     0.000 HD 
HETATM    8  N   UNL     1     -10.386  13.659  65.606  1.00  0.00    -0.292 NA 
HETATM    9  C   UNL     1     -10.159  12.381  65.646  1.00  0.00    -0.257 C  
ENDROOT
BRANCH   9  10
HETATM   10  C   UNL     1      -9.349  11.859  66.802  1.00  0.00    -0.204 A  
HETATM   11  C   UNL     1      -9.572  10.592  67.343  1.00  0.00    -0.181 A  
HETATM   12  C   UNL     1      -8.859  10.171  68.473  1.00  0.00    -0.127 A  
HETATM   13  C   UNL     1      -7.911  10.998  69.090  1.00  0.00    -0.078 A  
HETATM   14  C   UNL     1      -7.688  12.266  68.542  1.00  0.00    -0.118 A  
HETATM   15  C   UNL     1      -8.393  12.691  67.404  1.00  0.00    -0.184 A  
BRANCH  13  16
HETATM   16  N   UNL     1      -7.237  10.597  70.265  1.00  0.00    -0.466 NA 
HETATM   17  H   UNL     1      -6.840  11.276  70.916  1.00  0.00     0.000 HD 
BRANCH  16  18
HETATM   18  N   UNL     1      -7.145   9.248  70.484  1.00  0.00    -0.086 NA 
HETATM   19  H   UNL     1      -6.824   8.631  69.739  1.00  0.00     0.000 HD 
BRANCH  18  20
HETATM   20  C   UNL     1      -7.470   8.754  71.645  1.00  0.00    -0.065 C  
HETATM   21  C   UNL     1      -6.355   8.388  72.475  1.00  0.00    -0.082 C  
HETATM   22  C   UNL     1      -8.835   8.589  72.045  1.00  0.00    -0.216 C  
HETATM   23  N   UNL     1      -9.950   8.489  72.360  1.00  0.00    -0.309 NA 
HETATM   24  N   UNL     1      -5.466   8.104  73.167  1.00  0.00    -0.046 NA 
ENDBRANCH  18  20
ENDBRANCH  16  18
ENDBRANCH  13  16
ENDBRANCH   9  10
TORSDOF 4
ENDMDL
MODEL      150
REMARK 921   NORMALIZED FREE ENERGY PREDICTED BY IDOCK:   -4.22 KCAL/MOL
REMARK 922        TOTAL FREE ENERGY PREDICTED BY IDOCK:   -5.91 KCAL/MOL
REMARK 923 INTER-LIGAND FREE ENERGY PREDICTED BY IDOCK:   -5.47 KCAL/MOL
REMARK 924 INTRA-LIGAND FREE ENERGY PREDICTED BY IDOCK:   -0.44 KCAL/MOL
REMARK 927      BINDING AFFINITY PREDICTED BY RF-SCORE:    0.00 PKD
ROOT
HETATM    1  C   UNL     1     -11.507  11.729  66.487  1.00  0.00    -0.325 C  
HETATM    2  C   UNL     1     -10.063  11.222  66.427  1.00  0.00    -0.260 C  
HETATM    3  C   UNL     1      -9.469  11.476  65.045  1.00  0.00    -0.174 C  
HETATM    4  C   UNL     1      -9.273  10.268  64.182  1.00  0.00    -0.267 C  
HETATM    5  N   UNL     1      -9.457   9.047  64.754  1.00  0.00    -0.359 N  
HETATM    6  O   UNL     1      -8.923  10.371  63.005  1.00  0.00    -0.189 OA 
HETATM    7  H   UNL     1      -9.363   8.240  64.137  1.00  0.00     0.000 HD 
HETATM    8  N   UNL     1      -9.748   8.782  66.047  1.00  0.00    -0.242 NA 
HETATM    9  C   UNL     1     -10.002   9.760  66.863  1.00  0.00    -0.211 C  
ENDROOT
BRANCH   9  10
HETATM   10  C   UNL     1     -10.257   9.407  68.304  1.00  0.00    -0.229 A  
HETATM   11  C   UNL     1     -10.506   8.093  68.705  1.00  0.00    -0.198 A  
HETATM   12  C   UNL     1     -10.824   7.812  70.040  1.00  0.00    -0.243 A  
HETATM   13  C   UNL     1     -10.902   8.825  71.004  1.00  0.00    -0.260 A  
HETATM   14  C   UNL     1     -10.648  10.140  70.597  1.00  0.00    -0.172 A  
HETATM   15  C   UNL     1     -10.320  10.429  69.263  1.00  0.00    -0.250 A  
BRANCH  13  16
HETATM   16  N   UNL     1     -11.283   8.549  72.336  1.00  0.00    -0.360 NA 
HETATM   17  H   UNL     1     -11.317   9.279  73.048  1.00  0.00     0.000 HD 
BRANCH  16  18
HETATM   18  N   UNL     1     -11.604   7.248  72.619  1.00  0.00    -0.489 NA 
HETATM   19  H   UNL     1     -12.477   6.851  72.271  1.00  0.00     0.000 HD 
BRANCH  18  20
HETATM   20  C   UNL     1     -10.795   6.519  73.334  1.00  0.00    -0.222 C  
HETATM   21  C   UNL     1     -11.120   5.118  73.368  1.00  0.00    -0.320 C  
HETATM   22  C   UNL     1      -9.677   7.083  74.027  1.00  0.00    -0.296 C  
HETATM   23  N   UNL     1      -8.760   7.558  74.562  1.00  0.00    -0.175 NA 
HETATM   24  N   UNL     1     -11.357   3.982  73.392  1.00  0.00    -0.230 NA 
ENDBRANCH  18  20
ENDBRANCH  16  18
ENDBRANCH  13  16
ENDBRANCH   9  10
TORSDOF 4
ENDMDL
MODEL      151
REMARK 921   NORMALIZED FREE ENERGY PREDICTED BY IDOCK:   -4.21 KCAL/MOL
REMARK 922        TOTAL FREE ENERGY PREDICTED BY IDOCK:   -5.90 KCAL/MOL
REMARK 923 INTER-LIGAND FREE ENERGY PREDICTED BY IDOCK:   -5.32 KCAL/MOL
REMARK 924 INTRA-LIGAND FREE ENERGY PREDICTED BY IDOCK:   -0.58 KCAL/MOL
REMARK 927      BINDING AFFINITY PREDICTED BY RF-SCORE:    0.00 PKD
ROOT
HETATM    1  C   UNL     1     -10.131   6.944  72.220  1.00  0.00    -0.194 C  
HETATM    2  C   UNL     1     -10.685   6.522  70.857  1.00  0.00    -0.289 C  
HETATM    3  C   UNL     1     -10.705   5.002  70.740  1.00  0.00    -0.045 C  
HETATM    4  C   UNL     1      -9.689   4.400  69.818  1.00  0.00    -0.221 C  
HETATM    5  N   UNL     1      -8.972   5.247  69.030  1.00  0.00    -0.105 N  
HETATM    6  O   UNL     1      -9.530   3.181  69.747  1.00  0.00    -0.162 OA 
HETATM    7  H   UNL     1      -8.254   4.821  68.444  1.00  0.00     0.000 HD 
HETATM    8  N   UNL     1      -9.103   6.589  68.936  1.00  0.00    -0.131 NA 
HETATM    9  C   UNL     1      -9.910   7.215  69.739  1.00  0.00    -0.173 C  
ENDROOT
BRANCH   9  10
HETATM   10  C   UNL     1     -10.062   8.699  69.543  1.00  0.00    -0.203 A  
HETATM   11  C   UNL     1     -11.285   9.344  69.739  1.00  0.00    -0.139 A  
HETATM   12  C   UNL     1     -11.413  10.711  69.466  1.00  0.00    -0.360 A  
HETATM   13  C   UNL     1     -10.334  11.468  68.993  1.00  0.00    -0.118 A  
HETATM   14  C   UNL     1      -9.109  10.819  68.802  1.00  0.00    -0.180 A  
HETATM   15  C   UNL     1      -8.970   9.450  69.083  1.00  0.00    -0.147 A  
BRANCH  13  16
HETATM   16  N   UNL     1     -10.479  12.833  68.660  1.00  0.00    -0.325 NA 
HETATM   17  H   UNL     1      -9.692  13.481  68.689  1.00  0.00     0.000 HD 
BRANCH  16  18
HETATM   18  N   UNL     1     -11.735  13.239  68.295  1.00  0.00    -0.333 NA 
HETATM   19  H   UNL     1     -12.554  12.737  68.637  1.00  0.00     0.000 HD 
BRANCH  18  20
HETATM   20  C   UNL     1     -11.884  14.268  67.509  1.00  0.00    -0.395 C  
HETATM   21  C   UNL     1     -11.474  15.523  68.078  1.00  0.00    -0.308 C  
HETATM   22  C   UNL     1     -12.420  14.142  66.187  1.00  0.00    -0.395 C  
HETATM   23  N   UNL     1     -12.833  14.014  65.108  1.00  0.00    -0.745 NA 
HETATM   24  N   UNL     1     -11.129  16.543  68.515  1.00  0.00    -0.354 NA 
ENDBRANCH  18  20
ENDBRANCH  16  18
ENDBRANCH  13  16
ENDBRANCH   9  10
TORSDOF 4
ENDMDL
MODEL      152
REMARK 921   NORMALIZED FREE ENERGY PREDICTED BY IDOCK:   -4.21 KCAL/MOL
REMARK 922        TOTAL FREE ENERGY PREDICTED BY IDOCK:   -5.90 KCAL/MOL
REMARK 923 INTER-LIGAND FREE ENERGY PREDICTED BY IDOCK:   -5.32 KCAL/MOL
REMARK 924 INTRA-LIGAND FREE ENERGY PREDICTED BY IDOCK:   -0.59 KCAL/MOL
REMARK 927      BINDING AFFINITY PREDICTED BY RF-SCORE:    0.00 PKD
ROOT
HETATM    1  C   UNL     1      -9.094   6.355  66.493  1.00  0.00    -0.162 C  
HETATM    2  C   UNL     1      -8.359   6.364  65.151  1.00  0.00    -0.109 C  
HETATM    3  C   UNL     1      -7.530   5.093  64.992  1.00  0.00    -0.073 C  
HETATM    4  C   UNL     1      -6.046   5.258  65.100  1.00  0.00    -0.026 C  
HETATM    5  N   UNL     1      -5.553   6.526  65.140  1.00  0.00    -0.025 N  
HETATM    6  O   UNL     1      -5.292   4.284  65.117  1.00  0.00    -0.009 OA 
HETATM    7  H   UNL     1      -4.544   6.616  65.260  1.00  0.00     0.000 HD 
HETATM    8  N   UNL     1      -6.249   7.680  65.038  1.00  0.00    -0.038 NA 
HETATM    9  C   UNL     1      -7.546   7.649  65.005  1.00  0.00    -0.097 C  
ENDROOT
BRANCH   9  10
HETATM   10  C   UNL     1      -8.264   8.960  64.826  1.00  0.00    -0.164 A  
HETATM   11  C   UNL     1      -8.526   9.808  65.904  1.00  0.00    -0.136 A  
HETATM   12  C   UNL     1      -9.271  10.978  65.716  1.00  0.00    -0.226 A  
HETATM   13  C   UNL     1      -9.771  11.334  64.457  1.00  0.00    -0.253 A  
HETATM   14  C   UNL     1      -9.503  10.483  63.379  1.00  0.00    -0.354 A  
HETATM   15  C   UNL     1      -8.749   9.312  63.558  1.00  0.00    -0.188 A  
BRANCH  13  16
HETATM   16  N   UNL     1     -10.574  12.483  64.279  1.00  0.00    -0.343 NA 
HETATM   17  H   UNL     1     -11.450  12.452  63.757  1.00  0.00     0.000 HD 
BRANCH  16  18
HETATM   18  N   UNL     1     -10.112  13.640  64.847  1.00  0.00    -0.600 NA 
HETATM   19  H   UNL     1      -9.110  13.829  64.879  1.00  0.00     0.000 HD 
BRANCH  18  20
HETATM   20  C   UNL     1     -10.953  14.502  65.346  1.00  0.00    -0.342 C  
HETATM   21  C   UNL     1     -11.661  14.045  66.511  1.00  0.00    -0.374 C  
HETATM   22  C   UNL     1     -11.150  15.795  64.764  1.00  0.00    -0.400 C  
HETATM   23  N   UNL     1     -11.275  16.850  64.291  1.00  0.00    -1.099 NA 
HETATM   24  N   UNL     1     -12.227  13.699  67.464  1.00  0.00    -0.300 NA 
ENDBRANCH  18  20
ENDBRANCH  16  18
ENDBRANCH  13  16
ENDBRANCH   9  10
TORSDOF 4
ENDMDL
MODEL      153
REMARK 921   NORMALIZED FREE ENERGY PREDICTED BY IDOCK:   -4.19 KCAL/MOL
REMARK 922        TOTAL FREE ENERGY PREDICTED BY IDOCK:   -5.88 KCAL/MOL
REMARK 923 INTER-LIGAND FREE ENERGY PREDICTED BY IDOCK:   -5.31 KCAL/MOL
REMARK 924 INTRA-LIGAND FREE ENERGY PREDICTED BY IDOCK:   -0.57 KCAL/MOL
REMARK 927      BINDING AFFINITY PREDICTED BY RF-SCORE:    0.00 PKD
ROOT
HETATM    1  C   UNL     1     -11.335  12.267  65.771  1.00  0.00    -0.400 C  
HETATM    2  C   UNL     1     -10.055  11.601  66.282  1.00  0.00    -0.254 C  
HETATM    3  C   UNL     1     -10.156  10.085  66.147  1.00  0.00    -0.317 C  
HETATM    4  C   UNL     1     -10.324   9.321  67.425  1.00  0.00    -0.263 C  
HETATM    5  N   UNL     1     -10.184  10.006  68.592  1.00  0.00    -0.172 N  
HETATM    6  O   UNL     1     -10.545   8.110  67.422  1.00  0.00    -0.279 OA 
HETATM    7  H   UNL     1     -10.348   9.477  69.449  1.00  0.00     0.000 HD 
HETATM    8  N   UNL     1      -9.853  11.307  68.746  1.00  0.00    -0.204 NA 
HETATM    9  C   UNL     1      -9.750  12.073  67.702  1.00  0.00    -0.187 C  
ENDROOT
BRANCH   9  10
HETATM   10  C   UNL     1      -9.315  13.496  67.931  1.00  0.00    -0.215 A  
HETATM   11  C   UNL     1      -8.062  13.956  67.522  1.00  0.00    -0.191 A  
HETATM   12  C   UNL     1      -7.656  15.261  67.827  1.00  0.00    -0.171 A  
HETATM   13  C   UNL     1      -8.482  16.137  68.542  1.00  0.00    -0.197 A  
HETATM   14  C   UNL     1      -9.739  15.673  68.946  1.00  0.00    -0.220 A  
HETATM   15  C   UNL     1     -10.157  14.368  68.636  1.00  0.00    -0.242 A  
BRANCH  13  16
HETATM   16  N   UNL     1      -8.049  17.432  68.902  1.00  0.00    -0.230 NA 
HETATM   17  H   UNL     1      -7.331  17.582  69.611  1.00  0.00     0.000 HD 
BRANCH  16  18
HETATM   18  N   UNL     1      -8.645  18.477  68.246  1.00  0.00    -0.310 NA 
HETATM   19  H   UNL     1      -9.137  19.197  68.775  1.00  0.00     0.000 HD 
BRANCH  18  20
HETATM   20  C   UNL     1      -8.582  18.551  66.947  1.00  0.00    -0.278 C  
HETATM   21  C   UNL     1      -9.850  18.738  66.294  1.00  0.00    -0.353 C  
HETATM   22  C   UNL     1      -7.342  18.446  66.240  1.00  0.00    -0.258 C  
HETATM   23  N   UNL     1      -6.321  18.385  65.687  1.00  0.00    -0.250 NA 
HETATM   24  N   UNL     1     -10.863  18.909  65.752  1.00  0.00    -0.320 NA 
ENDBRANCH  18  20
ENDBRANCH  16  18
ENDBRANCH  13  16
ENDBRANCH   9  10
TORSDOF 4
ENDMDL
MODEL      154
REMARK 921   NORMALIZED FREE ENERGY PREDICTED BY IDOCK:   -4.19 KCAL/MOL
REMARK 922        TOTAL FREE ENERGY PREDICTED BY IDOCK:   -5.88 KCAL/MOL
REMARK 923 INTER-LIGAND FREE ENERGY PREDICTED BY IDOCK:   -5.43 KCAL/MOL
REMARK 924 INTRA-LIGAND FREE ENERGY PREDICTED BY IDOCK:   -0.46 KCAL/MOL
REMARK 927      BINDING AFFINITY PREDICTED BY RF-SCORE:    0.00 PKD
ROOT
HETATM    1  C   UNL     1     -12.752  14.517  70.332  1.00  0.00    -0.378 C  
HETATM    2  C   UNL     1     -11.302  14.727  69.889  1.00  0.00    -0.310 C  
HETATM    3  C   UNL     1     -10.923  16.200  69.997  1.00  0.00    -0.364 C  
HETATM    4  C   UNL     1     -10.771  16.937  68.702  1.00  0.00    -0.345 C  
HETATM    5  N   UNL     1     -10.796  16.207  67.554  1.00  0.00    -0.313 N  
HETATM    6  O   UNL     1     -10.596  18.156  68.675  1.00  0.00    -0.265 OA 
HETATM    7  H   UNL     1     -10.738  16.733  66.681  1.00  0.00     0.000 HD 
HETATM    8  N   UNL     1     -10.889  14.864  67.437  1.00  0.00    -0.296 NA 
HETATM    9  C   UNL     1     -11.089  14.138  68.496  1.00  0.00    -0.255 C  
ENDROOT
BRANCH   9  10
HETATM   10  C   UNL     1     -11.118  12.645  68.313  1.00  0.00    -0.295 A  
HETATM   11  C   UNL     1     -11.262  11.775  69.395  1.00  0.00    -0.300 A  
HETATM   12  C   UNL     1     -11.200  10.389  69.200  1.00  0.00    -0.301 A  
HETATM   13  C   UNL     1     -10.993   9.837  67.930  1.00  0.00    -0.188 A  
HETATM   14  C   UNL     1     -10.853  10.713  66.847  1.00  0.00    -0.267 A  
HETATM   15  C   UNL     1     -10.924  12.103  67.033  1.00  0.00    -0.319 A  
BRANCH  13  16
HETATM   16  N   UNL     1     -10.868   8.443  67.742  1.00  0.00    -0.494 NA 
HETATM   17  H   UNL     1     -11.676   7.820  67.780  1.00  0.00     0.000 HD 
BRANCH  16  18
HETATM   18  N   UNL     1      -9.604   7.971  67.507  1.00  0.00    -0.148 NA 
HETATM   19  H   UNL     1      -9.242   7.935  66.555  1.00  0.00     0.000 HD 
BRANCH  18  20
HETATM   20  C   UNL     1      -8.864   7.568  68.502  1.00  0.00    -0.126 C  
HETATM   21  C   UNL     1      -7.567   8.184  68.573  1.00  0.00    -0.104 C  
HETATM   22  C   UNL     1      -9.320   6.585  69.437  1.00  0.00    -0.143 C  
HETATM   23  N   UNL     1      -9.720   5.804  70.201  1.00  0.00    -0.164 NA 
HETATM   24  N   UNL     1      -6.523   8.686  68.657  1.00  0.00    -0.053 NA 
ENDBRANCH  18  20
ENDBRANCH  16  18
ENDBRANCH  13  16
ENDBRANCH   9  10
TORSDOF 4
ENDMDL
MODEL      155
REMARK 921   NORMALIZED FREE ENERGY PREDICTED BY IDOCK:   -4.15 KCAL/MOL
REMARK 922        TOTAL FREE ENERGY PREDICTED BY IDOCK:   -5.82 KCAL/MOL
REMARK 923 INTER-LIGAND FREE ENERGY PREDICTED BY IDOCK:   -5.11 KCAL/MOL
REMARK 924 INTRA-LIGAND FREE ENERGY PREDICTED BY IDOCK:   -0.72 KCAL/MOL
REMARK 927      BINDING AFFINITY PREDICTED BY RF-SCORE:    0.00 PKD
ROOT
HETATM    1  C   UNL     1      -6.742   5.519  68.805  1.00  0.00    -0.053 C  
HETATM    2  C   UNL     1      -6.865   5.116  70.277  1.00  0.00    -0.044 C  
HETATM    3  C   UNL     1      -5.848   4.031  70.616  1.00  0.00    -0.014 C  
HETATM    4  C   UNL     1      -6.401   2.657  70.838  1.00  0.00    -0.023 C  
HETATM    5  N   UNL     1      -7.754   2.525  70.906  1.00  0.00    -0.036 N  
HETATM    6  O   UNL     1      -5.661   1.684  70.988  1.00  0.00    -0.008 OA 
HETATM    7  H   UNL     1      -8.111   1.575  71.011  1.00  0.00     0.000 HD 
HETATM    8  N   UNL     1      -8.678   3.510  70.851  1.00  0.00    -0.072 NA 
HETATM    9  C   UNL     1      -8.307   4.728  70.597  1.00  0.00    -0.096 C  
ENDROOT
BRANCH   9  10
HETATM   10  C   UNL     1      -9.372   5.791  70.612  1.00  0.00    -0.186 A  
HETATM   11  C   UNL     1      -9.232   6.960  71.363  1.00  0.00    -0.156 A  
HETATM   12  C   UNL     1     -10.278   7.889  71.424  1.00  0.00    -0.226 A  
HETATM   13  C   UNL     1     -11.484   7.680  70.742  1.00  0.00    -0.277 A  
HETATM   14  C   UNL     1     -11.618   6.509  69.987  1.00  0.00    -0.455 A  
HETATM   15  C   UNL     1     -10.570   5.577  69.914  1.00  0.00    -0.387 A  
BRANCH  13  16
HETATM   16  N   UNL     1     -12.560   8.587  70.852  1.00  0.00    -0.493 NA 
HETATM   17  H   UNL     1     -13.473   8.393  70.438  1.00  0.00     0.000 HD 
BRANCH  16  18
HETATM   18  N   UNL     1     -12.314   9.743  71.545  1.00  0.00    -0.378 NA 
HETATM   19  H   UNL     1     -11.984   9.699  72.509  1.00  0.00     0.000 HD 
BRANCH  18  20
HETATM   20  C   UNL     1     -12.501  10.898  70.973  1.00  0.00    -0.411 C  
HETATM   21  C   UNL     1     -12.141  10.945  69.581  1.00  0.00    -0.329 C  
HETATM   22  C   UNL     1     -13.021  12.024  71.688  1.00  0.00    -0.334 C  
HETATM   23  N   UNL     1     -13.469  12.918  72.282  1.00  0.00    -0.576 NA 
HETATM   24  N   UNL     1     -11.874  10.995  68.452  1.00  0.00    -0.552 NA 
ENDBRANCH  18  20
ENDBRANCH  16  18
ENDBRANCH  13  16
ENDBRANCH   9  10
TORSDOF 4
ENDMDL
MODEL      156
REMARK 921   NORMALIZED FREE ENERGY PREDICTED BY IDOCK:   -4.14 KCAL/MOL
REMARK 922        TOTAL FREE ENERGY PREDICTED BY IDOCK:   -5.81 KCAL/MOL
REMARK 923 INTER-LIGAND FREE ENERGY PREDICTED BY IDOCK:   -5.21 KCAL/MOL
REMARK 924 INTRA-LIGAND FREE ENERGY PREDICTED BY IDOCK:   -0.60 KCAL/MOL
REMARK 927      BINDING AFFINITY PREDICTED BY RF-SCORE:    0.00 PKD
ROOT
HETATM    1  C   UNL     1     -10.513   7.960  67.894  1.00  0.00    -0.261 C  
HETATM    2  C   UNL     1      -9.470   8.517  68.866  1.00  0.00    -0.147 C  
HETATM    3  C   UNL     1      -8.968   7.416  69.794  1.00  0.00    -0.141 C  
HETATM    4  C   UNL     1      -9.428   7.496  71.217  1.00  0.00    -0.150 C  
HETATM    5  N   UNL     1     -10.085   8.623  71.606  1.00  0.00    -0.265 N  
HETATM    6  O   UNL     1      -9.190   6.591  72.019  1.00  0.00    -0.148 OA 
HETATM    7  H   UNL     1     -10.429   8.637  72.566  1.00  0.00     0.000 HD 
HETATM    8  N   UNL     1     -10.333   9.725  70.864  1.00  0.00    -0.253 NA 
HETATM    9  C   UNL     1     -10.033   9.731  69.601  1.00  0.00    -0.223 C  
ENDROOT
BRANCH   9  10
HETATM   10  C   UNL     1     -10.272  11.009  68.842  1.00  0.00    -0.218 A  
HETATM   11  C   UNL     1     -11.335  11.859  69.152  1.00  0.00    -0.338 A  
HETATM   12  C   UNL     1     -11.580  12.996  68.371  1.00  0.00    -0.370 A  
HETATM   13  C   UNL     1     -10.779  13.313  67.267  1.00  0.00    -0.255 A  
HETATM   14  C   UNL     1      -9.712  12.459  66.962  1.00  0.00    -0.211 A  
HETATM   15  C   UNL     1      -9.455  11.323  67.746  1.00  0.00    -0.173 A  
BRANCH  13  16
HETATM   16  N   UNL     1     -11.063  14.425  66.444  1.00  0.00    -0.320 NA 
HETATM   17  H   UNL     1     -12.020  14.714  66.241  1.00  0.00     0.000 HD 
BRANCH  16  18
HETATM   18  N   UNL     1      -9.983  15.094  65.932  1.00  0.00    -0.304 NA 
HETATM   19  H   UNL     1      -9.714  14.959  64.958  1.00  0.00     0.000 HD 
BRANCH  18  20
HETATM   20  C   UNL     1      -9.300  15.904  66.690  1.00  0.00    -0.249 C  
HETATM   21  C   UNL     1     -10.067  16.972  67.273  1.00  0.00    -0.295 C  
HETATM   22  C   UNL     1      -7.896  15.733  66.912  1.00  0.00    -0.236 C  
HETATM   23  N   UNL     1      -6.762  15.561  67.099  1.00  0.00    -0.278 NA 
HETATM   24  N   UNL     1     -10.675  17.830  67.767  1.00  0.00    -0.375 NA 
ENDBRANCH  18  20
ENDBRANCH  16  18
ENDBRANCH  13  16
ENDBRANCH   9  10
TORSDOF 4
ENDMDL
MODEL      157
REMARK 921   NORMALIZED FREE ENERGY PREDICTED BY IDOCK:   -4.13 KCAL/MOL
REMARK 922        TOTAL FREE ENERGY PREDICTED BY IDOCK:   -5.80 KCAL/MOL
REMARK 923 INTER-LIGAND FREE ENERGY PREDICTED BY IDOCK:   -5.64 KCAL/MOL
REMARK 924 INTRA-LIGAND FREE ENERGY PREDICTED BY IDOCK:   -0.16 KCAL/MOL
REMARK 927      BINDING AFFINITY PREDICTED BY RF-SCORE:    0.00 PKD
ROOT
HETATM    1  C   UNL     1      -6.389  16.288  69.017  1.00  0.00    -0.153 C  
HETATM    2  C   UNL     1      -6.558  17.309  67.889  1.00  0.00    -0.161 C  
HETATM    3  C   UNL     1      -5.866  18.619  68.253  1.00  0.00    -0.201 C  
HETATM    4  C   UNL     1      -6.767  19.767  68.588  1.00  0.00    -0.306 C  
HETATM    5  N   UNL     1      -8.100  19.610  68.362  1.00  0.00    -0.333 N  
HETATM    6  O   UNL     1      -6.318  20.830  69.020  1.00  0.00    -0.259 OA 
HETATM    7  H   UNL     1      -8.700  20.387  68.640  1.00  0.00     0.000 HD 
HETATM    8  N   UNL     1      -8.718  18.543  67.810  1.00  0.00    -0.271 NA 
HETATM    9  C   UNL     1      -8.037  17.470  67.544  1.00  0.00    -0.205 C  
ENDROOT
BRANCH   9  10
HETATM   10  C   UNL     1      -8.766  16.339  66.871  1.00  0.00    -0.237 A  
HETATM   11  C   UNL     1      -9.728  16.567  65.886  1.00  0.00    -0.303 A  
HETATM   12  C   UNL     1     -10.449  15.497  65.342  1.00  0.00    -0.429 A  
HETATM   13  C   UNL     1     -10.232  14.179  65.763  1.00  0.00    -0.332 A  
HETATM   14  C   UNL     1      -9.263  13.954  66.747  1.00  0.00    -0.267 A  
HETATM   15  C   UNL     1      -8.530  15.021  67.291  1.00  0.00    -0.220 A  
BRANCH  13  16
HETATM   16  N   UNL     1     -11.002  13.107  65.258  1.00  0.00    -0.281 NA 
HETATM   17  H   UNL     1     -11.608  13.216  64.445  1.00  0.00     0.000 HD 
BRANCH  16  18
HETATM   18  N   UNL     1     -10.889  11.913  65.920  1.00  0.00    -0.287 NA 
HETATM   19  H   UNL     1     -11.194  11.837  66.890  1.00  0.00     0.000 HD 
BRANCH  18  20
HETATM   20  C   UNL     1     -10.392  10.875  65.309  1.00  0.00    -0.268 C  
HETATM   21  C   UNL     1     -10.286   9.694  66.122  1.00  0.00    -0.205 C  
HETATM   22  C   UNL     1      -9.983  10.925  63.938  1.00  0.00    -0.343 C  
HETATM   23  N   UNL     1      -9.681  10.980  62.816  1.00  0.00    -0.294 NA 
HETATM   24  N   UNL     1     -10.211   8.725  66.759  1.00  0.00    -0.285 NA 
ENDBRANCH  18  20
ENDBRANCH  16  18
ENDBRANCH  13  16
ENDBRANCH   9  10
TORSDOF 4
ENDMDL
MODEL      158
REMARK 921   NORMALIZED FREE ENERGY PREDICTED BY IDOCK:   -4.10 KCAL/MOL
REMARK 922        TOTAL FREE ENERGY PREDICTED BY IDOCK:   -5.77 KCAL/MOL
REMARK 923 INTER-LIGAND FREE ENERGY PREDICTED BY IDOCK:   -5.39 KCAL/MOL
REMARK 924 INTRA-LIGAND FREE ENERGY PREDICTED BY IDOCK:   -0.38 KCAL/MOL
REMARK 927      BINDING AFFINITY PREDICTED BY RF-SCORE:    0.00 PKD
ROOT
HETATM    1  C   UNL     1      -8.006   7.517  65.715  1.00  0.00    -0.117 C  
HETATM    2  C   UNL     1      -8.545   7.609  67.145  1.00  0.00    -0.121 C  
HETATM    3  C   UNL     1      -8.448   6.252  67.835  1.00  0.00    -0.117 C  
HETATM    4  C   UNL     1      -9.744   5.534  68.056  1.00  0.00    -0.131 C  
HETATM    5  N   UNL     1     -10.895   6.215  67.803  1.00  0.00    -0.308 N  
HETATM    6  O   UNL     1      -9.772   4.380  68.486  1.00  0.00    -0.154 OA 
HETATM    7  H   UNL     1     -11.764   5.693  67.915  1.00  0.00     0.000 HD 
HETATM    8  N   UNL     1     -11.017   7.505  67.419  1.00  0.00    -0.181 NA 
HETATM    9  C   UNL     1      -9.954   8.196  67.138  1.00  0.00    -0.236 C  
ENDROOT
BRANCH   9  10
HETATM   10  C   UNL     1     -10.149   9.645  66.779  1.00  0.00    -0.301 A  
HETATM   11  C   UNL     1     -10.095  10.088  65.456  1.00  0.00    -0.325 A  
HETATM   12  C   UNL     1     -10.194  11.454  65.164  1.00  0.00    -0.328 A  
HETATM   13  C   UNL     1     -10.348  12.409  66.177  1.00  0.00    -0.247 A  
HETATM   14  C   UNL     1     -10.406  11.961  67.501  1.00  0.00    -0.219 A  
HETATM   15  C   UNL     1     -10.316  10.592  67.800  1.00  0.00    -0.248 A  
BRANCH  13  16
HETATM   16  N   UNL     1     -10.387  13.791  65.887  1.00  0.00    -0.301 NA 
HETATM   17  H   UNL     1      -9.815  14.203  65.149  1.00  0.00     0.000 HD 
BRANCH  16  18
HETATM   18  N   UNL     1     -11.233  14.549  66.652  1.00  0.00    -0.337 NA 
HETATM   19  H   UNL     1     -11.988  14.103  67.173  1.00  0.00     0.000 HD 
BRANCH  18  20
HETATM   20  C   UNL     1     -11.075  15.841  66.713  1.00  0.00    -0.116 C  
HETATM   21  C   UNL     1     -11.066  16.507  65.438  1.00  0.00    -0.019 C  
HETATM   22  C   UNL     1     -10.918  16.528  67.959  1.00  0.00    -0.320 C  
HETATM   23  N   UNL     1     -10.818  17.069  68.984  1.00  0.00    -0.271 NA 
HETATM   24  N   UNL     1     -11.076  17.063  64.419  1.00  0.00    -0.986 NA 
ENDBRANCH  18  20
ENDBRANCH  16  18
ENDBRANCH  13  16
ENDBRANCH   9  10
TORSDOF 4
ENDMDL
MODEL      159
REMARK 921   NORMALIZED FREE ENERGY PREDICTED BY IDOCK:   -4.09 KCAL/MOL
REMARK 922        TOTAL FREE ENERGY PREDICTED BY IDOCK:   -5.76 KCAL/MOL
REMARK 923 INTER-LIGAND FREE ENERGY PREDICTED BY IDOCK:   -5.66 KCAL/MOL
REMARK 924 INTRA-LIGAND FREE ENERGY PREDICTED BY IDOCK:   -0.09 KCAL/MOL
REMARK 927      BINDING AFFINITY PREDICTED BY RF-SCORE:    0.00 PKD
ROOT
HETATM    1  C   UNL     1     -10.247   7.403  68.619  1.00  0.00    -0.203 C  
HETATM    2  C   UNL     1      -9.253   6.647  67.734  1.00  0.00    -0.111 C  
HETATM    3  C   UNL     1      -8.676   5.453  68.486  1.00  0.00    -0.094 C  
HETATM    4  C   UNL     1      -7.246   5.575  68.916  1.00  0.00    -0.066 C  
HETATM    5  N   UNL     1      -6.535   6.637  68.448  1.00  0.00    -0.047 N  
HETATM    6  O   UNL     1      -6.720   4.729  69.640  1.00  0.00    -0.044 OA 
HETATM    7  H   UNL     1      -5.578   6.726  68.789  1.00  0.00     0.000 HD 
HETATM    8  N   UNL     1      -6.952   7.586  67.580  1.00  0.00    -0.077 NA 
HETATM    9  C   UNL     1      -8.193   7.607  67.198  1.00  0.00    -0.118 C  
ENDROOT
BRANCH   9  10
HETATM   10  C   UNL     1      -8.584   8.647  66.182  1.00  0.00    -0.158 A  
HETATM   11  C   UNL     1      -7.650   9.208  65.309  1.00  0.00    -0.098 A  
HETATM   12  C   UNL     1      -8.030  10.234  64.435  1.00  0.00    -0.135 A  
HETATM   13  C   UNL     1      -9.341  10.726  64.408  1.00  0.00    -0.242 A  
HETATM   14  C   UNL     1     -10.274  10.158  65.282  1.00  0.00    -0.261 A  
HETATM   15  C   UNL     1      -9.904   9.122  66.155  1.00  0.00    -0.363 A  
BRANCH  13  16
HETATM   16  N   UNL     1      -9.708  11.802  63.570  1.00  0.00    -0.517 NA 
HETATM   17  H   UNL     1      -9.987  11.658  62.599  1.00  0.00     0.000 HD 
BRANCH  16  18
HETATM   18  N   UNL     1      -9.671  13.051  64.132  1.00  0.00    -0.595 NA 
HETATM   19  H   UNL     1      -8.774  13.502  64.313  1.00  0.00     0.000 HD 
BRANCH  18  20
HETATM   20  C   UNL     1     -10.781  13.661  64.437  1.00  0.00    -0.354 C  
HETATM   21  C   UNL     1     -10.621  15.032  64.841  1.00  0.00    -0.374 C  
HETATM   22  C   UNL     1     -12.051  13.004  64.373  1.00  0.00    -0.411 C  
HETATM   23  N   UNL     1     -13.074  12.458  64.290  1.00  0.00    -0.787 NA 
HETATM   24  N   UNL     1     -10.512  16.146  65.151  1.00  0.00    -0.608 NA 
ENDBRANCH  18  20
ENDBRANCH  16  18
ENDBRANCH  13  16
ENDBRANCH   9  10
TORSDOF 4
ENDMDL
MODEL      160
REMARK 921   NORMALIZED FREE ENERGY PREDICTED BY IDOCK:   -4.09 KCAL/MOL
REMARK 922        TOTAL FREE ENERGY PREDICTED BY IDOCK:   -5.75 KCAL/MOL
REMARK 923 INTER-LIGAND FREE ENERGY PREDICTED BY IDOCK:   -5.06 KCAL/MOL
REMARK 924 INTRA-LIGAND FREE ENERGY PREDICTED BY IDOCK:   -0.69 KCAL/MOL
REMARK 927      BINDING AFFINITY PREDICTED BY RF-SCORE:    0.00 PKD
ROOT
HETATM    1  C   UNL     1     -10.537   5.650  66.525  1.00  0.00    -0.320 C  
HETATM    2  C   UNL     1      -9.050   5.987  66.670  1.00  0.00    -0.142 C  
HETATM    3  C   UNL     1      -8.203   4.731  66.494  1.00  0.00    -0.107 C  
HETATM    4  C   UNL     1      -7.564   4.190  67.736  1.00  0.00    -0.068 C  
HETATM    5  N   UNL     1      -7.630   4.951  68.863  1.00  0.00    -0.068 N  
HETATM    6  O   UNL     1      -6.968   3.112  67.733  1.00  0.00    -0.048 OA 
HETATM    7  H   UNL     1      -7.229   4.543  69.708  1.00  0.00     0.000 HD 
HETATM    8  N   UNL     1      -8.167   6.184  68.989  1.00  0.00    -0.112 NA 
HETATM    9  C   UNL     1      -8.803   6.715  67.989  1.00  0.00    -0.115 C  
ENDROOT
BRANCH   9  10
HETATM   10  C   UNL     1      -9.323   8.116  68.168  1.00  0.00    -0.139 A  
HETATM   11  C   UNL     1     -10.291   8.424  69.126  1.00  0.00    -0.229 A  
HETATM   12  C   UNL     1     -10.816   9.720  69.208  1.00  0.00    -0.240 A  
HETATM   13  C   UNL     1     -10.393  10.737  68.343  1.00  0.00    -0.180 A  
HETATM   14  C   UNL     1      -9.420  10.425  67.387  1.00  0.00    -0.170 A  
HETATM   15  C   UNL     1      -8.882   9.131  67.305  1.00  0.00    -0.132 A  
BRANCH  13  16
HETATM   16  N   UNL     1     -10.966  12.028  68.386  1.00  0.00    -0.222 NA 
HETATM   17  H   UNL     1     -10.611  12.754  69.010  1.00  0.00     0.000 HD 
BRANCH  16  18
HETATM   18  N   UNL     1     -12.023  12.252  67.545  1.00  0.00    -0.528 NA 
HETATM   19  H   UNL     1     -12.887  11.723  67.660  1.00  0.00     0.000 HD 
BRANCH  18  20
HETATM   20  C   UNL     1     -11.924  13.141  66.598  1.00  0.00    -0.389 C  
HETATM   21  C   UNL     1     -12.532  12.761  65.351  1.00  0.00    -0.416 C  
HETATM   22  C   UNL     1     -11.255  14.391  66.797  1.00  0.00    -0.337 C  
HETATM   23  N   UNL     1     -10.729  15.411  66.988  1.00  0.00    -0.317 NA 
HETATM   24  N   UNL     1     -13.035  12.479  64.343  1.00  0.00    -0.785 NA 
ENDBRANCH  18  20
ENDBRANCH  16  18
ENDBRANCH  13  16
ENDBRANCH   9  10
TORSDOF 4
ENDMDL
MODEL      161
REMARK 921   NORMALIZED FREE ENERGY PREDICTED BY IDOCK:   -4.07 KCAL/MOL
REMARK 922        TOTAL FREE ENERGY PREDICTED BY IDOCK:   -5.73 KCAL/MOL
REMARK 923 INTER-LIGAND FREE ENERGY PREDICTED BY IDOCK:   -5.12 KCAL/MOL
REMARK 924 INTRA-LIGAND FREE ENERGY PREDICTED BY IDOCK:   -0.60 KCAL/MOL
REMARK 927      BINDING AFFINITY PREDICTED BY RF-SCORE:    0.00 PKD
ROOT
HETATM    1  C   UNL     1     -11.882  13.697  68.210  1.00  0.00    -0.404 C  
HETATM    2  C   UNL     1     -10.995  13.649  66.964  1.00  0.00    -0.298 C  
HETATM    3  C   UNL     1     -11.451  14.693  65.949  1.00  0.00    -0.338 C  
HETATM    4  C   UNL     1     -12.132  14.164  64.724  1.00  0.00    -0.441 C  
HETATM    5  N   UNL     1     -12.119  12.817  64.527  1.00  0.00    -0.389 N  
HETATM    6  O   UNL     1     -12.654  14.920  63.904  1.00  0.00    -0.831 OA 
HETATM    7  H   UNL     1     -12.628  12.475  63.711  1.00  0.00     0.000 HD 
HETATM    8  N   UNL     1     -11.510  11.882  65.289  1.00  0.00    -0.294 NA 
HETATM    9  C   UNL     1     -10.948  12.229  66.407  1.00  0.00    -0.287 C  
ENDROOT
BRANCH   9  10
HETATM   10  C   UNL     1     -10.229  11.155  67.179  1.00  0.00    -0.235 A  
HETATM   11  C   UNL     1      -8.891  11.291  67.554  1.00  0.00    -0.140 A  
HETATM   12  C   UNL     1      -8.228  10.238  68.196  1.00  0.00    -0.114 A  
HETATM   13  C   UNL     1      -8.877   9.029  68.482  1.00  0.00    -0.134 A  
HETATM   14  C   UNL     1     -10.220   8.900  68.108  1.00  0.00    -0.245 A  
HETATM   15  C   UNL     1     -10.893   9.955  67.472  1.00  0.00    -0.307 A  
BRANCH  13  16
HETATM   16  N   UNL     1      -8.192   7.946  69.075  1.00  0.00    -0.124 NA 
HETATM   17  H   UNL     1      -7.847   7.987  70.034  1.00  0.00     0.000 HD 
BRANCH  16  18
HETATM   18  N   UNL     1      -8.015   6.836  68.292  1.00  0.00    -0.110 NA 
HETATM   19  H   UNL     1      -8.039   6.920  67.276  1.00  0.00     0.000 HD 
BRANCH  18  20
HETATM   20  C   UNL     1      -7.818   5.673  68.846  1.00  0.00    -0.096 C  
HETATM   21  C   UNL     1      -8.592   4.600  68.283  1.00  0.00    -0.098 C  
HETATM   22  C   UNL     1      -6.901   5.496  69.931  1.00  0.00    -0.060 C  
HETATM   23  N   UNL     1      -6.133   5.369  70.795  1.00  0.00    -0.021 NA 
HETATM   24  N   UNL     1      -9.196   3.719  67.828  1.00  0.00    -0.158 NA 
ENDBRANCH  18  20
ENDBRANCH  16  18
ENDBRANCH  13  16
ENDBRANCH   9  10
TORSDOF 4
ENDMDL
MODEL      162
REMARK 921   NORMALIZED FREE ENERGY PREDICTED BY IDOCK:   -4.04 KCAL/MOL
REMARK 922        TOTAL FREE ENERGY PREDICTED BY IDOCK:   -5.70 KCAL/MOL
REMARK 923 INTER-LIGAND FREE ENERGY PREDICTED BY IDOCK:   -5.03 KCAL/MOL
REMARK 924 INTRA-LIGAND FREE ENERGY PREDICTED BY IDOCK:   -0.67 KCAL/MOL
REMARK 927      BINDING AFFINITY PREDICTED BY RF-SCORE:    0.00 PKD
ROOT
HETATM    1  C   UNL     1      -8.341   8.437  67.514  1.00  0.00    -0.129 C  
HETATM    2  C   UNL     1      -8.886   8.431  66.084  1.00  0.00    -0.198 C  
HETATM    3  C   UNL     1      -8.325   7.243  65.308  1.00  0.00    -0.110 C  
HETATM    4  C   UNL     1      -7.309   7.566  64.256  1.00  0.00    -0.090 C  
HETATM    5  N   UNL     1      -7.111   8.878  63.951  1.00  0.00    -0.091 N  
HETATM    6  O   UNL     1      -6.698   6.677  63.662  1.00  0.00    -0.046 OA 
HETATM    7  H   UNL     1      -6.382   9.078  63.266  1.00  0.00     0.000 HD 
HETATM    8  N   UNL     1      -7.771   9.945  64.453  1.00  0.00    -0.138 NA 
HETATM    9  C   UNL     1      -8.625   9.780  65.417  1.00  0.00    -0.149 C  
ENDROOT
BRANCH   9  10
HETATM   10  C   UNL     1      -9.376  10.995  65.890  1.00  0.00    -0.229 A  
HETATM   11  C   UNL     1      -8.786  11.942  66.730  1.00  0.00    -0.193 A  
HETATM   12  C   UNL     1      -9.538  13.016  67.221  1.00  0.00    -0.225 A  
HETATM   13  C   UNL     1     -10.890  13.175  66.890  1.00  0.00    -0.265 A  
HETATM   14  C   UNL     1     -11.476  12.226  66.045  1.00  0.00    -0.434 A  
HETATM   15  C   UNL     1     -10.725  11.151  65.541  1.00  0.00    -0.251 A  
BRANCH  13  16
HETATM   16  N   UNL     1     -11.665  14.223  67.434  1.00  0.00    -0.375 NA 
HETATM   17  H   UNL     1     -12.622  14.075  67.754  1.00  0.00     0.000 HD 
BRANCH  16  18
HETATM   18  N   UNL     1     -11.060  15.450  67.509  1.00  0.00    -0.320 NA 
HETATM   19  H   UNL     1     -10.562  15.824  66.701  1.00  0.00     0.000 HD 
BRANCH  18  20
HETATM   20  C   UNL     1     -11.121  16.139  68.613  1.00  0.00    -0.356 C  
HETATM   21  C   UNL     1     -10.297  17.318  68.632  1.00  0.00    -0.357 C  
HETATM   22  C   UNL     1     -11.944  15.738  69.713  1.00  0.00    -0.322 C  
HETATM   23  N   UNL     1     -12.640  15.409  70.585  1.00  0.00    -0.416 NA 
HETATM   24  N   UNL     1      -9.653  18.284  68.657  1.00  0.00    -0.334 NA 
ENDBRANCH  18  20
ENDBRANCH  16  18
ENDBRANCH  13  16
ENDBRANCH   9  10
TORSDOF 4
ENDMDL
MODEL      163
REMARK 921   NORMALIZED FREE ENERGY PREDICTED BY IDOCK:   -4.00 KCAL/MOL
REMARK 922        TOTAL FREE ENERGY PREDICTED BY IDOCK:   -5.64 KCAL/MOL
REMARK 923 INTER-LIGAND FREE ENERGY PREDICTED BY IDOCK:   -4.99 KCAL/MOL
REMARK 924 INTRA-LIGAND FREE ENERGY PREDICTED BY IDOCK:   -0.64 KCAL/MOL
REMARK 927      BINDING AFFINITY PREDICTED BY RF-SCORE:    0.00 PKD
ROOT
HETATM    1  C   UNL     1     -11.993  15.302  68.471  1.00  0.00    -0.228 C  
HETATM    2  C   UNL     1     -10.570  15.753  68.131  1.00  0.00    -0.275 C  
HETATM    3  C   UNL     1     -10.487  17.277  68.120  1.00  0.00    -0.382 C  
HETATM    4  C   UNL     1     -10.346  17.917  66.774  1.00  0.00    -0.355 C  
HETATM    5  N   UNL     1     -10.117  17.103  65.708  1.00  0.00    -0.227 N  
HETATM    6  O   UNL     1     -10.400  19.140  66.637  1.00  0.00    -0.369 OA 
HETATM    7  H   UNL     1     -10.071  17.555  64.795  1.00  0.00     0.000 HD 
HETATM    8  N   UNL     1      -9.944  15.763  65.722  1.00  0.00    -0.338 NA 
HETATM    9  C   UNL     1     -10.111  15.103  66.828  1.00  0.00    -0.258 C  
ENDROOT
BRANCH   9  10
HETATM   10  C   UNL     1      -9.841  13.623  66.796  1.00  0.00    -0.271 A  
HETATM   11  C   UNL     1     -10.735  12.726  66.207  1.00  0.00    -0.291 A  
HETATM   12  C   UNL     1     -10.496  11.348  66.271  1.00  0.00    -0.301 A  
HETATM   13  C   UNL     1      -9.368  10.829  66.918  1.00  0.00    -0.160 A  
HETATM   14  C   UNL     1      -8.473  11.732  67.503  1.00  0.00    -0.154 A  
HETATM   15  C   UNL     1      -8.701  13.116  67.436  1.00  0.00    -0.206 A  
BRANCH  13  16
HETATM   16  N   UNL     1      -9.158   9.437  67.035  1.00  0.00    -0.133 NA 
HETATM   17  H   UNL     1      -8.374   8.971  66.579  1.00  0.00     0.000 HD 
BRANCH  16  18
HETATM   18  N   UNL     1     -10.066   8.748  67.795  1.00  0.00    -0.195 NA 
HETATM   19  H   UNL     1     -11.055   8.764  67.548  1.00  0.00     0.000 HD 
BRANCH  18  20
HETATM   20  C   UNL     1      -9.664   8.071  68.833  1.00  0.00    -0.159 C  
HETATM   21  C   UNL     1      -9.177   6.750  68.538  1.00  0.00    -0.128 C  
HETATM   22  C   UNL     1      -9.716   8.611  70.158  1.00  0.00    -0.172 C  
HETATM   23  N   UNL     1      -9.742   9.079  71.222  1.00  0.00    -0.289 NA 
HETATM   24  N   UNL     1      -8.762   5.689  68.315  1.00  0.00    -0.107 NA 
ENDBRANCH  18  20
ENDBRANCH  16  18
ENDBRANCH  13  16
ENDBRANCH   9  10
TORSDOF 4
ENDMDL
MODEL      164
REMARK 921   NORMALIZED FREE ENERGY PREDICTED BY IDOCK:   -3.99 KCAL/MOL
REMARK 922        TOTAL FREE ENERGY PREDICTED BY IDOCK:   -5.63 KCAL/MOL
REMARK 923 INTER-LIGAND FREE ENERGY PREDICTED BY IDOCK:   -4.84 KCAL/MOL
REMARK 924 INTRA-LIGAND FREE ENERGY PREDICTED BY IDOCK:   -0.80 KCAL/MOL
REMARK 927      BINDING AFFINITY PREDICTED BY RF-SCORE:    0.00 PKD
ROOT
HETATM    1  C   UNL     1     -12.332   7.051  71.436  1.00  0.00    -0.419 C  
HETATM    2  C   UNL     1     -11.222   6.003  71.323  1.00  0.00    -0.323 C  
HETATM    3  C   UNL     1     -11.027   5.292  72.658  1.00  0.00    -0.316 C  
HETATM    4  C   UNL     1      -9.776   5.633  73.408  1.00  0.00    -0.148 C  
HETATM    5  N   UNL     1      -8.842   6.387  72.767  1.00  0.00    -0.125 N  
HETATM    6  O   UNL     1      -9.580   5.218  74.551  1.00  0.00    -0.132 OA 
HETATM    7  H   UNL     1      -8.018   6.646  73.311  1.00  0.00     0.000 HD 
HETATM    8  N   UNL     1      -8.880   6.831  71.491  1.00  0.00    -0.137 NA 
HETATM    9  C   UNL     1      -9.949   6.645  70.777  1.00  0.00    -0.184 C  
ENDROOT
BRANCH   9  10
HETATM   10  C   UNL     1      -9.909   7.104  69.344  1.00  0.00    -0.161 A  
HETATM   11  C   UNL     1      -9.939   6.199  68.282  1.00  0.00    -0.162 A  
HETATM   12  C   UNL     1      -9.813   6.654  66.963  1.00  0.00    -0.207 A  
HETATM   13  C   UNL     1      -9.656   8.015  66.670  1.00  0.00    -0.230 A  
HETATM   14  C   UNL     1      -9.631   8.919  67.738  1.00  0.00    -0.176 A  
HETATM   15  C   UNL     1      -9.765   8.471  69.062  1.00  0.00    -0.170 A  
BRANCH  13  16
HETATM   16  N   UNL     1      -9.469   8.467  65.345  1.00  0.00    -0.412 NA 
HETATM   17  H   UNL     1      -8.883   7.960  64.681  1.00  0.00     0.000 HD 
BRANCH  16  18
HETATM   18  N   UNL     1     -10.117   9.623  65.000  1.00  0.00    -0.296 NA 
HETATM   19  H   UNL     1     -11.105   9.740  65.222  1.00  0.00     0.000 HD 
BRANCH  18  20
HETATM   20  C   UNL     1      -9.470  10.574  64.387  1.00  0.00    -0.281 C  
HETATM   21  C   UNL     1      -8.130  10.232  63.993  1.00  0.00    -0.137 C  
HETATM   22  C   UNL     1     -10.059  11.855  64.139  1.00  0.00    -0.310 C  
HETATM   23  N   UNL     1     -10.566  12.879  63.925  1.00  0.00    -0.392 NA 
HETATM   24  N   UNL     1      -7.052   9.966  63.650  1.00  0.00    -0.119 NA 
ENDBRANCH  18  20
ENDBRANCH  16  18
ENDBRANCH  13  16
ENDBRANCH   9  10
TORSDOF 4
ENDMDL
MODEL      165
REMARK 921   NORMALIZED FREE ENERGY PREDICTED BY IDOCK:   -3.96 KCAL/MOL
REMARK 922        TOTAL FREE ENERGY PREDICTED BY IDOCK:   -5.59 KCAL/MOL
REMARK 923 INTER-LIGAND FREE ENERGY PREDICTED BY IDOCK:   -4.87 KCAL/MOL
REMARK 924 INTRA-LIGAND FREE ENERGY PREDICTED BY IDOCK:   -0.72 KCAL/MOL
REMARK 927      BINDING AFFINITY PREDICTED BY RF-SCORE:    0.00 PKD
ROOT
HETATM    1  C   UNL     1      -9.811   7.249  69.942  1.00  0.00    -0.178 C  
HETATM    2  C   UNL     1      -9.329   6.315  68.828  1.00  0.00    -0.124 C  
HETATM    3  C   UNL     1      -9.093   4.912  69.378  1.00  0.00    -0.149 C  
HETATM    4  C   UNL     1      -7.662   4.487  69.502  1.00  0.00    -0.055 C  
HETATM    5  N   UNL     1      -6.714   5.293  68.949  1.00  0.00    -0.051 N  
HETATM    6  O   UNL     1      -7.353   3.430  70.052  1.00  0.00    -0.041 OA 
HETATM    7  H   UNL     1      -5.744   5.008  69.085  1.00  0.00     0.000 HD 
HETATM    8  N   UNL     1      -6.912   6.427  68.241  1.00  0.00    -0.078 NA 
HETATM    9  C   UNL     1      -8.110   6.916  68.131  1.00  0.00    -0.119 C  
ENDROOT
BRANCH   9  10
HETATM   10  C   UNL     1      -8.278   8.143  67.277  1.00  0.00    -0.121 A  
HETATM   11  C   UNL     1      -7.801   9.391  67.682  1.00  0.00    -0.095 A  
HETATM   12  C   UNL     1      -8.049  10.529  66.904  1.00  0.00    -0.120 A  
HETATM   13  C   UNL     1      -8.775  10.454  65.708  1.00  0.00    -0.168 A  
HETATM   14  C   UNL     1      -9.248   9.200  65.304  1.00  0.00    -0.243 A  
HETATM   15  C   UNL     1      -8.995   8.054  66.074  1.00  0.00    -0.205 A  
BRANCH  13  16
HETATM   16  N   UNL     1      -9.078  11.610  64.955  1.00  0.00    -0.413 NA 
HETATM   17  H   UNL     1      -8.797  11.705  63.979  1.00  0.00     0.000 HD 
BRANCH  16  18
HETATM   18  N   UNL     1      -9.771  12.595  65.606  1.00  0.00    -0.419 NA 
HETATM   19  H   UNL     1      -9.279  13.415  65.962  1.00  0.00     0.000 HD 
BRANCH  18  20
HETATM   20  C   UNL     1     -11.059  12.486  65.771  1.00  0.00    -0.308 C  
HETATM   21  C   UNL     1     -11.844  12.831  64.617  1.00  0.00    -0.374 C  
HETATM   22  C   UNL     1     -11.631  12.060  67.012  1.00  0.00    -0.317 C  
HETATM   23  N   UNL     1     -12.074  11.686  68.020  1.00  0.00    -0.572 NA 
HETATM   24  N   UNL     1     -12.493  13.088  63.688  1.00  0.00    -0.723 NA 
ENDBRANCH  18  20
ENDBRANCH  16  18
ENDBRANCH  13  16
ENDBRANCH   9  10
TORSDOF 4
ENDMDL
MODEL      166
REMARK 921   NORMALIZED FREE ENERGY PREDICTED BY IDOCK:   -3.94 KCAL/MOL
REMARK 922        TOTAL FREE ENERGY PREDICTED BY IDOCK:   -5.57 KCAL/MOL
REMARK 923 INTER-LIGAND FREE ENERGY PREDICTED BY IDOCK:   -5.15 KCAL/MOL
REMARK 924 INTRA-LIGAND FREE ENERGY PREDICTED BY IDOCK:   -0.41 KCAL/MOL
REMARK 927      BINDING AFFINITY PREDICTED BY RF-SCORE:    0.00 PKD
ROOT
HETATM    1  C   UNL     1     -11.216  13.340  65.161  1.00  0.00    -0.322 C  
HETATM    2  C   UNL     1     -11.556  13.060  66.627  1.00  0.00    -0.410 C  
HETATM    3  C   UNL     1     -11.918  14.357  67.344  1.00  0.00    -0.407 C  
HETATM    4  C   UNL     1     -10.908  14.871  68.323  1.00  0.00    -0.257 C  
HETATM    5  N   UNL     1      -9.858  14.061  68.630  1.00  0.00    -0.299 N  
HETATM    6  O   UNL     1     -11.038  15.972  68.859  1.00  0.00    -0.287 OA 
HETATM    7  H   UNL     1      -9.158  14.449  69.262  1.00  0.00     0.000 HD 
HETATM    8  N   UNL     1      -9.637  12.802  68.192  1.00  0.00    -0.220 NA 
HETATM    9  C   UNL     1     -10.418  12.288  67.291  1.00  0.00    -0.218 C  
ENDROOT
BRANCH   9  10
HETATM   10  C   UNL     1     -10.162  10.860  66.890  1.00  0.00    -0.272 A  
HETATM   11  C   UNL     1     -10.684   9.788  67.617  1.00  0.00    -0.334 A  
HETATM   12  C   UNL     1     -10.356   8.472  67.267  1.00  0.00    -0.372 A  
HETATM   13  C   UNL     1      -9.505   8.191  66.191  1.00  0.00    -0.147 A  
HETATM   14  C   UNL     1      -8.987   9.268  65.463  1.00  0.00    -0.251 A  
HETATM   15  C   UNL     1      -9.319  10.590  65.802  1.00  0.00    -0.229 A  
BRANCH  13  16
HETATM   16  N   UNL     1      -9.125   6.867  65.877  1.00  0.00    -0.345 NA 
HETATM   17  H   UNL     1      -8.191   6.642  65.533  1.00  0.00     0.000 HD 
BRANCH  16  18
HETATM   18  N   UNL     1     -10.080   5.902  66.059  1.00  0.00    -0.401 NA 
HETATM   19  H   UNL     1     -10.947   6.127  66.546  1.00  0.00     0.000 HD 
BRANCH  18  20
HETATM   20  C   UNL     1      -9.879   4.695  65.609  1.00  0.00    -0.204 C  
HETATM   21  C   UNL     1     -10.807   4.269  64.597  1.00  0.00    -0.064 C  
HETATM   22  C   UNL     1      -8.817   3.870  66.100  1.00  0.00    -0.124 C  
HETATM   23  N   UNL     1      -7.932   3.226  66.493  1.00  0.00    -0.080 NA 
HETATM   24  N   UNL     1     -11.536   3.915  63.765  1.00  0.00     0.089 NA 
ENDBRANCH  18  20
ENDBRANCH  16  18
ENDBRANCH  13  16
ENDBRANCH   9  10
TORSDOF 4
ENDMDL
MODEL      167
REMARK 921   NORMALIZED FREE ENERGY PREDICTED BY IDOCK:   -3.93 KCAL/MOL
REMARK 922        TOTAL FREE ENERGY PREDICTED BY IDOCK:   -5.56 KCAL/MOL
REMARK 923 INTER-LIGAND FREE ENERGY PREDICTED BY IDOCK:   -4.99 KCAL/MOL
REMARK 924 INTRA-LIGAND FREE ENERGY PREDICTED BY IDOCK:   -0.57 KCAL/MOL
REMARK 927      BINDING AFFINITY PREDICTED BY RF-SCORE:    0.00 PKD
ROOT
HETATM    1  C   UNL     1     -12.280  13.653  67.677  1.00  0.00    -0.224 C  
HETATM    2  C   UNL     1     -11.254  13.384  66.573  1.00  0.00    -0.327 C  
HETATM    3  C   UNL     1     -11.565  14.231  65.343  1.00  0.00    -0.346 C  
HETATM    4  C   UNL     1     -12.111  13.494  64.158  1.00  0.00    -0.435 C  
HETATM    5  N   UNL     1     -12.107  12.134  64.204  1.00  0.00    -0.408 N  
HETATM    6  O   UNL     1     -12.516  14.094  63.162  1.00  0.00    -0.678 OA 
HETATM    7  H   UNL     1     -12.524  11.654  63.407  1.00  0.00     0.000 HD 
HETATM    8  N   UNL     1     -11.612  11.348  65.186  1.00  0.00     0.045 NA 
HETATM    9  C   UNL     1     -11.176  11.886  66.284  1.00  0.00    -0.337 C  
ENDROOT
BRANCH   9  10
HETATM   10  C   UNL     1     -10.578  10.966  67.313  1.00  0.00    -0.296 A  
HETATM   11  C   UNL     1     -11.291  10.568  68.446  1.00  0.00    -0.328 A  
HETATM   12  C   UNL     1     -10.675   9.780  69.426  1.00  0.00    -0.250 A  
HETATM   13  C   UNL     1      -9.341   9.371  69.306  1.00  0.00    -0.167 A  
HETATM   14  C   UNL     1      -8.631   9.770  68.168  1.00  0.00    -0.118 A  
HETATM   15  C   UNL     1      -9.245  10.551  67.176  1.00  0.00    -0.158 A  
BRANCH  13  16
HETATM   16  N   UNL     1      -8.702   8.629  70.324  1.00  0.00    -0.139 NA 
HETATM   17  H   UNL     1      -8.794   8.878  71.310  1.00  0.00     0.000 HD 
BRANCH  16  18
HETATM   18  N   UNL     1      -7.953   7.558  69.916  1.00  0.00    -0.120 NA 
HETATM   19  H   UNL     1      -6.970   7.684  69.675  1.00  0.00     0.000 HD 
BRANCH  18  20
HETATM   20  C   UNL     1      -8.497   6.376  69.837  1.00  0.00    -0.131 C  
HETATM   21  C   UNL     1      -9.553   6.136  70.783  1.00  0.00    -0.169 C  
HETATM   22  C   UNL     1      -8.061   5.403  68.881  1.00  0.00    -0.094 C  
HETATM   23  N   UNL     1      -7.710   4.637  68.080  1.00  0.00    -0.080 NA 
HETATM   24  N   UNL     1     -10.421   5.931  71.527  1.00  0.00    -0.225 NA 
ENDBRANCH  18  20
ENDBRANCH  16  18
ENDBRANCH  13  16
ENDBRANCH   9  10
TORSDOF 4
ENDMDL
MODEL      168
REMARK 921   NORMALIZED FREE ENERGY PREDICTED BY IDOCK:   -3.91 KCAL/MOL
REMARK 922        TOTAL FREE ENERGY PREDICTED BY IDOCK:   -5.53 KCAL/MOL
REMARK 923 INTER-LIGAND FREE ENERGY PREDICTED BY IDOCK:   -4.85 KCAL/MOL
REMARK 924 INTRA-LIGAND FREE ENERGY PREDICTED BY IDOCK:   -0.68 KCAL/MOL
REMARK 927      BINDING AFFINITY PREDICTED BY RF-SCORE:    0.00 PKD
ROOT
HETATM    1  C   UNL     1     -11.603  12.708  68.848  1.00  0.00    -0.363 C  
HETATM    2  C   UNL     1     -10.380  13.567  68.516  1.00  0.00    -0.242 C  
HETATM    3  C   UNL     1     -10.576  14.989  69.032  1.00  0.00    -0.245 C  
HETATM    4  C   UNL     1     -10.821  16.038  67.991  1.00  0.00    -0.335 C  
HETATM    5  N   UNL     1     -10.664  15.681  66.687  1.00  0.00    -0.308 N  
HETATM    6  O   UNL     1     -11.120  17.191  68.302  1.00  0.00    -0.310 OA 
HETATM    7  H   UNL     1     -10.880  16.398  65.993  1.00  0.00     0.000 HD 
HETATM    8  N   UNL     1     -10.253  14.487  66.206  1.00  0.00    -0.286 NA 
HETATM    9  C   UNL     1     -10.077  13.491  67.021  1.00  0.00    -0.244 C  
ENDROOT
BRANCH   9  10
HETATM   10  C   UNL     1      -9.557  12.206  66.437  1.00  0.00    -0.243 A  
HETATM   11  C   UNL     1     -10.326  11.431  65.566  1.00  0.00    -0.317 A  
HETATM   12  C   UNL     1      -9.846  10.197  65.109  1.00  0.00    -0.394 A  
HETATM   13  C   UNL     1      -8.595   9.706  65.504  1.00  0.00    -0.147 A  
HETATM   14  C   UNL     1      -7.826  10.488  66.373  1.00  0.00    -0.138 A  
HETATM   15  C   UNL     1      -8.297  11.730  66.829  1.00  0.00    -0.165 A  
BRANCH  13  16
HETATM   16  N   UNL     1      -8.138   8.435  65.091  1.00  0.00    -0.139 NA 
HETATM   17  H   UNL     1      -7.250   8.315  64.602  1.00  0.00     0.000 HD 
BRANCH  16  18
HETATM   18  N   UNL     1      -8.950   7.372  65.384  1.00  0.00    -0.376 NA 
HETATM   19  H   UNL     1      -9.939   7.524  65.581  1.00  0.00     0.000 HD 
BRANCH  18  20
HETATM   20  C   UNL     1      -8.458   6.165  65.412  1.00  0.00    -0.138 C  
HETATM   21  C   UNL     1      -9.403   5.139  65.762  1.00  0.00    -0.154 C  
HETATM   22  C   UNL     1      -7.082   5.899  65.119  1.00  0.00    -0.064 C  
HETATM   23  N   UNL     1      -5.968   5.703  64.852  1.00  0.00    -0.021 NA 
HETATM   24  N   UNL     1     -10.157   4.296  66.024  1.00  0.00    -0.221 NA 
ENDBRANCH  18  20
ENDBRANCH  16  18
ENDBRANCH  13  16
ENDBRANCH   9  10
TORSDOF 4
ENDMDL
MODEL      169
REMARK 921   NORMALIZED FREE ENERGY PREDICTED BY IDOCK:   -3.87 KCAL/MOL
REMARK 922        TOTAL FREE ENERGY PREDICTED BY IDOCK:   -5.49 KCAL/MOL
REMARK 923 INTER-LIGAND FREE ENERGY PREDICTED BY IDOCK:   -4.82 KCAL/MOL
REMARK 924 INTRA-LIGAND FREE ENERGY PREDICTED BY IDOCK:   -0.67 KCAL/MOL
REMARK 927      BINDING AFFINITY PREDICTED BY RF-SCORE:    0.00 PKD
ROOT
HETATM    1  C   UNL     1     -10.432   5.202  66.244  1.00  0.00    -0.341 C  
HETATM    2  C   UNL     1      -9.031   5.768  66.488  1.00  0.00    -0.128 C  
HETATM    3  C   UNL     1      -8.054   4.642  66.811  1.00  0.00    -0.103 C  
HETATM    4  C   UNL     1      -7.593   4.558  68.234  1.00  0.00    -0.072 C  
HETATM    5  N   UNL     1      -7.924   5.584  69.065  1.00  0.00    -0.094 N  
HETATM    6  O   UNL     1      -6.909   3.615  68.631  1.00  0.00    -0.045 OA 
HETATM    7  H   UNL     1      -7.640   5.485  70.040  1.00  0.00     0.000 HD 
HETATM    8  N   UNL     1      -8.586   6.718  68.746  1.00  0.00    -0.123 NA 
HETATM    9  C   UNL     1      -9.085   6.859  67.556  1.00  0.00    -0.118 C  
ENDROOT
BRANCH   9  10
HETATM   10  C   UNL     1      -9.754   8.169  67.239  1.00  0.00    -0.233 A  
HETATM   11  C   UNL     1      -9.514   8.846  66.042  1.00  0.00    -0.320 A  
HETATM   12  C   UNL     1     -10.086  10.105  65.816  1.00  0.00    -0.324 A  
HETATM   13  C   UNL     1     -10.908  10.718  66.771  1.00  0.00    -0.194 A  
HETATM   14  C   UNL     1     -11.149  10.034  67.967  1.00  0.00    -0.263 A  
HETATM   15  C   UNL     1     -10.586   8.768  68.197  1.00  0.00    -0.203 A  
BRANCH  13  16
HETATM   16  N   UNL     1     -11.435  12.012  66.568  1.00  0.00    -0.418 NA 
HETATM   17  H   UNL     1     -12.396  12.160  66.258  1.00  0.00     0.000 HD 
BRANCH  16  18
HETATM   18  N   UNL     1     -10.586  13.059  66.812  1.00  0.00    -0.261 NA 
HETATM   19  H   UNL     1      -9.637  13.044  66.441  1.00  0.00     0.000 HD 
BRANCH  18  20
HETATM   20  C   UNL     1     -10.993  14.076  67.519  1.00  0.00    -0.277 C  
HETATM   21  C   UNL     1     -10.689  15.362  66.952  1.00  0.00    -0.314 C  
HETATM   22  C   UNL     1     -11.682  13.908  68.762  1.00  0.00    -0.357 C  
HETATM   23  N   UNL     1     -12.263  13.749  69.757  1.00  0.00    -0.327 NA 
HETATM   24  N   UNL     1     -10.468  16.408  66.499  1.00  0.00    -0.301 NA 
ENDBRANCH  18  20
ENDBRANCH  16  18
ENDBRANCH  13  16
ENDBRANCH   9  10
TORSDOF 4
ENDMDL
MODEL      170
REMARK 921   NORMALIZED FREE ENERGY PREDICTED BY IDOCK:   -3.87 KCAL/MOL
REMARK 922        TOTAL FREE ENERGY PREDICTED BY IDOCK:   -5.48 KCAL/MOL
REMARK 923 INTER-LIGAND FREE ENERGY PREDICTED BY IDOCK:   -4.91 KCAL/MOL
REMARK 924 INTRA-LIGAND FREE ENERGY PREDICTED BY IDOCK:   -0.57 KCAL/MOL
REMARK 927      BINDING AFFINITY PREDICTED BY RF-SCORE:    0.00 PKD
ROOT
HETATM    1  C   UNL     1     -12.253  12.200  70.553  1.00  0.00    -0.392 C  
HETATM    2  C   UNL     1     -12.456  10.718  70.226  1.00  0.00    -0.395 C  
HETATM    3  C   UNL     1     -13.425  10.084  71.220  1.00  0.00    -0.331 C  
HETATM    4  C   UNL     1     -12.821   9.142  72.216  1.00  0.00    -0.401 C  
HETATM    5  N   UNL     1     -11.519   8.787  72.041  1.00  0.00    -0.361 N  
HETATM    6  O   UNL     1     -13.487   8.677  73.142  1.00  0.00    -0.152 OA 
HETATM    7  H   UNL     1     -11.116   8.182  72.756  1.00  0.00     0.000 HD 
HETATM    8  N   UNL     1     -10.701   9.145  71.027  1.00  0.00    -0.266 NA 
HETATM    9  C   UNL     1     -11.106  10.009  70.147  1.00  0.00    -0.310 C  
ENDROOT
BRANCH   9  10
HETATM   10  C   UNL     1     -10.175  10.319  69.005  1.00  0.00    -0.225 A  
HETATM   11  C   UNL     1      -8.791  10.187  69.130  1.00  0.00    -0.179 A  
HETATM   12  C   UNL     1      -7.949  10.566  68.077  1.00  0.00    -0.106 A  
HETATM   13  C   UNL     1      -8.460  11.083  66.880  1.00  0.00    -0.139 A  
HETATM   14  C   UNL     1      -9.848  11.210  66.758  1.00  0.00    -0.230 A  
HETATM   15  C   UNL     1     -10.699  10.823  67.806  1.00  0.00    -0.296 A  
BRANCH  13  16
HETATM   16  N   UNL     1      -7.608  11.522  65.842  1.00  0.00    -0.316 NA 
HETATM   17  H   UNL     1      -7.844  12.321  65.253  1.00  0.00     0.000 HD 
BRANCH  16  18
HETATM   18  N   UNL     1      -6.447  10.816  65.669  1.00  0.00    -0.302 NA 
HETATM   19  H   UNL     1      -5.625  11.041  66.230  1.00  0.00     0.000 HD 
BRANCH  18  20
HETATM   20  C   UNL     1      -6.393   9.857  64.788  1.00  0.00    -0.115 C  
HETATM   21  C   UNL     1      -6.135  10.292  63.442  1.00  0.00    -0.140 C  
HETATM   22  C   UNL     1      -6.582   8.485  65.148  1.00  0.00    -0.064 C  
HETATM   23  N   UNL     1      -6.712   7.374  65.466  1.00  0.00    -0.048 NA 
HETATM   24  N   UNL     1      -5.909  10.624  62.352  1.00  0.00    -0.141 NA 
ENDBRANCH  18  20
ENDBRANCH  16  18
ENDBRANCH  13  16
ENDBRANCH   9  10
TORSDOF 4
ENDMDL
MODEL      171
REMARK 921   NORMALIZED FREE ENERGY PREDICTED BY IDOCK:   -3.81 KCAL/MOL
REMARK 922        TOTAL FREE ENERGY PREDICTED BY IDOCK:   -5.41 KCAL/MOL
REMARK 923 INTER-LIGAND FREE ENERGY PREDICTED BY IDOCK:   -5.05 KCAL/MOL
REMARK 924 INTRA-LIGAND FREE ENERGY PREDICTED BY IDOCK:   -0.36 KCAL/MOL
REMARK 927      BINDING AFFINITY PREDICTED BY RF-SCORE:    0.00 PKD
ROOT
HETATM    1  C   UNL     1      -6.480   8.491  67.529  1.00  0.00    -0.058 C  
HETATM    2  C   UNL     1      -7.911   8.213  67.995  1.00  0.00    -0.127 C  
HETATM    3  C   UNL     1      -8.219   6.722  67.900  1.00  0.00    -0.117 C  
HETATM    4  C   UNL     1      -9.158   6.314  66.807  1.00  0.00    -0.135 C  
HETATM    5  N   UNL     1      -9.796   7.301  66.121  1.00  0.00    -0.432 N  
HETATM    6  O   UNL     1      -9.374   5.127  66.558  1.00  0.00    -0.130 OA 
HETATM    7  H   UNL     1     -10.395   7.002  65.351  1.00  0.00     0.000 HD 
HETATM    8  N   UNL     1      -9.727   8.632  66.345  1.00  0.00    -0.249 NA 
HETATM    9  C   UNL     1      -8.893   9.094  67.226  1.00  0.00    -0.124 C  
ENDROOT
BRANCH   9  10
HETATM   10  C   UNL     1      -8.907  10.578  67.477  1.00  0.00    -0.131 A  
HETATM   11  C   UNL     1      -9.998  11.212  68.075  1.00  0.00    -0.190 A  
HETATM   12  C   UNL     1     -10.015  12.605  68.216  1.00  0.00    -0.229 A  
HETATM   13  C   UNL     1      -8.952  13.399  67.767  1.00  0.00    -0.205 A  
HETATM   14  C   UNL     1      -7.859  12.759  67.172  1.00  0.00    -0.097 A  
HETATM   15  C   UNL     1      -7.831  11.362  67.036  1.00  0.00    -0.158 A  
BRANCH  13  16
HETATM   16  N   UNL     1      -8.996  14.808  67.854  1.00  0.00    -0.168 NA 
HETATM   17  H   UNL     1      -8.974  15.293  68.751  1.00  0.00     0.000 HD 
BRANCH  16  18
HETATM   18  N   UNL     1      -9.070  15.488  66.667  1.00  0.00    -0.255 NA 
HETATM   19  H   UNL     1      -8.381  15.315  65.936  1.00  0.00     0.000 HD 
BRANCH  18  20
HETATM   20  C   UNL     1     -10.022  16.357  66.473  1.00  0.00    -0.282 C  
HETATM   21  C   UNL     1     -10.306  17.200  67.603  1.00  0.00    -0.344 C  
HETATM   22  C   UNL     1     -10.723  16.449  65.228  1.00  0.00    -0.295 C  
HETATM   23  N   UNL     1     -11.262  16.524  64.201  1.00  0.00    -0.978 NA 
HETATM   24  N   UNL     1     -10.536  17.902  68.500  1.00  0.00    -0.344 NA 
ENDBRANCH  18  20
ENDBRANCH  16  18
ENDBRANCH  13  16
ENDBRANCH   9  10
TORSDOF 4
ENDMDL
MODEL      172
REMARK 921   NORMALIZED FREE ENERGY PREDICTED BY IDOCK:   -3.80 KCAL/MOL
REMARK 922        TOTAL FREE ENERGY PREDICTED BY IDOCK:   -5.40 KCAL/MOL
REMARK 923 INTER-LIGAND FREE ENERGY PREDICTED BY IDOCK:   -4.68 KCAL/MOL
REMARK 924 INTRA-LIGAND FREE ENERGY PREDICTED BY IDOCK:   -0.72 KCAL/MOL
REMARK 927      BINDING AFFINITY PREDICTED BY RF-SCORE:    0.00 PKD
ROOT
HETATM    1  C   UNL     1      -8.131   9.049  66.328  1.00  0.00    -0.110 C  
HETATM    2  C   UNL     1      -9.598   9.403  66.068  1.00  0.00    -0.328 C  
HETATM    3  C   UNL     1      -9.745  10.097  64.718  1.00  0.00    -0.389 C  
HETATM    4  C   UNL     1     -10.044  11.564  64.762  1.00  0.00    -0.269 C  
HETATM    5  N   UNL     1     -10.344  12.111  65.972  1.00  0.00    -0.231 N  
HETATM    6  O   UNL     1     -10.054  12.247  63.737  1.00  0.00    -0.385 OA 
HETATM    7  H   UNL     1     -10.500  13.119  65.986  1.00  0.00     0.000 HD 
HETATM    8  N   UNL     1     -10.460  11.470  67.156  1.00  0.00    -0.215 NA 
HETATM    9  C   UNL     1     -10.158  10.210  67.238  1.00  0.00    -0.206 C  
ENDROOT
BRANCH   9  10
HETATM   10  C   UNL     1     -10.368   9.535  68.567  1.00  0.00    -0.234 A  
HETATM   11  C   UNL     1     -10.280  10.238  69.770  1.00  0.00    -0.262 A  
HETATM   12  C   UNL     1     -10.396   9.563  70.991  1.00  0.00    -0.353 A  
HETATM   13  C   UNL     1     -10.601   8.179  71.047  1.00  0.00    -0.210 A  
HETATM   14  C   UNL     1     -10.693   7.479  69.839  1.00  0.00    -0.254 A  
HETATM   15  C   UNL     1     -10.587   8.150  68.609  1.00  0.00    -0.144 A  
BRANCH  13  16
HETATM   16  N   UNL     1     -10.657   7.490  72.279  1.00  0.00    -0.223 NA 
HETATM   17  H   UNL     1     -11.143   7.875  73.089  1.00  0.00     0.000 HD 
BRANCH  16  18
HETATM   18  N   UNL     1     -10.024   6.277  72.326  1.00  0.00    -0.166 NA 
HETATM   19  H   UNL     1     -10.235   5.563  71.628  1.00  0.00     0.000 HD 
BRANCH  18  20
HETATM   20  C   UNL     1      -9.153   6.033  73.263  1.00  0.00    -0.129 C  
HETATM   21  C   UNL     1      -8.667   7.199  73.950  1.00  0.00    -0.173 C  
HETATM   22  C   UNL     1      -8.720   4.703  73.570  1.00  0.00    -0.103 C  
HETATM   23  N   UNL     1      -8.401   3.613  73.820  1.00  0.00    -0.083 NA 
HETATM   24  N   UNL     1      -8.278   8.129  74.528  1.00  0.00    -0.215 NA 
ENDBRANCH  18  20
ENDBRANCH  16  18
ENDBRANCH  13  16
ENDBRANCH   9  10
TORSDOF 4
ENDMDL
MODEL      173
REMARK 921   NORMALIZED FREE ENERGY PREDICTED BY IDOCK:   -3.80 KCAL/MOL
REMARK 922        TOTAL FREE ENERGY PREDICTED BY IDOCK:   -5.40 KCAL/MOL
REMARK 923 INTER-LIGAND FREE ENERGY PREDICTED BY IDOCK:   -5.23 KCAL/MOL
REMARK 924 INTRA-LIGAND FREE ENERGY PREDICTED BY IDOCK:   -0.17 KCAL/MOL
REMARK 927      BINDING AFFINITY PREDICTED BY RF-SCORE:    0.00 PKD
ROOT
HETATM    1  C   UNL     1     -10.236   5.590  69.634  1.00  0.00    -0.336 C  
HETATM    2  C   UNL     1     -10.016   5.931  68.158  1.00  0.00    -0.173 C  
HETATM    3  C   UNL     1      -9.327   4.772  67.443  1.00  0.00    -0.153 C  
HETATM    4  C   UNL     1      -7.894   4.992  67.066  1.00  0.00    -0.096 C  
HETATM    5  N   UNL     1      -7.387   6.246  67.215  1.00  0.00    -0.082 N  
HETATM    6  O   UNL     1      -7.207   4.080  66.604  1.00  0.00    -0.066 OA 
HETATM    7  H   UNL     1      -6.398   6.362  66.995  1.00  0.00     0.000 HD 
HETATM    8  N   UNL     1      -8.046   7.354  67.619  1.00  0.00    -0.113 NA 
HETATM    9  C   UNL     1      -9.274   7.259  68.031  1.00  0.00    -0.131 C  
ENDROOT
BRANCH   9  10
HETATM   10  C   UNL     1      -9.976   8.536  68.408  1.00  0.00    -0.208 A  
HETATM   11  C   UNL     1     -10.568   9.359  67.448  1.00  0.00    -0.326 A  
HETATM   12  C   UNL     1     -11.138  10.583  67.822  1.00  0.00    -0.382 A  
HETATM   13  C   UNL     1     -11.132  11.016  69.154  1.00  0.00    -0.243 A  
HETATM   14  C   UNL     1     -10.540  10.186  70.113  1.00  0.00    -0.337 A  
HETATM   15  C   UNL     1      -9.975   8.954  69.747  1.00  0.00    -0.196 A  
BRANCH  13  16
HETATM   16  N   UNL     1     -11.652  12.277  69.522  1.00  0.00    -0.359 NA 
HETATM   17  H   UNL     1     -11.985  12.945  68.827  1.00  0.00     0.000 HD 
BRANCH  16  18
HETATM   18  N   UNL     1     -11.684  12.554  70.863  1.00  0.00    -0.133 NA 
HETATM   19  H   UNL     1     -10.848  12.898  71.333  1.00  0.00     0.000 HD 
BRANCH  18  20
HETATM   20  C   UNL     1     -12.785  12.376  71.538  1.00  0.00    -0.228 C  
HETATM   21  C   UNL     1     -13.485  13.586  71.875  1.00  0.00    -0.442 C  
HETATM   22  C   UNL     1     -13.244  11.072  71.911  1.00  0.00    -0.398 C  
HETATM   23  N   UNL     1     -13.612  10.003  72.182  1.00  0.00    -0.341 NA 
HETATM   24  N   UNL     1     -14.074  14.551  72.139  1.00  0.00    -0.488 NA 
ENDBRANCH  18  20
ENDBRANCH  16  18
ENDBRANCH  13  16
ENDBRANCH   9  10
TORSDOF 4
ENDMDL
MODEL      174
REMARK 921   NORMALIZED FREE ENERGY PREDICTED BY IDOCK:   -3.76 KCAL/MOL
REMARK 922        TOTAL FREE ENERGY PREDICTED BY IDOCK:   -5.35 KCAL/MOL
REMARK 923 INTER-LIGAND FREE ENERGY PREDICTED BY IDOCK:   -4.86 KCAL/MOL
REMARK 924 INTRA-LIGAND FREE ENERGY PREDICTED BY IDOCK:   -0.49 KCAL/MOL
REMARK 927      BINDING AFFINITY PREDICTED BY RF-SCORE:    0.00 PKD
ROOT
HETATM    1  C   UNL     1      -6.941   6.032  68.988  1.00  0.00    -0.068 C  
HETATM    2  C   UNL     1      -7.816   6.279  70.220  1.00  0.00    -0.103 C  
HETATM    3  C   UNL     1      -7.605   5.172  71.249  1.00  0.00    -0.095 C  
HETATM    4  C   UNL     1      -8.734   4.201  71.410  1.00  0.00    -0.106 C  
HETATM    5  N   UNL     1      -9.906   4.486  70.780  1.00  0.00    -0.203 N  
HETATM    6  O   UNL     1      -8.621   3.198  72.115  1.00  0.00    -0.073 OA 
HETATM    7  H   UNL     1     -10.647   3.789  70.865  1.00  0.00     0.000 HD 
HETATM    8  N   UNL     1     -10.201   5.587  70.054  1.00  0.00    -0.242 NA 
HETATM    9  C   UNL     1      -9.273   6.459  69.801  1.00  0.00    -0.144 C  
ENDROOT
BRANCH   9  10
HETATM   10  C   UNL     1      -9.676   7.696  69.044  1.00  0.00    -0.160 A  
HETATM   11  C   UNL     1     -10.079   8.860  69.701  1.00  0.00    -0.202 A  
HETATM   12  C   UNL     1     -10.530   9.964  68.967  1.00  0.00    -0.227 A  
HETATM   13  C   UNL     1     -10.591   9.938  67.568  1.00  0.00    -0.275 A  
HETATM   14  C   UNL     1     -10.183   8.771  66.914  1.00  0.00    -0.357 A  
HETATM   15  C   UNL     1      -9.721   7.663  67.642  1.00  0.00    -0.189 A  
BRANCH  13  16
HETATM   16  N   UNL     1     -11.103  11.029  66.831  1.00  0.00    -0.263 NA 
HETATM   17  H   UNL     1     -10.914  11.142  65.835  1.00  0.00     0.000 HD 
BRANCH  16  18
HETATM   18  N   UNL     1     -11.867  11.928  67.527  1.00  0.00    -0.597 NA 
HETATM   19  H   UNL     1     -12.341  11.640  68.383  1.00  0.00     0.000 HD 
BRANCH  18  20
HETATM   20  C   UNL     1     -11.988  13.152  67.096  1.00  0.00    -0.341 C  
HETATM   21  C   UNL     1     -11.283  14.135  67.873  1.00  0.00    -0.279 C  
HETATM   22  C   UNL     1     -12.769  13.475  65.940  1.00  0.00    -0.321 C  
HETATM   23  N   UNL     1     -13.387  13.712  64.984  1.00  0.00    -0.376 NA 
HETATM   24  N   UNL     1     -10.705  14.940  68.478  1.00  0.00    -0.239 NA 
ENDBRANCH  18  20
ENDBRANCH  16  18
ENDBRANCH  13  16
ENDBRANCH   9  10
TORSDOF 4
ENDMDL
MODEL      175
REMARK 921   NORMALIZED FREE ENERGY PREDICTED BY IDOCK:   -3.73 KCAL/MOL
REMARK 922        TOTAL FREE ENERGY PREDICTED BY IDOCK:   -5.31 KCAL/MOL
REMARK 923 INTER-LIGAND FREE ENERGY PREDICTED BY IDOCK:   -4.89 KCAL/MOL
REMARK 924 INTRA-LIGAND FREE ENERGY PREDICTED BY IDOCK:   -0.42 KCAL/MOL
REMARK 927      BINDING AFFINITY PREDICTED BY RF-SCORE:    0.00 PKD
ROOT
HETATM    1  C   UNL     1     -11.997  12.007  68.245  1.00  0.00    -0.244 C  
HETATM    2  C   UNL     1     -10.648  11.812  67.547  1.00  0.00    -0.247 C  
HETATM    3  C   UNL     1     -10.326  13.019  66.671  1.00  0.00    -0.263 C  
HETATM    4  C   UNL     1     -10.420  12.801  65.192  1.00  0.00    -0.300 C  
HETATM    5  N   UNL     1     -10.595  11.525  64.752  1.00  0.00    -0.290 N  
HETATM    6  O   UNL     1     -10.308  13.737  64.399  1.00  0.00    -0.415 OA 
HETATM    7  H   UNL     1     -10.703  11.406  63.745  1.00  0.00     0.000 HD 
HETATM    8  N   UNL     1     -10.642  10.399  65.498  1.00  0.00    -0.103 NA 
HETATM    9  C   UNL     1     -10.635  10.484  66.793  1.00  0.00    -0.222 C  
ENDROOT
BRANCH   9  10
HETATM   10  C   UNL     1     -10.624   9.195  67.569  1.00  0.00    -0.317 A  
HETATM   11  C   UNL     1     -10.730   7.955  66.935  1.00  0.00    -0.219 A  
HETATM   12  C   UNL     1     -10.803   6.780  67.693  1.00  0.00    -0.361 A  
HETATM   13  C   UNL     1     -10.772   6.807  69.093  1.00  0.00    -0.253 A  
HETATM   14  C   UNL     1     -10.661   8.051  69.724  1.00  0.00    -0.231 A  
HETATM   15  C   UNL     1     -10.578   9.234  68.971  1.00  0.00    -0.225 A  
BRANCH  13  16
HETATM   16  N   UNL     1     -10.907   5.627  69.857  1.00  0.00    -0.334 NA 
HETATM   17  H   UNL     1     -11.770   5.082  69.858  1.00  0.00     0.000 HD 
BRANCH  16  18
HETATM   18  N   UNL     1      -9.816   5.253  70.597  1.00  0.00    -0.184 NA 
HETATM   19  H   UNL     1      -9.361   5.928  71.211  1.00  0.00     0.000 HD 
BRANCH  18  20
HETATM   20  C   UNL     1      -9.360   4.035  70.515  1.00  0.00    -0.150 C  
HETATM   21  C   UNL     1      -9.396   3.468  69.194  1.00  0.00    -0.172 C  
HETATM   22  C   UNL     1      -8.871   3.330  71.660  1.00  0.00    -0.087 C  
HETATM   23  N   UNL     1      -8.453   2.785  72.598  1.00  0.00    -0.070 NA 
HETATM   24  N   UNL     1      -9.400   3.001  68.130  1.00  0.00    -0.203 NA 
ENDBRANCH  18  20
ENDBRANCH  16  18
ENDBRANCH  13  16
ENDBRANCH   9  10
TORSDOF 4
ENDMDL
MODEL      176
REMARK 921   NORMALIZED FREE ENERGY PREDICTED BY IDOCK:   -3.73 KCAL/MOL
REMARK 922        TOTAL FREE ENERGY PREDICTED BY IDOCK:   -5.31 KCAL/MOL
REMARK 923 INTER-LIGAND FREE ENERGY PREDICTED BY IDOCK:   -4.50 KCAL/MOL
REMARK 924 INTRA-LIGAND FREE ENERGY PREDICTED BY IDOCK:   -0.81 KCAL/MOL
REMARK 927      BINDING AFFINITY PREDICTED BY RF-SCORE:    0.00 PKD
ROOT
HETATM    1  C   UNL     1     -12.502  14.001  66.841  1.00  0.00    -0.187 C  
HETATM    2  C   UNL     1     -11.266  14.337  67.680  1.00  0.00    -0.321 C  
HETATM    3  C   UNL     1     -10.863  15.793  67.469  1.00  0.00    -0.315 C  
HETATM    4  C   UNL     1      -9.616  16.020  66.670  1.00  0.00    -0.239 C  
HETATM    5  N   UNL     1      -8.855  14.934  66.366  1.00  0.00    -0.460 N  
HETATM    6  O   UNL     1      -9.271  17.153  66.330  1.00  0.00    -0.252 OA 
HETATM    7  H   UNL     1      -8.035  15.105  65.783  1.00  0.00     0.000 HD 
HETATM    8  N   UNL     1      -9.061  13.654  66.749  1.00  0.00    -0.241 NA 
HETATM    9  C   UNL     1     -10.147  13.341  67.388  1.00  0.00    -0.233 C  
ENDROOT
BRANCH   9  10
HETATM   10  C   UNL     1     -10.290  11.914  67.844  1.00  0.00    -0.212 A  
HETATM   11  C   UNL     1     -10.361  11.579  69.198  1.00  0.00    -0.086 A  
HETATM   12  C   UNL     1     -10.407  10.236  69.591  1.00  0.00    -0.281 A  
HETATM   13  C   UNL     1     -10.385   9.196  68.652  1.00  0.00    -0.209 A  
HETATM   14  C   UNL     1     -10.319   9.537  67.296  1.00  0.00    -0.319 A  
HETATM   15  C   UNL     1     -10.281  10.882  66.894  1.00  0.00    -0.272 A  
BRANCH  13  16
HETATM   16  N   UNL     1     -10.371   7.842  69.051  1.00  0.00    -0.209 NA 
HETATM   17  H   UNL     1     -11.045   7.471  69.721  1.00  0.00     0.000 HD 
BRANCH  16  18
HETATM   18  N   UNL     1      -9.402   7.053  68.490  1.00  0.00    -0.136 NA 
HETATM   19  H   UNL     1      -9.414   6.866  67.487  1.00  0.00     0.000 HD 
BRANCH  18  20
HETATM   20  C   UNL     1      -8.466   6.539  69.237  1.00  0.00    -0.127 C  
HETATM   21  C   UNL     1      -8.799   6.439  70.632  1.00  0.00    -0.144 C  
HETATM   22  C   UNL     1      -7.209   6.119  68.696  1.00  0.00    -0.084 C  
HETATM   23  N   UNL     1      -6.205   5.759  68.232  1.00  0.00    -0.031 NA 
HETATM   24  N   UNL     1      -9.058   6.333  71.759  1.00  0.00    -0.144 NA 
ENDBRANCH  18  20
ENDBRANCH  16  18
ENDBRANCH  13  16
ENDBRANCH   9  10
TORSDOF 4
ENDMDL
MODEL      177
REMARK 921   NORMALIZED FREE ENERGY PREDICTED BY IDOCK:   -3.65 KCAL/MOL
REMARK 922        TOTAL FREE ENERGY PREDICTED BY IDOCK:   -5.21 KCAL/MOL
REMARK 923 INTER-LIGAND FREE ENERGY PREDICTED BY IDOCK:   -4.75 KCAL/MOL
REMARK 924 INTRA-LIGAND FREE ENERGY PREDICTED BY IDOCK:   -0.47 KCAL/MOL
REMARK 927      BINDING AFFINITY PREDICTED BY RF-SCORE:    0.00 PKD
ROOT
HETATM    1  C   UNL     1     -12.361   8.194  72.167  1.00  0.00    -0.383 C  
HETATM    2  C   UNL     1     -12.079   6.783  71.643  1.00  0.00    -0.404 C  
HETATM    3  C   UNL     1     -12.264   5.758  72.757  1.00  0.00     0.115 C  
HETATM    4  C   UNL     1     -11.011   5.137  73.294  1.00  0.00    -0.314 C  
HETATM    5  N   UNL     1      -9.849   5.388  72.631  1.00  0.00    -0.158 N  
HETATM    6  O   UNL     1     -11.034   4.397  74.278  1.00  0.00    -0.254 OA 
HETATM    7  H   UNL     1      -9.002   4.993  73.040  1.00  0.00     0.000 HD 
HETATM    8  N   UNL     1      -9.690   6.100  71.494  1.00  0.00    -0.163 NA 
HETATM    9  C   UNL     1     -10.703   6.733  70.984  1.00  0.00    -0.231 C  
ENDROOT
BRANCH   9  10
HETATM   10  C   UNL     1     -10.480   7.455  69.682  1.00  0.00    -0.237 A  
HETATM   11  C   UNL     1     -10.224   8.827  69.638  1.00  0.00    -0.210 A  
HETATM   12  C   UNL     1     -10.108   9.483  68.407  1.00  0.00    -0.199 A  
HETATM   13  C   UNL     1     -10.242   8.795  67.194  1.00  0.00    -0.276 A  
HETATM   14  C   UNL     1     -10.495   7.420  67.243  1.00  0.00    -0.385 A  
HETATM   15  C   UNL     1     -10.604   6.753  68.474  1.00  0.00    -0.265 A  
BRANCH  13  16
HETATM   16  N   UNL     1     -10.185   9.468  65.953  1.00  0.00    -0.245 NA 
HETATM   17  H   UNL     1     -10.720  10.319  65.778  1.00  0.00     0.000 HD 
BRANCH  16  18
HETATM   18  N   UNL     1      -9.372   8.916  64.999  1.00  0.00    -0.430 NA 
HETATM   19  H   UNL     1      -9.624   8.028  64.566  1.00  0.00     0.000 HD 
BRANCH  18  20
HETATM   20  C   UNL     1      -8.276   9.526  64.646  1.00  0.00    -0.146 C  
HETATM   21  C   UNL     1      -8.393  10.336  63.464  1.00  0.00    -0.169 C  
HETATM   22  C   UNL     1      -7.058   9.385  65.385  1.00  0.00    -0.091 C  
HETATM   23  N   UNL     1      -6.086   9.278  66.014  1.00  0.00    -0.058 NA 
HETATM   24  N   UNL     1      -8.475  11.010  62.522  1.00  0.00    -0.244 NA 
ENDBRANCH  18  20
ENDBRANCH  16  18
ENDBRANCH  13  16
ENDBRANCH   9  10
TORSDOF 4
ENDMDL
MODEL      178
REMARK 921   NORMALIZED FREE ENERGY PREDICTED BY IDOCK:   -3.63 KCAL/MOL
REMARK 922        TOTAL FREE ENERGY PREDICTED BY IDOCK:   -5.19 KCAL/MOL
REMARK 923 INTER-LIGAND FREE ENERGY PREDICTED BY IDOCK:   -4.78 KCAL/MOL
REMARK 924 INTRA-LIGAND FREE ENERGY PREDICTED BY IDOCK:   -0.41 KCAL/MOL
REMARK 927      BINDING AFFINITY PREDICTED BY RF-SCORE:    0.00 PKD
ROOT
HETATM    1  C   UNL     1     -11.487  11.348  67.424  1.00  0.00    -0.328 C  
HETATM    2  C   UNL     1     -10.090  11.139  66.834  1.00  0.00    -0.250 C  
HETATM    3  C   UNL     1      -9.900  12.016  65.600  1.00  0.00    -0.265 C  
HETATM    4  C   UNL     1      -9.884  11.303  64.283  1.00  0.00    -0.273 C  
HETATM    5  N   UNL     1      -9.850   9.942  64.303  1.00  0.00    -0.433 N  
HETATM    6  O   UNL     1      -9.867  11.922  63.219  1.00  0.00    -0.407 OA 
HETATM    7  H   UNL     1      -9.887   9.476  63.396  1.00  0.00     0.000 HD 
HETATM    8  N   UNL     1      -9.774   9.139  65.387  1.00  0.00    -0.127 NA 
HETATM    9  C   UNL     1      -9.846   9.654  66.576  1.00  0.00    -0.235 C  
ENDROOT
BRANCH   9  10
HETATM   10  C   UNL     1      -9.690   8.718  67.744  1.00  0.00    -0.194 A  
HETATM   11  C   UNL     1      -9.803   9.163  69.063  1.00  0.00    -0.176 A  
HETATM   12  C   UNL     1      -9.566   8.284  70.127  1.00  0.00    -0.167 A  
HETATM   13  C   UNL     1      -9.213   6.946  69.908  1.00  0.00    -0.147 A  
HETATM   14  C   UNL     1      -9.105   6.504  68.584  1.00  0.00    -0.128 A  
HETATM   15  C   UNL     1      -9.350   7.377  67.512  1.00  0.00    -0.147 A  
BRANCH  13  16
HETATM   16  N   UNL     1      -8.916   6.077  70.980  1.00  0.00    -0.142 NA 
HETATM   17  H   UNL     1      -8.037   6.137  71.494  1.00  0.00     0.000 HD 
BRANCH  16  18
HETATM   18  N   UNL     1      -9.872   5.147  71.292  1.00  0.00    -0.169 NA 
HETATM   19  H   UNL     1     -10.174   4.471  70.591  1.00  0.00     0.000 HD 
BRANCH  18  20
HETATM   20  C   UNL     1     -10.396   5.127  72.485  1.00  0.00    -0.204 C  
HETATM   21  C   UNL     1     -10.508   6.415  73.113  1.00  0.00    -0.243 C  
HETATM   22  C   UNL     1     -10.816   3.909  73.109  1.00  0.00    -0.174 C  
HETATM   23  N   UNL     1     -11.175   2.911  73.586  1.00  0.00    -0.227 NA 
HETATM   24  N   UNL     1     -10.624   7.450  73.628  1.00  0.00    -0.343 NA 
ENDBRANCH  18  20
ENDBRANCH  16  18
ENDBRANCH  13  16
ENDBRANCH   9  10
TORSDOF 4
ENDMDL
MODEL      179
REMARK 921   NORMALIZED FREE ENERGY PREDICTED BY IDOCK:   -3.62 KCAL/MOL
REMARK 922        TOTAL FREE ENERGY PREDICTED BY IDOCK:   -5.18 KCAL/MOL
REMARK 923 INTER-LIGAND FREE ENERGY PREDICTED BY IDOCK:   -4.51 KCAL/MOL
REMARK 924 INTRA-LIGAND FREE ENERGY PREDICTED BY IDOCK:   -0.67 KCAL/MOL
REMARK 927      BINDING AFFINITY PREDICTED BY RF-SCORE:    0.00 PKD
ROOT
HETATM    1  C   UNL     1      -8.404   7.799  62.775  1.00  0.00     0.010 C  
HETATM    2  C   UNL     1      -8.286   9.192  63.398  1.00  0.00    -0.192 C  
HETATM    3  C   UNL     1      -7.427  10.094  62.518  1.00  0.00    -0.144 C  
HETATM    4  C   UNL     1      -6.064  10.423  63.046  1.00  0.00    -0.137 C  
HETATM    5  N   UNL     1      -5.778  10.057  64.325  1.00  0.00    -0.107 N  
HETATM    6  O   UNL     1      -5.242  11.034  62.361  1.00  0.00    -0.156 OA 
HETATM    7  H   UNL     1      -4.829  10.249  64.648  1.00  0.00     0.000 HD 
HETATM    8  N   UNL     1      -6.607   9.468  65.215  1.00  0.00    -0.078 NA 
HETATM    9  C   UNL     1      -7.788   9.083  64.838  1.00  0.00    -0.119 C  
ENDROOT
BRANCH   9  10
HETATM   10  C   UNL     1      -8.690   8.493  65.888  1.00  0.00    -0.203 A  
HETATM   11  C   UNL     1      -8.556   7.169  66.312  1.00  0.00    -0.143 A  
HETATM   12  C   UNL     1      -9.465   6.626  67.228  1.00  0.00    -0.151 A  
HETATM   13  C   UNL     1     -10.526   7.383  67.743  1.00  0.00    -0.232 A  
HETATM   14  C   UNL     1     -10.654   8.710  67.319  1.00  0.00    -0.308 A  
HETATM   15  C   UNL     1      -9.740   9.264  66.407  1.00  0.00    -0.325 A  
BRANCH  13  16
HETATM   16  N   UNL     1     -11.478   6.817  68.620  1.00  0.00    -0.553 NA 
HETATM   17  H   UNL     1     -12.481   6.923  68.466  1.00  0.00     0.000 HD 
BRANCH  16  18
HETATM   18  N   UNL     1     -10.982   6.117  69.687  1.00  0.00    -0.354 NA 
HETATM   19  H   UNL     1     -10.508   5.226  69.538  1.00  0.00     0.000 HD 
BRANCH  18  20
HETATM   20  C   UNL     1     -11.114   6.591  70.894  1.00  0.00    -0.292 C  
HETATM   21  C   UNL     1     -10.901   5.630  71.943  1.00  0.00    -0.242 C  
HETATM   22  C   UNL     1     -11.452   7.960  71.139  1.00  0.00    -0.273 C  
HETATM   23  N   UNL     1     -11.701   9.082  71.317  1.00  0.00    -0.293 NA 
HETATM   24  N   UNL     1     -10.713   4.872  72.803  1.00  0.00    -0.218 NA 
ENDBRANCH  18  20
ENDBRANCH  16  18
ENDBRANCH  13  16
ENDBRANCH   9  10
TORSDOF 4
ENDMDL
MODEL      180
REMARK 921   NORMALIZED FREE ENERGY PREDICTED BY IDOCK:   -3.61 KCAL/MOL
REMARK 922        TOTAL FREE ENERGY PREDICTED BY IDOCK:   -5.16 KCAL/MOL
REMARK 923 INTER-LIGAND FREE ENERGY PREDICTED BY IDOCK:   -4.51 KCAL/MOL
REMARK 924 INTRA-LIGAND FREE ENERGY PREDICTED BY IDOCK:   -0.66 KCAL/MOL
REMARK 927      BINDING AFFINITY PREDICTED BY RF-SCORE:    0.00 PKD
ROOT
HETATM    1  C   UNL     1      -8.205  18.131  66.769  1.00  0.00    -0.270 C  
HETATM    2  C   UNL     1      -8.265  17.997  68.293  1.00  0.00    -0.298 C  
HETATM    3  C   UNL     1      -8.042  19.353  68.954  1.00  0.00    -0.344 C  
HETATM    4  C   UNL     1      -6.726  19.539  69.644  1.00  0.00    -0.279 C  
HETATM    5  N   UNL     1      -5.929  18.445  69.789  1.00  0.00    -0.248 N  
HETATM    6  O   UNL     1      -6.389  20.634  70.097  1.00  0.00    -0.371 OA 
HETATM    7  H   UNL     1      -5.018  18.604  70.221  1.00  0.00     0.000 HD 
HETATM    8  N   UNL     1      -6.208  17.174  69.427  1.00  0.00    -0.223 NA 
HETATM    9  C   UNL     1      -7.294  16.917  68.763  1.00  0.00    -0.227 C  
ENDROOT
BRANCH   9  10
HETATM   10  C   UNL     1      -7.582  15.474  68.444  1.00  0.00    -0.116 A  
HETATM   11  C   UNL     1      -6.588  14.612  67.978  1.00  0.00    -0.155 A  
HETATM   12  C   UNL     1      -6.908  13.300  67.609  1.00  0.00    -0.168 A  
HETATM   13  C   UNL     1      -8.219  12.814  67.694  1.00  0.00    -0.175 A  
HETATM   14  C   UNL     1      -9.212  13.681  68.165  1.00  0.00    -0.204 A  
HETATM   15  C   UNL     1      -8.897  14.995  68.546  1.00  0.00    -0.181 A  
BRANCH  13  16
HETATM   16  N   UNL     1      -8.552  11.511  67.264  1.00  0.00    -0.145 NA 
HETATM   17  H   UNL     1      -7.873  10.906  66.802  1.00  0.00     0.000 HD 
BRANCH  16  18
HETATM   18  N   UNL     1      -9.838  11.102  67.502  1.00  0.00    -0.176 NA 
HETATM   19  H   UNL     1     -10.622  11.665  67.171  1.00  0.00     0.000 HD 
BRANCH  18  20
HETATM   20  C   UNL     1     -10.059   9.995  68.152  1.00  0.00    -0.159 C  
HETATM   21  C   UNL     1     -10.950  10.125  69.274  1.00  0.00    -0.240 C  
HETATM   22  C   UNL     1      -9.452   8.756  67.770  1.00  0.00    -0.142 C  
HETATM   23  N   UNL     1      -8.969   7.756  67.427  1.00  0.00    -0.123 NA 
HETATM   24  N   UNL     1     -11.682  10.207  70.171  1.00  0.00    -0.265 NA 
ENDBRANCH  18  20
ENDBRANCH  16  18
ENDBRANCH  13  16
ENDBRANCH   9  10
TORSDOF 4
ENDMDL
MODEL      181
REMARK 921   NORMALIZED FREE ENERGY PREDICTED BY IDOCK:   -3.61 KCAL/MOL
REMARK 922        TOTAL FREE ENERGY PREDICTED BY IDOCK:   -5.16 KCAL/MOL
REMARK 923 INTER-LIGAND FREE ENERGY PREDICTED BY IDOCK:   -5.02 KCAL/MOL
REMARK 924 INTRA-LIGAND FREE ENERGY PREDICTED BY IDOCK:   -0.14 KCAL/MOL
REMARK 927      BINDING AFFINITY PREDICTED BY RF-SCORE:    0.00 PKD
ROOT
HETATM    1  C   UNL     1      -6.414   9.782  66.913  1.00  0.00    -0.066 C  
HETATM    2  C   UNL     1      -7.409   8.963  66.087  1.00  0.00    -0.090 C  
HETATM    3  C   UNL     1      -6.713   7.756  65.466  1.00  0.00    -0.045 C  
HETATM    4  C   UNL     1      -6.488   7.817  63.986  1.00  0.00    -0.057 C  
HETATM    5  N   UNL     1      -7.077   8.834  63.300  1.00  0.00    -0.090 N  
HETATM    6  O   UNL     1      -5.823   6.960  63.403  1.00  0.00    -0.034 OA 
HETATM    7  H   UNL     1      -6.873   8.883  62.301  1.00  0.00     0.000 HD 
HETATM    8  N   UNL     1      -7.902   9.785  63.790  1.00  0.00    -0.136 NA 
HETATM    9  C   UNL     1      -8.110   9.860  65.070  1.00  0.00    -0.140 C  
ENDROOT
BRANCH   9  10
HETATM   10  C   UNL     1      -9.088  10.898  65.550  1.00  0.00    -0.221 A  
HETATM   11  C   UNL     1     -10.358  11.029  64.984  1.00  0.00    -0.360 A  
HETATM   12  C   UNL     1     -11.211  12.060  65.396  1.00  0.00    -0.374 A  
HETATM   13  C   UNL     1     -10.824  12.983  66.376  1.00  0.00    -0.278 A  
HETATM   14  C   UNL     1      -9.552  12.845  66.944  1.00  0.00    -0.240 A  
HETATM   15  C   UNL     1      -8.695  11.808  66.542  1.00  0.00    -0.173 A  
BRANCH  13  16
HETATM   16  N   UNL     1     -11.661  14.059  66.747  1.00  0.00    -0.366 NA 
HETATM   17  H   UNL     1     -12.670  13.948  66.842  1.00  0.00     0.000 HD 
BRANCH  16  18
HETATM   18  N   UNL     1     -11.042  15.260  66.973  1.00  0.00    -0.325 NA 
HETATM   19  H   UNL     1     -10.942  15.611  67.926  1.00  0.00     0.000 HD 
BRANCH  18  20
HETATM   20  C   UNL     1     -10.581  15.954  65.971  1.00  0.00    -0.323 C  
HETATM   21  C   UNL     1     -11.469  16.043  64.843  1.00  0.00    -0.125 C  
HETATM   22  C   UNL     1      -9.289  16.568  66.004  1.00  0.00    -0.267 C  
HETATM   23  N   UNL     1      -8.247  17.081  66.062  1.00  0.00    -0.507 NA 
HETATM   24  N   UNL     1     -12.181  16.141  63.932  1.00  0.00    -0.802 NA 
ENDBRANCH  18  20
ENDBRANCH  16  18
ENDBRANCH  13  16
ENDBRANCH   9  10
TORSDOF 4
ENDMDL
MODEL      182
REMARK 921   NORMALIZED FREE ENERGY PREDICTED BY IDOCK:   -3.59 KCAL/MOL
REMARK 922        TOTAL FREE ENERGY PREDICTED BY IDOCK:   -5.13 KCAL/MOL
REMARK 923 INTER-LIGAND FREE ENERGY PREDICTED BY IDOCK:   -4.51 KCAL/MOL
REMARK 924 INTRA-LIGAND FREE ENERGY PREDICTED BY IDOCK:   -0.62 KCAL/MOL
REMARK 927      BINDING AFFINITY PREDICTED BY RF-SCORE:    0.00 PKD
ROOT
HETATM    1  C   UNL     1      -8.896   7.878  72.931  1.00  0.00    -0.261 C  
HETATM    2  C   UNL     1      -9.594   6.973  71.913  1.00  0.00    -0.159 C  
HETATM    3  C   UNL     1      -9.581   5.526  72.394  1.00  0.00    -0.170 C  
HETATM    4  C   UNL     1      -8.663   4.597  71.660  1.00  0.00    -0.121 C  
HETATM    5  N   UNL     1      -8.070   5.062  70.526  1.00  0.00    -0.091 N  
HETATM    6  O   UNL     1      -8.477   3.442  72.046  1.00  0.00    -0.079 OA 
HETATM    7  H   UNL     1      -7.413   4.429  70.068  1.00  0.00     0.000 HD 
HETATM    8  N   UNL     1      -8.252   6.265  69.939  1.00  0.00    -0.119 NA 
HETATM    9  C   UNL     1      -8.976   7.166  70.530  1.00  0.00    -0.155 C  
ENDROOT
BRANCH   9  10
HETATM   10  C   UNL     1      -9.196   8.463  69.798  1.00  0.00    -0.157 A  
HETATM   11  C   UNL     1     -10.476   8.978  69.583  1.00  0.00    -0.227 A  
HETATM   12  C   UNL     1     -10.650  10.142  68.824  1.00  0.00    -0.236 A  
HETATM   13  C   UNL     1      -9.560  10.820  68.262  1.00  0.00    -0.166 A  
HETATM   14  C   UNL     1      -8.279  10.302  68.483  1.00  0.00    -0.111 A  
HETATM   15  C   UNL     1      -8.096   9.140  69.251  1.00  0.00    -0.102 A  
BRANCH  13  16
HETATM   16  N   UNL     1      -9.741  11.958  67.446  1.00  0.00    -0.183 NA 
HETATM   17  H   UNL     1      -9.299  12.039  66.530  1.00  0.00     0.000 HD 
BRANCH  16  18
HETATM   18  N   UNL     1     -10.541  12.948  67.952  1.00  0.00    -0.217 NA 
HETATM   19  H   UNL     1     -10.708  13.006  68.956  1.00  0.00     0.000 HD 
BRANCH  18  20
HETATM   20  C   UNL     1     -11.090  13.815  67.149  1.00  0.00    -0.302 C  
HETATM   21  C   UNL     1     -11.962  13.247  66.156  1.00  0.00    -0.418 C  
HETATM   22  C   UNL     1     -10.832  15.219  67.257  1.00  0.00    -0.318 C  
HETATM   23  N   UNL     1     -10.629  16.357  67.378  1.00  0.00    -0.317 NA 
HETATM   24  N   UNL     1     -12.684  12.807  65.360  1.00  0.00    -0.603 NA 
ENDBRANCH  18  20
ENDBRANCH  16  18
ENDBRANCH  13  16
ENDBRANCH   9  10
TORSDOF 4
ENDMDL
MODEL      183
REMARK 921   NORMALIZED FREE ENERGY PREDICTED BY IDOCK:   -3.58 KCAL/MOL
REMARK 922        TOTAL FREE ENERGY PREDICTED BY IDOCK:   -5.13 KCAL/MOL
REMARK 923 INTER-LIGAND FREE ENERGY PREDICTED BY IDOCK:   -4.50 KCAL/MOL
REMARK 924 INTRA-LIGAND FREE ENERGY PREDICTED BY IDOCK:   -0.63 KCAL/MOL
REMARK 927      BINDING AFFINITY PREDICTED BY RF-SCORE:    0.00 PKD
ROOT
HETATM    1  C   UNL     1      -9.281   8.187  68.197  1.00  0.00    -0.136 C  
HETATM    2  C   UNL     1      -9.597   8.232  66.700  1.00  0.00    -0.299 C  
HETATM    3  C   UNL     1      -9.187   6.924  66.032  1.00  0.00    -0.062 C  
HETATM    4  C   UNL     1      -7.981   6.988  65.146  1.00  0.00    -0.128 C  
HETATM    5  N   UNL     1      -7.471   8.217  64.862  1.00  0.00    -0.087 N  
HETATM    6  O   UNL     1      -7.487   5.969  64.662  1.00  0.00    -0.070 OA 
HETATM    7  H   UNL     1      -6.623   8.235  64.295  1.00  0.00     0.000 HD 
HETATM    8  N   UNL     1      -7.961   9.417  65.245  1.00  0.00    -0.107 NA 
HETATM    9  C   UNL     1      -8.965   9.470  66.067  1.00  0.00    -0.163 C  
ENDROOT
BRANCH   9  10
HETATM   10  C   UNL     1      -9.507  10.832  66.406  1.00  0.00    -0.200 A  
HETATM   11  C   UNL     1     -10.796  11.222  66.037  1.00  0.00    -0.273 A  
HETATM   12  C   UNL     1     -11.239  12.526  66.293  1.00  0.00    -0.359 A  
HETATM   13  C   UNL     1     -10.415  13.470  66.919  1.00  0.00    -0.271 A  
HETATM   14  C   UNL     1      -9.126  13.073  67.291  1.00  0.00    -0.209 A  
HETATM   15  C   UNL     1      -8.678  11.765  67.046  1.00  0.00    -0.181 A  
BRANCH  13  16
HETATM   16  N   UNL     1     -10.840  14.802  67.121  1.00  0.00    -0.303 NA 
HETATM   17  H   UNL     1     -11.419  15.292  66.439  1.00  0.00     0.000 HD 
BRANCH  16  18
HETATM   18  N   UNL     1     -10.433  15.399  68.285  1.00  0.00    -0.237 NA 
HETATM   19  H   UNL     1     -10.669  14.980  69.184  1.00  0.00     0.000 HD 
BRANCH  18  20
HETATM   20  C   UNL     1      -9.745  16.505  68.242  1.00  0.00    -0.231 C  
HETATM   21  C   UNL     1      -8.368  16.371  68.636  1.00  0.00    -0.221 C  
HETATM   22  C   UNL     1     -10.329  17.748  67.838  1.00  0.00    -0.386 C  
HETATM   23  N   UNL     1     -10.817  18.741  67.481  1.00  0.00    -0.404 NA 
HETATM   24  N   UNL     1      -7.249  16.277  68.933  1.00  0.00    -0.177 NA 
ENDBRANCH  18  20
ENDBRANCH  16  18
ENDBRANCH  13  16
ENDBRANCH   9  10
TORSDOF 4
ENDMDL
MODEL      184
REMARK 921   NORMALIZED FREE ENERGY PREDICTED BY IDOCK:   -3.57 KCAL/MOL
REMARK 922        TOTAL FREE ENERGY PREDICTED BY IDOCK:   -5.11 KCAL/MOL
REMARK 923 INTER-LIGAND FREE ENERGY PREDICTED BY IDOCK:   -4.41 KCAL/MOL
REMARK 924 INTRA-LIGAND FREE ENERGY PREDICTED BY IDOCK:   -0.70 KCAL/MOL
REMARK 927      BINDING AFFINITY PREDICTED BY RF-SCORE:    0.00 PKD
ROOT
HETATM    1  C   UNL     1     -12.668   8.301  71.579  1.00  0.00    -0.326 C  
HETATM    2  C   UNL     1     -11.969   6.987  71.219  1.00  0.00    -0.388 C  
HETATM    3  C   UNL     1     -12.026   6.017  72.395  1.00  0.00    -0.232 C  
HETATM    4  C   UNL     1     -10.735   5.785  73.119  1.00  0.00    -0.262 C  
HETATM    5  N   UNL     1      -9.601   6.296  72.567  1.00  0.00    -0.143 N  
HETATM    6  O   UNL     1     -10.693   5.125  74.158  1.00  0.00    -0.287 OA 
HETATM    7  H   UNL     1      -8.741   6.166  73.099  1.00  0.00     0.000 HD 
HETATM    8  N   UNL     1      -9.485   6.957  71.393  1.00  0.00    -0.160 NA 
HETATM    9  C   UNL     1     -10.552   7.266  70.721  1.00  0.00    -0.223 C  
ENDROOT
BRANCH   9  10
HETATM   10  C   UNL     1     -10.357   7.943  69.391  1.00  0.00    -0.220 A  
HETATM   11  C   UNL     1     -10.796   7.362  68.200  1.00  0.00    -0.100 A  
HETATM   12  C   UNL     1     -10.522   7.978  66.972  1.00  0.00    -0.410 A  
HETATM   13  C   UNL     1      -9.809   9.181  66.899  1.00  0.00    -0.217 A  
HETATM   14  C   UNL     1      -9.374   9.762  68.096  1.00  0.00    -0.136 A  
HETATM   15  C   UNL     1      -9.653   9.155  69.331  1.00  0.00    -0.165 A  
BRANCH  13  16
HETATM   16  N   UNL     1      -9.480   9.770  65.658  1.00  0.00    -0.226 NA 
HETATM   17  H   UNL     1      -9.366  10.779  65.554  1.00  0.00     0.000 HD 
BRANCH  16  18
HETATM   18  N   UNL     1      -9.323   8.913  64.601  1.00  0.00    -0.333 NA 
HETATM   19  H   UNL     1     -10.141   8.535  64.125  1.00  0.00     0.000 HD 
BRANCH  18  20
HETATM   20  C   UNL     1      -8.126   8.582  64.204  1.00  0.00    -0.154 C  
HETATM   21  C   UNL     1      -7.768   7.212  64.456  1.00  0.00    -0.113 C  
HETATM   22  C   UNL     1      -7.249   9.521  63.573  1.00  0.00    -0.105 C  
HETATM   23  N   UNL     1      -6.563  10.292  63.038  1.00  0.00    -0.136 NA 
HETATM   24  N   UNL     1      -7.468   6.105  64.635  1.00  0.00    -0.079 NA 
ENDBRANCH  18  20
ENDBRANCH  16  18
ENDBRANCH  13  16
ENDBRANCH   9  10
TORSDOF 4
ENDMDL
MODEL      185
REMARK 921   NORMALIZED FREE ENERGY PREDICTED BY IDOCK:   -3.57 KCAL/MOL
REMARK 922        TOTAL FREE ENERGY PREDICTED BY IDOCK:   -5.11 KCAL/MOL
REMARK 923 INTER-LIGAND FREE ENERGY PREDICTED BY IDOCK:   -4.39 KCAL/MOL
REMARK 924 INTRA-LIGAND FREE ENERGY PREDICTED BY IDOCK:   -0.72 KCAL/MOL
REMARK 927      BINDING AFFINITY PREDICTED BY RF-SCORE:    0.00 PKD
ROOT
HETATM    1  C   UNL     1      -6.284   6.113  69.411  1.00  0.00    -0.033 C  
HETATM    2  C   UNL     1      -6.679   6.163  70.890  1.00  0.00    -0.061 C  
HETATM    3  C   UNL     1      -5.917   5.102  71.677  1.00  0.00    -0.024 C  
HETATM    4  C   UNL     1      -6.721   3.926  72.143  1.00  0.00    -0.022 C  
HETATM    5  N   UNL     1      -8.072   3.988  71.997  1.00  0.00    -0.083 N  
HETATM    6  O   UNL     1      -6.184   2.952  72.673  1.00  0.00    -0.009 OA 
HETATM    7  H   UNL     1      -8.596   3.159  72.278  1.00  0.00     0.000 HD 
HETATM    8  N   UNL     1      -8.800   5.023  71.521  1.00  0.00    -0.130 NA 
HETATM    9  C   UNL     1      -8.196   6.063  71.031  1.00  0.00    -0.123 C  
ENDROOT
BRANCH   9  10
HETATM   10  C   UNL     1      -9.057   7.210  70.577  1.00  0.00    -0.155 A  
HETATM   11  C   UNL     1      -9.254   8.341  71.372  1.00  0.00    -0.218 A  
HETATM   12  C   UNL     1     -10.130   9.351  70.957  1.00  0.00    -0.353 A  
HETATM   13  C   UNL     1     -10.829   9.264  69.746  1.00  0.00    -0.224 A  
HETATM   14  C   UNL     1     -10.625   8.131  68.950  1.00  0.00    -0.161 A  
HETATM   15  C   UNL     1      -9.741   7.117  69.356  1.00  0.00    -0.160 A  
BRANCH  13  16
HETATM   16  N   UNL     1     -11.758  10.254  69.356  1.00  0.00    -0.464 NA 
HETATM   17  H   UNL     1     -12.496  10.062  68.679  1.00  0.00     0.000 HD 
BRANCH  16  18
HETATM   18  N   UNL     1     -11.613  11.485  69.937  1.00  0.00    -0.388 NA 
HETATM   19  H   UNL     1     -11.371  11.559  70.925  1.00  0.00     0.000 HD 
BRANCH  18  20
HETATM   20  C   UNL     1     -11.785  12.565  69.227  1.00  0.00    -0.321 C  
HETATM   21  C   UNL     1     -11.697  12.369  67.805  1.00  0.00    -0.350 C  
HETATM   22  C   UNL     1     -12.037  13.838  69.831  1.00  0.00    -0.348 C  
HETATM   23  N   UNL     1     -12.266  14.858  70.341  1.00  0.00    -0.313 NA 
HETATM   24  N   UNL     1     -11.648  12.225  66.654  1.00  0.00    -0.445 NA 
ENDBRANCH  18  20
ENDBRANCH  16  18
ENDBRANCH  13  16
ENDBRANCH   9  10
TORSDOF 4
ENDMDL
MODEL      186
REMARK 921   NORMALIZED FREE ENERGY PREDICTED BY IDOCK:   -3.56 KCAL/MOL
REMARK 922        TOTAL FREE ENERGY PREDICTED BY IDOCK:   -5.11 KCAL/MOL
REMARK 923 INTER-LIGAND FREE ENERGY PREDICTED BY IDOCK:   -4.40 KCAL/MOL
REMARK 924 INTRA-LIGAND FREE ENERGY PREDICTED BY IDOCK:   -0.71 KCAL/MOL
REMARK 927      BINDING AFFINITY PREDICTED BY RF-SCORE:    0.00 PKD
ROOT
HETATM    1  C   UNL     1      -9.168   8.826  66.116  1.00  0.00    -0.273 C  
HETATM    2  C   UNL     1      -8.667  10.203  66.559  1.00  0.00    -0.139 C  
HETATM    3  C   UNL     1      -7.702  10.774  65.524  1.00  0.00    -0.020 C  
HETATM    4  C   UNL     1      -6.258  10.809  65.920  1.00  0.00    -0.121 C  
HETATM    5  N   UNL     1      -5.952  10.514  67.213  1.00  0.00    -0.052 N  
HETATM    6  O   UNL     1      -5.381  11.127  65.117  1.00  0.00    -0.220 OA 
HETATM    7  H   UNL     1      -4.960  10.499  67.450  1.00  0.00     0.000 HD 
HETATM    8  N   UNL     1      -6.812  10.240  68.219  1.00  0.00    -0.065 NA 
HETATM    9  C   UNL     1      -8.080  10.121  67.966  1.00  0.00    -0.112 C  
ENDROOT
BRANCH   9  10
HETATM   10  C   UNL     1      -8.997   9.879  69.135  1.00  0.00    -0.170 A  
HETATM   11  C   UNL     1      -8.556   9.233  70.292  1.00  0.00    -0.234 A  
HETATM   12  C   UNL     1      -9.456   8.947  71.326  1.00  0.00    -0.343 A  
HETATM   13  C   UNL     1     -10.810   9.295  71.236  1.00  0.00    -0.347 A  
HETATM   14  C   UNL     1     -11.246   9.946  70.076  1.00  0.00    -0.327 A  
HETATM   15  C   UNL     1     -10.348  10.244  69.039  1.00  0.00    -0.229 A  
BRANCH  13  16
HETATM   16  N   UNL     1     -11.729   8.952  72.252  1.00  0.00    -0.333 NA 
HETATM   17  H   UNL     1     -12.520   9.553  72.488  1.00  0.00     0.000 HD 
BRANCH  16  18
HETATM   18  N   UNL     1     -11.502   7.770  72.905  1.00  0.00    -0.572 NA 
HETATM   19  H   UNL     1     -10.861   7.740  73.698  1.00  0.00     0.000 HD 
BRANCH  18  20
HETATM   20  C   UNL     1     -12.103   6.683  72.512  1.00  0.00     0.010 C  
HETATM   21  C   UNL     1     -13.375   6.896  71.877  1.00  0.00    -0.125 C  
HETATM   22  C   UNL     1     -11.531   5.386  72.709  1.00  0.00    -0.268 C  
HETATM   23  N   UNL     1     -11.036   4.343  72.856  1.00  0.00    -0.178 NA 
HETATM   24  N   UNL     1     -14.396   7.051  71.344  1.00  0.00    -0.278 NA 
ENDBRANCH  18  20
ENDBRANCH  16  18
ENDBRANCH  13  16
ENDBRANCH   9  10
TORSDOF 4
ENDMDL
MODEL      187
REMARK 921   NORMALIZED FREE ENERGY PREDICTED BY IDOCK:   -3.55 KCAL/MOL
REMARK 922        TOTAL FREE ENERGY PREDICTED BY IDOCK:   -5.09 KCAL/MOL
REMARK 923 INTER-LIGAND FREE ENERGY PREDICTED BY IDOCK:   -4.63 KCAL/MOL
REMARK 924 INTRA-LIGAND FREE ENERGY PREDICTED BY IDOCK:   -0.46 KCAL/MOL
REMARK 927      BINDING AFFINITY PREDICTED BY RF-SCORE:    0.00 PKD
ROOT
HETATM    1  C   UNL     1      -6.608   7.446  67.457  1.00  0.00    -0.061 C  
HETATM    2  C   UNL     1      -6.594   6.352  68.528  1.00  0.00    -0.055 C  
HETATM    3  C   UNL     1      -5.502   5.330  68.227  1.00  0.00    -0.011 C  
HETATM    4  C   UNL     1      -5.968   3.990  67.748  1.00  0.00    -0.027 C  
HETATM    5  N   UNL     1      -7.304   3.731  67.800  1.00  0.00    -0.062 N  
HETATM    6  O   UNL     1      -5.172   3.137  67.355  1.00  0.00    -0.008 OA 
HETATM    7  H   UNL     1      -7.604   2.831  67.426  1.00  0.00     0.000 HD 
HETATM    8  N   UNL     1      -8.276   4.532  68.290  1.00  0.00    -0.090 NA 
HETATM    9  C   UNL     1      -7.986   5.739  68.669  1.00  0.00    -0.101 C  
ENDROOT
BRANCH   9  10
HETATM   10  C   UNL     1      -9.097   6.560  69.266  1.00  0.00    -0.137 A  
HETATM   11  C   UNL     1      -8.842   7.601  70.161  1.00  0.00    -0.146 A  
HETATM   12  C   UNL     1      -9.903   8.289  70.764  1.00  0.00    -0.205 A  
HETATM   13  C   UNL     1     -11.237   7.960  70.493  1.00  0.00    -0.253 A  
HETATM   14  C   UNL     1     -11.488   6.919  69.592  1.00  0.00    -0.204 A  
HETATM   15  C   UNL     1     -10.430   6.231  68.977  1.00  0.00    -0.287 A  
BRANCH  13  16
HETATM   16  N   UNL     1     -12.305   8.613  71.147  1.00  0.00    -0.425 NA 
HETATM   17  H   UNL     1     -13.219   8.173  71.256  1.00  0.00     0.000 HD 
BRANCH  16  18
HETATM   18  N   UNL     1     -12.047   9.869  71.627  1.00  0.00    -0.398 NA 
HETATM   19  H   UNL     1     -11.579   9.986  72.526  1.00  0.00     0.000 HD 
BRANCH  18  20
HETATM   20  C   UNL     1     -12.401  10.916  70.936  1.00  0.00    -0.400 C  
HETATM   21  C   UNL     1     -13.070  11.939  71.694  1.00  0.00    -0.328 C  
HETATM   22  C   UNL     1     -12.141  11.021  69.532  1.00  0.00    -0.329 C  
HETATM   23  N   UNL     1     -11.897  11.097  68.398  1.00  0.00    -0.560 NA 
HETATM   24  N   UNL     1     -13.594  12.783  72.294  1.00  0.00    -0.542 NA 
ENDBRANCH  18  20
ENDBRANCH  16  18
ENDBRANCH  13  16
ENDBRANCH   9  10
TORSDOF 4
ENDMDL
MODEL      188
REMARK 921   NORMALIZED FREE ENERGY PREDICTED BY IDOCK:   -3.51 KCAL/MOL
REMARK 922        TOTAL FREE ENERGY PREDICTED BY IDOCK:   -5.04 KCAL/MOL
REMARK 923 INTER-LIGAND FREE ENERGY PREDICTED BY IDOCK:   -4.47 KCAL/MOL
REMARK 924 INTRA-LIGAND FREE ENERGY PREDICTED BY IDOCK:   -0.57 KCAL/MOL
REMARK 927      BINDING AFFINITY PREDICTED BY RF-SCORE:    0.00 PKD
ROOT
HETATM    1  C   UNL     1     -12.209  13.423  68.229  1.00  0.00    -0.120 C  
HETATM    2  C   UNL     1     -11.180  13.962  67.232  1.00  0.00    -0.329 C  
HETATM    3  C   UNL     1     -11.871  14.795  66.156  1.00  0.00    -0.203 C  
HETATM    4  C   UNL     1     -11.947  14.177  64.794  1.00  0.00    -0.431 C  
HETATM    5  N   UNL     1     -11.244  13.031  64.580  1.00  0.00    -0.311 N  
HETATM    6  O   UNL     1     -12.594  14.703  63.887  1.00  0.00    -0.834 OA 
HETATM    7  H   UNL     1     -11.347  12.603  63.660  1.00  0.00     0.000 HD 
HETATM    8  N   UNL     1     -10.425  12.397  65.448  1.00  0.00    -0.270 NA 
HETATM    9  C   UNL     1     -10.339  12.815  66.675  1.00  0.00    -0.242 C  
ENDROOT
BRANCH   9  10
HETATM   10  C   UNL     1      -9.363  12.110  67.577  1.00  0.00    -0.181 A  
HETATM   11  C   UNL     1      -9.654  10.869  68.148  1.00  0.00    -0.169 A  
HETATM   12  C   UNL     1      -8.760  10.281  69.051  1.00  0.00    -0.164 A  
HETATM   13  C   UNL     1      -7.559  10.908  69.407  1.00  0.00    -0.094 A  
HETATM   14  C   UNL     1      -7.270  12.149  68.829  1.00  0.00    -0.103 A  
HETATM   15  C   UNL     1      -8.157  12.742  67.916  1.00  0.00    -0.159 A  
BRANCH  13  16
HETATM   16  N   UNL     1      -6.687  10.344  70.364  1.00  0.00    -0.265 NA 
HETATM   17  H   UNL     1      -6.434  10.838  71.219  1.00  0.00     0.000 HD 
BRANCH  16  18
HETATM   18  N   UNL     1      -6.199   9.096  70.080  1.00  0.00    -0.041 NA 
HETATM   19  H   UNL     1      -5.374   8.992  69.489  1.00  0.00     0.000 HD 
BRANCH  18  20
HETATM   20  C   UNL     1      -6.790   8.040  70.565  1.00  0.00    -0.037 C  
HETATM   21  C   UNL     1      -7.477   8.255  71.810  1.00  0.00    -0.096 C  
HETATM   22  C   UNL     1      -6.744   6.773  69.901  1.00  0.00    -0.049 C  
HETATM   23  N   UNL     1      -6.717   5.759  69.332  1.00  0.00    -0.057 NA 
HETATM   24  N   UNL     1      -8.053   8.415  72.806  1.00  0.00    -0.316 NA 
ENDBRANCH  18  20
ENDBRANCH  16  18
ENDBRANCH  13  16
ENDBRANCH   9  10
TORSDOF 4
ENDMDL
MODEL      189
REMARK 921   NORMALIZED FREE ENERGY PREDICTED BY IDOCK:   -3.49 KCAL/MOL
REMARK 922        TOTAL FREE ENERGY PREDICTED BY IDOCK:   -5.02 KCAL/MOL
REMARK 923 INTER-LIGAND FREE ENERGY PREDICTED BY IDOCK:   -4.83 KCAL/MOL
REMARK 924 INTRA-LIGAND FREE ENERGY PREDICTED BY IDOCK:   -0.19 KCAL/MOL
REMARK 927      BINDING AFFINITY PREDICTED BY RF-SCORE:    0.00 PKD
ROOT
HETATM    1  C   UNL     1     -11.561   7.706  72.089  1.00  0.00    -0.354 C  
HETATM    2  C   UNL     1     -11.502   7.190  70.649  1.00  0.00    -0.346 C  
HETATM    3  C   UNL     1     -11.323   5.675  70.636  1.00  0.00     0.051 C  
HETATM    4  C   UNL     1      -9.975   5.176  70.212  1.00  0.00    -0.250 C  
HETATM    5  N   UNL     1      -9.099   6.083  69.701  1.00  0.00    -0.134 N  
HETATM    6  O   UNL     1      -9.681   3.983  70.289  1.00  0.00    -0.190 OA 
HETATM    7  H   UNL     1      -8.172   5.731  69.461  1.00  0.00     0.000 HD 
HETATM    8  N   UNL     1      -9.317   7.397  69.473  1.00  0.00    -0.156 NA 
HETATM    9  C   UNL     1     -10.428   7.942  69.865  1.00  0.00    -0.229 C  
ENDROOT
BRANCH   9  10
HETATM   10  C   UNL     1     -10.642   9.393  69.527  1.00  0.00    -0.237 A  
HETATM   11  C   UNL     1      -9.832  10.059  68.604  1.00  0.00    -0.168 A  
HETATM   12  C   UNL     1     -10.003  11.431  68.377  1.00  0.00    -0.206 A  
HETATM   13  C   UNL     1     -10.978  12.170  69.058  1.00  0.00    -0.205 A  
HETATM   14  C   UNL     1     -11.790  11.498  69.979  1.00  0.00    -0.435 A  
HETATM   15  C   UNL     1     -11.631  10.121  70.205  1.00  0.00    -0.379 A  
BRANCH  13  16
HETATM   16  N   UNL     1     -11.109  13.564  68.873  1.00  0.00    -0.260 NA 
HETATM   17  H   UNL     1     -11.616  14.150  69.538  1.00  0.00     0.000 HD 
BRANCH  16  18
HETATM   18  N   UNL     1     -10.519  14.088  67.754  1.00  0.00    -0.234 NA 
HETATM   19  H   UNL     1     -10.742  13.707  66.834  1.00  0.00     0.000 HD 
BRANCH  18  20
HETATM   20  C   UNL     1      -9.671  15.072  67.864  1.00  0.00    -0.212 C  
HETATM   21  C   UNL     1      -8.325  14.751  67.475  1.00  0.00    -0.183 C  
HETATM   22  C   UNL     1     -10.066  16.363  68.341  1.00  0.00    -0.245 C  
HETATM   23  N   UNL     1     -10.413  17.411  68.706  1.00  0.00    -0.351 NA 
HETATM   24  N   UNL     1      -7.236  14.515  67.147  1.00  0.00    -0.107 NA 
ENDBRANCH  18  20
ENDBRANCH  16  18
ENDBRANCH  13  16
ENDBRANCH   9  10
TORSDOF 4
ENDMDL
MODEL      190
REMARK 921   NORMALIZED FREE ENERGY PREDICTED BY IDOCK:   -3.41 KCAL/MOL
REMARK 922        TOTAL FREE ENERGY PREDICTED BY IDOCK:   -4.92 KCAL/MOL
REMARK 923 INTER-LIGAND FREE ENERGY PREDICTED BY IDOCK:   -4.49 KCAL/MOL
REMARK 924 INTRA-LIGAND FREE ENERGY PREDICTED BY IDOCK:   -0.44 KCAL/MOL
REMARK 927      BINDING AFFINITY PREDICTED BY RF-SCORE:    0.00 PKD
ROOT
HETATM    1  C   UNL     1      -8.276  17.731  66.440  1.00  0.00    -0.290 C  
HETATM    2  C   UNL     1      -8.386  17.607  67.962  1.00  0.00    -0.246 C  
HETATM    3  C   UNL     1      -8.282  18.982  68.614  1.00  0.00    -0.399 C  
HETATM    4  C   UNL     1      -7.010  19.266  69.352  1.00  0.00    -0.265 C  
HETATM    5  N   UNL     1      -6.146  18.231  69.541  1.00  0.00    -0.249 N  
HETATM    6  O   UNL     1      -6.767  20.385  69.804  1.00  0.00    -0.183 OA 
HETATM    7  H   UNL     1      -5.266  18.456  70.004  1.00  0.00     0.000 HD 
HETATM    8  N   UNL     1      -6.323  16.939  69.184  1.00  0.00    -0.191 NA 
HETATM    9  C   UNL     1      -7.362  16.601  68.482  1.00  0.00    -0.201 C  
ENDROOT
BRANCH   9  10
HETATM   10  C   UNL     1      -7.538  15.140  68.170  1.00  0.00    -0.116 A  
HETATM   11  C   UNL     1      -6.485  14.231  68.291  1.00  0.00    -0.116 A  
HETATM   12  C   UNL     1      -6.659  12.895  67.910  1.00  0.00    -0.125 A  
HETATM   13  C   UNL     1      -7.879  12.431  67.403  1.00  0.00    -0.174 A  
HETATM   14  C   UNL     1      -8.933  13.344  67.288  1.00  0.00    -0.221 A  
HETATM   15  C   UNL     1      -8.769  14.684  67.676  1.00  0.00    -0.181 A  
BRANCH  13  16
HETATM   16  N   UNL     1      -8.036  11.098  66.962  1.00  0.00    -0.141 NA 
HETATM   17  H   UNL     1      -7.281  10.416  67.031  1.00  0.00     0.000 HD 
BRANCH  16  18
HETATM   18  N   UNL     1      -9.259  10.771  66.438  1.00  0.00    -0.166 NA 
HETATM   19  H   UNL     1     -10.107  11.185  66.824  1.00  0.00     0.000 HD 
BRANCH  18  20
HETATM   20  C   UNL     1      -9.338   9.929  65.446  1.00  0.00    -0.239 C  
HETATM   21  C   UNL     1      -9.130   8.553  65.808  1.00  0.00    -0.167 C  
HETATM   22  C   UNL     1      -9.606  10.359  64.107  1.00  0.00    -0.322 C  
HETATM   23  N   UNL     1      -9.851  10.726  63.031  1.00  0.00    -0.330 NA 
HETATM   24  N   UNL     1      -8.984   7.435  66.085  1.00  0.00    -0.164 NA 
ENDBRANCH  18  20
ENDBRANCH  16  18
ENDBRANCH  13  16
ENDBRANCH   9  10
TORSDOF 4
ENDMDL
MODEL      191
REMARK 921   NORMALIZED FREE ENERGY PREDICTED BY IDOCK:   -3.40 KCAL/MOL
REMARK 922        TOTAL FREE ENERGY PREDICTED BY IDOCK:   -4.90 KCAL/MOL
REMARK 923 INTER-LIGAND FREE ENERGY PREDICTED BY IDOCK:   -4.26 KCAL/MOL
REMARK 924 INTRA-LIGAND FREE ENERGY PREDICTED BY IDOCK:   -0.64 KCAL/MOL
REMARK 927      BINDING AFFINITY PREDICTED BY RF-SCORE:    0.00 PKD
ROOT
HETATM    1  C   UNL     1      -9.019  11.497  65.653  1.00  0.00    -0.081 C  
HETATM    2  C   UNL     1      -9.526  12.379  66.796  1.00  0.00    -0.228 C  
HETATM    3  C   UNL     1      -9.437  13.852  66.408  1.00  0.00    -0.268 C  
HETATM    4  C   UNL     1      -8.371  14.649  67.095  1.00  0.00    -0.211 C  
HETATM    5  N   UNL     1      -7.706  14.058  68.125  1.00  0.00    -0.129 N  
HETATM    6  O   UNL     1      -8.126  15.810  66.764  1.00  0.00    -0.233 OA 
HETATM    7  H   UNL     1      -6.953  14.601  68.548  1.00  0.00     0.000 HD 
HETATM    8  N   UNL     1      -7.930  12.834  68.652  1.00  0.00    -0.077 NA 
HETATM    9  C   UNL     1      -8.788  12.038  68.089  1.00  0.00    -0.182 C  
ENDROOT
BRANCH   9  10
HETATM   10  C   UNL     1      -9.043  10.714  68.757  1.00  0.00    -0.170 A  
HETATM   11  C   UNL     1     -10.327  10.175  68.852  1.00  0.00    -0.223 A  
HETATM   12  C   UNL     1     -10.541   8.983  69.556  1.00  0.00    -0.231 A  
HETATM   13  C   UNL     1      -9.488   8.301  70.180  1.00  0.00    -0.167 A  
HETATM   14  C   UNL     1      -8.202   8.844  70.079  1.00  0.00    -0.122 A  
HETATM   15  C   UNL     1      -7.979  10.034  69.367  1.00  0.00    -0.145 A  
BRANCH  13  16
HETATM   16  N   UNL     1      -9.714   7.133  70.941  1.00  0.00    -0.171 NA 
HETATM   17  H   UNL     1      -9.331   6.228  70.664  1.00  0.00     0.000 HD 
BRANCH  16  18
HETATM   18  N   UNL     1     -10.474   7.280  72.070  1.00  0.00    -0.199 NA 
HETATM   19  H   UNL     1     -10.217   7.973  72.772  1.00  0.00     0.000 HD 
BRANCH  18  20
HETATM   20  C   UNL     1     -11.527   6.532  72.248  1.00  0.00    -0.289 C  
HETATM   21  C   UNL     1     -12.728   7.030  71.634  1.00  0.00    -0.377 C  
HETATM   22  C   UNL     1     -11.475   5.317  73.002  1.00  0.00    -0.269 C  
HETATM   23  N   UNL     1     -11.406   4.319  73.596  1.00  0.00    -0.243 NA 
HETATM   24  N   UNL     1     -13.703   7.408  71.129  1.00  0.00    -0.247 NA 
ENDBRANCH  18  20
ENDBRANCH  16  18
ENDBRANCH  13  16
ENDBRANCH   9  10
TORSDOF 4
ENDMDL
MODEL      192
REMARK 921   NORMALIZED FREE ENERGY PREDICTED BY IDOCK:   -3.37 KCAL/MOL
REMARK 922        TOTAL FREE ENERGY PREDICTED BY IDOCK:   -4.87 KCAL/MOL
REMARK 923 INTER-LIGAND FREE ENERGY PREDICTED BY IDOCK:   -4.03 KCAL/MOL
REMARK 924 INTRA-LIGAND FREE ENERGY PREDICTED BY IDOCK:   -0.84 KCAL/MOL
REMARK 927      BINDING AFFINITY PREDICTED BY RF-SCORE:    0.00 PKD
ROOT
HETATM    1  C   UNL     1      -7.401   7.100  67.971  1.00  0.00    -0.097 C  
HETATM    2  C   UNL     1      -8.839   6.992  68.485  1.00  0.00    -0.124 C  
HETATM    3  C   UNL     1      -9.125   5.572  68.962  1.00  0.00    -0.131 C  
HETATM    4  C   UNL     1     -10.034   4.758  68.093  1.00  0.00    -0.087 C  
HETATM    5  N   UNL     1     -10.670   5.396  67.072  1.00  0.00    -0.344 N  
HETATM    6  O   UNL     1     -10.229   3.562  68.313  1.00  0.00     0.426 OA 
HETATM    7  H   UNL     1     -11.247   4.813  66.465  1.00  0.00     0.000 HD 
HETATM    8  N   UNL     1     -10.623   6.712  66.772  1.00  0.00    -0.263 NA 
HETATM    9  C   UNL     1      -9.815   7.493  67.423  1.00  0.00    -0.169 C  
ENDROOT
BRANCH   9  10
HETATM   10  C   UNL     1      -9.853   8.960  67.088  1.00  0.00    -0.267 A  
HETATM   11  C   UNL     1      -9.550   9.429  65.808  1.00  0.00    -0.340 A  
HETATM   12  C   UNL     1      -9.512  10.805  65.553  1.00  0.00    -0.253 A  
HETATM   13  C   UNL     1      -9.772  11.745  66.559  1.00  0.00    -0.206 A  
HETATM   14  C   UNL     1     -10.079  11.270  67.839  1.00  0.00    -0.195 A  
HETATM   15  C   UNL     1     -10.129   9.891  68.100  1.00  0.00    -0.193 A  
BRANCH  13  16
HETATM   16  N   UNL     1      -9.673  13.133  66.316  1.00  0.00    -0.291 NA 
HETATM   17  H   UNL     1     -10.483  13.691  66.044  1.00  0.00     0.000 HD 
BRANCH  16  18
HETATM   18  N   UNL     1      -8.431  13.689  66.465  1.00  0.00    -0.392 NA 
HETATM   19  H   UNL     1      -7.635  13.305  65.957  1.00  0.00     0.000 HD 
BRANCH  18  20
HETATM   20  C   UNL     1      -8.266  14.711  67.258  1.00  0.00    -0.212 C  
HETATM   21  C   UNL     1      -9.392  15.002  68.105  1.00  0.00    -0.187 C  
HETATM   22  C   UNL     1      -7.056  15.475  67.269  1.00  0.00    -0.190 C  
HETATM   23  N   UNL     1      -6.055  16.067  67.280  1.00  0.00    -0.293 NA 
HETATM   24  N   UNL     1     -10.284  15.239  68.810  1.00  0.00    -0.220 NA 
ENDBRANCH  18  20
ENDBRANCH  16  18
ENDBRANCH  13  16
ENDBRANCH   9  10
TORSDOF 4
ENDMDL
MODEL      193
REMARK 921   NORMALIZED FREE ENERGY PREDICTED BY IDOCK:   -3.37 KCAL/MOL
REMARK 922        TOTAL FREE ENERGY PREDICTED BY IDOCK:   -4.87 KCAL/MOL
REMARK 923 INTER-LIGAND FREE ENERGY PREDICTED BY IDOCK:   -4.59 KCAL/MOL
REMARK 924 INTRA-LIGAND FREE ENERGY PREDICTED BY IDOCK:   -0.28 KCAL/MOL
REMARK 927      BINDING AFFINITY PREDICTED BY RF-SCORE:    0.00 PKD
ROOT
HETATM    1  C   UNL     1      -7.166  18.175  67.948  1.00  0.00    -0.223 C  
HETATM    2  C   UNL     1      -8.213  17.860  66.876  1.00  0.00    -0.256 C  
HETATM    3  C   UNL     1      -8.736  19.149  66.252  1.00  0.00    -0.304 C  
HETATM    4  C   UNL     1     -10.136  19.537  66.621  1.00  0.00    -0.420 C  
HETATM    5  N   UNL     1     -10.879  18.632  67.314  1.00  0.00    -0.394 N  
HETATM    6  O   UNL     1     -10.611  20.621  66.279  1.00  0.00     0.065 OA 
HETATM    7  H   UNL     1     -11.812  18.934  67.594  1.00  0.00     0.000 HD 
HETATM    8  N   UNL     1     -10.522  17.379  67.673  1.00  0.00    -0.361 NA 
HETATM    9  C   UNL     1      -9.309  16.970  67.458  1.00  0.00    -0.233 C  
ENDROOT
BRANCH   9  10
HETATM   10  C   UNL     1      -8.988  15.544  67.820  1.00  0.00    -0.173 A  
HETATM   11  C   UNL     1      -7.775  14.951  67.463  1.00  0.00    -0.214 A  
HETATM   12  C   UNL     1      -7.544  13.598  67.740  1.00  0.00    -0.167 A  
HETATM   13  C   UNL     1      -8.508  12.805  68.375  1.00  0.00    -0.115 A  
HETATM   14  C   UNL     1      -9.720  13.405  68.735  1.00  0.00     0.002 A  
HETATM   15  C   UNL     1      -9.956  14.763  68.469  1.00  0.00    -0.228 A  
BRANCH  13  16
HETATM   16  N   UNL     1      -8.298  11.426  68.599  1.00  0.00    -0.211 NA 
HETATM   17  H   UNL     1      -7.532  10.919  68.154  1.00  0.00     0.000 HD 
BRANCH  16  18
HETATM   18  N   UNL     1      -9.178  10.807  69.446  1.00  0.00    -0.410 NA 
HETATM   19  H   UNL     1      -9.160  11.017  70.444  1.00  0.00     0.000 HD 
BRANCH  18  20
HETATM   20  C   UNL     1     -10.038   9.947  68.977  1.00  0.00    -0.189 C  
HETATM   21  C   UNL     1     -11.397  10.417  68.939  1.00  0.00    -0.219 C  
HETATM   22  C   UNL     1      -9.645   8.641  68.543  1.00  0.00    -0.154 C  
HETATM   23  N   UNL     1      -9.301   7.594  68.171  1.00  0.00    -0.144 NA 
HETATM   24  N   UNL     1     -12.496  10.786  68.884  1.00  0.00    -0.242 NA 
ENDBRANCH  18  20
ENDBRANCH  16  18
ENDBRANCH  13  16
ENDBRANCH   9  10
TORSDOF 4
ENDMDL
MODEL      194
REMARK 921   NORMALIZED FREE ENERGY PREDICTED BY IDOCK:   -3.34 KCAL/MOL
REMARK 922        TOTAL FREE ENERGY PREDICTED BY IDOCK:   -4.83 KCAL/MOL
REMARK 923 INTER-LIGAND FREE ENERGY PREDICTED BY IDOCK:   -4.01 KCAL/MOL
REMARK 924 INTRA-LIGAND FREE ENERGY PREDICTED BY IDOCK:   -0.82 KCAL/MOL
REMARK 927      BINDING AFFINITY PREDICTED BY RF-SCORE:    0.00 PKD
ROOT
HETATM    1  C   UNL     1      -7.110   6.714  66.632  1.00  0.00    -0.068 C  
HETATM    2  C   UNL     1      -8.223   6.681  65.580  1.00  0.00    -0.137 C  
HETATM    3  C   UNL     1      -8.123   5.410  64.743  1.00  0.00    -0.123 C  
HETATM    4  C   UNL     1      -7.647   5.588  63.333  1.00  0.00    -0.070 C  
HETATM    5  N   UNL     1      -7.528   6.859  62.863  1.00  0.00    -0.081 N  
HETATM    6  O   UNL     1      -7.406   4.619  62.612  1.00  0.00    -0.039 OA 
HETATM    7  H   UNL     1      -7.159   6.959  61.917  1.00  0.00     0.000 HD 
HETATM    8  N   UNL     1      -7.842   8.005  63.507  1.00  0.00    -0.143 NA 
HETATM    9  C   UNL     1      -8.201   7.965  64.754  1.00  0.00    -0.108 C  
ENDROOT
BRANCH   9  10
HETATM   10  C   UNL     1      -8.602   9.265  65.398  1.00  0.00    -0.178 A  
HETATM   11  C   UNL     1      -7.672  10.276  65.653  1.00  0.00    -0.148 A  
HETATM   12  C   UNL     1      -8.061  11.437  66.332  1.00  0.00    -0.106 A  
HETATM   13  C   UNL     1      -9.378  11.622  66.772  1.00  0.00    -0.186 A  
HETATM   14  C   UNL     1     -10.307  10.608  66.511  1.00  0.00    -0.299 A  
HETATM   15  C   UNL     1      -9.926   9.445  65.823  1.00  0.00    -0.278 A  
BRANCH  13  16
HETATM   16  N   UNL     1      -9.756  12.766  67.510  1.00  0.00    -0.197 NA 
HETATM   17  H   UNL     1      -9.428  12.924  68.463  1.00  0.00     0.000 HD 
BRANCH  16  18
HETATM   18  N   UNL     1     -10.586  13.651  66.876  1.00  0.00    -0.271 NA 
HETATM   19  H   UNL     1     -11.573  13.426  66.750  1.00  0.00     0.000 HD 
BRANCH  18  20
HETATM   20  C   UNL     1     -10.115  14.783  66.433  1.00  0.00    -0.280 C  
HETATM   21  C   UNL     1      -8.923  15.238  67.096  1.00  0.00    -0.209 C  
HETATM   22  C   UNL     1     -10.749  15.505  65.372  1.00  0.00    -0.405 C  
HETATM   23  N   UNL     1     -11.265  16.062  64.491  1.00  0.00    -0.545 NA 
HETATM   24  N   UNL     1      -7.949  15.611  67.607  1.00  0.00    -0.143 NA 
ENDBRANCH  18  20
ENDBRANCH  16  18
ENDBRANCH  13  16
ENDBRANCH   9  10
TORSDOF 4
ENDMDL
MODEL      195
REMARK 921   NORMALIZED FREE ENERGY PREDICTED BY IDOCK:   -3.34 KCAL/MOL
REMARK 922        TOTAL FREE ENERGY PREDICTED BY IDOCK:   -4.83 KCAL/MOL
REMARK 923 INTER-LIGAND FREE ENERGY PREDICTED BY IDOCK:   -4.09 KCAL/MOL
REMARK 924 INTRA-LIGAND FREE ENERGY PREDICTED BY IDOCK:   -0.74 KCAL/MOL
REMARK 927      BINDING AFFINITY PREDICTED BY RF-SCORE:    0.00 PKD
ROOT
HETATM    1  C   UNL     1      -6.383   7.405  67.491  1.00  0.00    -0.052 C  
HETATM    2  C   UNL     1      -7.479   6.533  66.874  1.00  0.00    -0.084 C  
HETATM    3  C   UNL     1      -7.142   5.055  67.052  1.00  0.00    -0.072 C  
HETATM    4  C   UNL     1      -6.726   4.323  65.813  1.00  0.00    -0.052 C  
HETATM    5  N   UNL     1      -6.861   4.968  64.623  1.00  0.00    -0.048 N  
HETATM    6  O   UNL     1      -6.309   3.165  65.864  1.00  0.00    -0.030 OA 
HETATM    7  H   UNL     1      -6.529   4.468  63.797  1.00  0.00     0.000 HD 
HETATM    8  N   UNL     1      -7.386   6.195  64.409  1.00  0.00    -0.064 NA 
HETATM    9  C   UNL     1      -7.717   6.938  65.421  1.00  0.00    -0.107 C  
ENDROOT
BRANCH   9  10
HETATM   10  C   UNL     1      -8.356   8.268  65.121  1.00  0.00    -0.167 A  
HETATM   11  C   UNL     1      -7.791   9.165  64.212  1.00  0.00    -0.127 A  
HETATM   12  C   UNL     1      -8.364  10.429  64.020  1.00  0.00    -0.139 A  
HETATM   13  C   UNL     1      -9.507  10.829  64.724  1.00  0.00    -0.247 A  
HETATM   14  C   UNL     1     -10.072   9.924  65.630  1.00  0.00    -0.307 A  
HETATM   15  C   UNL     1      -9.508   8.652  65.821  1.00  0.00    -0.192 A  
BRANCH  13  16
HETATM   16  N   UNL     1     -10.049  12.125  64.575  1.00  0.00    -0.365 NA 
HETATM   17  H   UNL     1     -10.431  12.450  63.686  1.00  0.00     0.000 HD 
BRANCH  16  18
HETATM   18  N   UNL     1     -10.034  12.922  65.689  1.00  0.00    -0.361 NA 
HETATM   19  H   UNL     1      -9.146  13.233  66.081  1.00  0.00     0.000 HD 
BRANCH  18  20
HETATM   20  C   UNL     1     -11.155  13.281  66.247  1.00  0.00    -0.290 C  
HETATM   21  C   UNL     1     -12.203  13.625  65.325  1.00  0.00    -0.439 C  
HETATM   22  C   UNL     1     -11.313  13.330  67.669  1.00  0.00    -0.296 C  
HETATM   23  N   UNL     1     -11.427  13.337  68.827  1.00  0.00    -0.283 NA 
HETATM   24  N   UNL     1     -13.066  13.887  64.594  1.00  0.00    -0.368 NA 
ENDBRANCH  18  20
ENDBRANCH  16  18
ENDBRANCH  13  16
ENDBRANCH   9  10
TORSDOF 4
ENDMDL
MODEL      196
REMARK 921   NORMALIZED FREE ENERGY PREDICTED BY IDOCK:   -3.33 KCAL/MOL
REMARK 922        TOTAL FREE ENERGY PREDICTED BY IDOCK:   -4.82 KCAL/MOL
REMARK 923 INTER-LIGAND FREE ENERGY PREDICTED BY IDOCK:   -4.61 KCAL/MOL
REMARK 924 INTRA-LIGAND FREE ENERGY PREDICTED BY IDOCK:   -0.20 KCAL/MOL
REMARK 927      BINDING AFFINITY PREDICTED BY RF-SCORE:    0.00 PKD
ROOT
HETATM    1  C   UNL     1     -10.751   5.826  69.758  1.00  0.00    -0.418 C  
HETATM    2  C   UNL     1      -9.876   5.102  68.731  1.00  0.00    -0.235 C  
HETATM    3  C   UNL     1      -9.313   3.816  69.328  1.00  0.00    -0.244 C  
HETATM    4  C   UNL     1      -7.850   3.824  69.647  1.00  0.00    -0.051 C  
HETATM    5  N   UNL     1      -7.115   4.885  69.213  1.00  0.00    -0.054 N  
HETATM    6  O   UNL     1      -7.320   2.889  70.249  1.00  0.00    -0.040 OA 
HETATM    7  H   UNL     1      -6.131   4.893  69.481  1.00  0.00     0.000 HD 
HETATM    8  N   UNL     1      -7.542   5.928  68.468  1.00  0.00    -0.089 NA 
HETATM    9  C   UNL     1      -8.805   6.049  68.193  1.00  0.00    -0.111 C  
ENDROOT
BRANCH   9  10
HETATM   10  C   UNL     1      -9.212   7.195  67.306  1.00  0.00    -0.145 A  
HETATM   11  C   UNL     1      -8.546   7.469  66.110  1.00  0.00    -0.159 A  
HETATM   12  C   UNL     1      -8.894   8.594  65.351  1.00  0.00    -0.198 A  
HETATM   13  C   UNL     1      -9.907   9.470  65.762  1.00  0.00    -0.293 A  
HETATM   14  C   UNL     1     -10.573   9.189  66.960  1.00  0.00    -0.266 A  
HETATM   15  C   UNL     1     -10.237   8.058  67.721  1.00  0.00    -0.282 A  
BRANCH  13  16
HETATM   16  N   UNL     1     -10.215  10.637  65.028  1.00  0.00    -0.317 NA 
HETATM   17  H   UNL     1     -10.985  10.664  64.358  1.00  0.00     0.000 HD 
BRANCH  16  18
HETATM   18  N   UNL     1      -9.426  11.731  65.265  1.00  0.00    -0.387 NA 
HETATM   19  H   UNL     1      -8.542  11.840  64.769  1.00  0.00     0.000 HD 
BRANCH  18  20
HETATM   20  C   UNL     1      -9.805  12.633  66.127  1.00  0.00    -0.259 C  
HETATM   21  C   UNL     1      -8.796  13.017  67.077  1.00  0.00    -0.212 C  
HETATM   22  C   UNL     1     -11.126  13.183  66.118  1.00  0.00    -0.282 C  
HETATM   23  N   UNL     1     -12.196  13.636  66.076  1.00  0.00    -0.434 NA 
HETATM   24  N   UNL     1      -7.988  13.353  67.840  1.00  0.00    -0.140 NA 
ENDBRANCH  18  20
ENDBRANCH  16  18
ENDBRANCH  13  16
ENDBRANCH   9  10
TORSDOF 4
ENDMDL
MODEL      197
REMARK 921   NORMALIZED FREE ENERGY PREDICTED BY IDOCK:   -3.29 KCAL/MOL
REMARK 922        TOTAL FREE ENERGY PREDICTED BY IDOCK:   -4.76 KCAL/MOL
REMARK 923 INTER-LIGAND FREE ENERGY PREDICTED BY IDOCK:   -4.16 KCAL/MOL
REMARK 924 INTRA-LIGAND FREE ENERGY PREDICTED BY IDOCK:   -0.61 KCAL/MOL
REMARK 927      BINDING AFFINITY PREDICTED BY RF-SCORE:    0.00 PKD
ROOT
HETATM    1  C   UNL     1      -7.017   6.487  66.645  1.00  0.00    -0.067 C  
HETATM    2  C   UNL     1      -8.306   6.462  65.820  1.00  0.00    -0.146 C  
HETATM    3  C   UNL     1      -8.418   5.147  65.054  1.00  0.00    -0.148 C  
HETATM    4  C   UNL     1      -8.206   5.230  63.573  1.00  0.00    -0.122 C  
HETATM    5  N   UNL     1      -8.122   6.468  63.015  1.00  0.00    -0.249 N  
HETATM    6  O   UNL     1      -8.146   4.215  62.877  1.00  0.00    -0.076 OA 
HETATM    7  H   UNL     1      -7.932   6.501  62.013  1.00  0.00     0.000 HD 
HETATM    8  N   UNL     1      -8.262   7.659  63.638  1.00  0.00    -0.026 NA 
HETATM    9  C   UNL     1      -8.384   7.700  64.930  1.00  0.00    -0.046 C  
ENDROOT
BRANCH   9  10
HETATM   10  C   UNL     1      -8.601   9.050  65.560  1.00  0.00    -0.190 A  
HETATM   11  C   UNL     1      -7.548   9.946  65.757  1.00  0.00    -0.113 A  
HETATM   12  C   UNL     1      -7.769  11.158  66.424  1.00  0.00    -0.124 A  
HETATM   13  C   UNL     1      -9.036  11.506  66.909  1.00  0.00    -0.179 A  
HETATM   14  C   UNL     1     -10.089  10.607  66.706  1.00  0.00    -0.272 A  
HETATM   15  C   UNL     1      -9.877   9.394  66.030  1.00  0.00    -0.366 A  
BRANCH  13  16
HETATM   16  N   UNL     1      -9.246  12.700  67.635  1.00  0.00    -0.184 NA 
HETATM   17  H   UNL     1      -9.006  13.614  67.249  1.00  0.00     0.000 HD 
BRANCH  16  18
HETATM   18  N   UNL     1      -9.788  12.564  68.885  1.00  0.00    -0.422 NA 
HETATM   19  H   UNL     1      -9.206  12.253  69.663  1.00  0.00     0.000 HD 
BRANCH  18  20
HETATM   20  C   UNL     1     -11.048  12.832  69.081  1.00  0.00    -0.189 C  
HETATM   21  C   UNL     1     -11.531  13.992  68.382  1.00  0.00    -0.306 C  
HETATM   22  C   UNL     1     -11.871  12.028  69.932  1.00  0.00    -0.331 C  
HETATM   23  N   UNL     1     -12.529  11.346  70.606  1.00  0.00    -0.340 NA 
HETATM   24  N   UNL     1     -11.943  14.916  67.810  1.00  0.00    -0.258 NA 
ENDBRANCH  18  20
ENDBRANCH  16  18
ENDBRANCH  13  16
ENDBRANCH   9  10
TORSDOF 4
ENDMDL
MODEL      198
REMARK 921   NORMALIZED FREE ENERGY PREDICTED BY IDOCK:   -3.28 KCAL/MOL
REMARK 922        TOTAL FREE ENERGY PREDICTED BY IDOCK:   -4.76 KCAL/MOL
REMARK 923 INTER-LIGAND FREE ENERGY PREDICTED BY IDOCK:   -6.04 KCAL/MOL
REMARK 924 INTRA-LIGAND FREE ENERGY PREDICTED BY IDOCK:    1.28 KCAL/MOL
REMARK 927      BINDING AFFINITY PREDICTED BY RF-SCORE:    0.00 PKD
ROOT
HETATM    1  C   UNL     1      -5.871  16.859  68.023  1.00  0.00    -0.126 C  
HETATM    2  C   UNL     1      -6.838  16.332  69.086  1.00  0.00    -0.202 C  
HETATM    3  C   UNL     1      -6.106  16.113  70.406  1.00  0.00     0.072 C  
HETATM    4  C   UNL     1      -5.875  14.686  70.800  1.00  0.00    -0.159 C  
HETATM    5  N   UNL     1      -6.490  13.721  70.063  1.00  0.00    -0.331 N  
HETATM    6  O   UNL     1      -5.183  14.395  71.776  1.00  0.00    -0.149 OA 
HETATM    7  H   UNL     1      -6.282  12.755  70.321  1.00  0.00     0.000 HD 
HETATM    8  N   UNL     1      -7.344  13.895  69.031  1.00  0.00    -0.092 NA 
HETATM    9  C   UNL     1      -7.560  15.090  68.569  1.00  0.00    -0.118 C  
ENDROOT
BRANCH   9  10
HETATM   10  C   UNL     1      -8.569  15.229  67.462  1.00  0.00    -0.190 A  
HETATM   11  C   UNL     1      -8.709  14.257  66.469  1.00  0.00    -0.011 A  
HETATM   12  C   UNL     1      -9.598  14.458  65.405  1.00  0.00    -0.005 A  
HETATM   13  C   UNL     1     -10.365  15.625  65.302  1.00  0.00    -0.375 A  
HETATM   14  C   UNL     1     -10.224  16.595  66.302  1.00  0.00    -0.344 A  
HETATM   15  C   UNL     1      -9.342  16.396  67.376  1.00  0.00    -0.223 A  
BRANCH  13  16
HETATM   16  N   UNL     1     -11.215  15.854  64.198  1.00  0.00    -1.005 NA 
HETATM   17  H   UNL     1     -10.994  16.548  63.483  1.00  0.00     0.000 HD 
BRANCH  16  18
HETATM   18  N   UNL     1     -12.353  15.094  64.138  1.00  0.00    -0.877 NA 
HETATM   19  H   UNL     1     -13.155  15.418  63.597  1.00  0.00     0.000 HD 
BRANCH  18  20
HETATM   20  C   UNL     1     -12.411  13.958  64.774  1.00  0.00    -0.354 C  
HETATM   21  C   UNL     1     -12.473  12.798  63.927  1.00  0.00    -0.367 C  
HETATM   22  C   UNL     1     -12.418  13.889  66.204  1.00  0.00    -0.436 C  
HETATM   23  N   UNL     1     -12.395  13.853  67.366  1.00  0.00    -0.234 NA 
HETATM   24  N   UNL     1     -12.505  11.849  63.258  1.00  0.00    -0.519 NA 
ENDBRANCH  18  20
ENDBRANCH  16  18
ENDBRANCH  13  16
ENDBRANCH   9  10
TORSDOF 4
ENDMDL
MODEL      199
REMARK 921   NORMALIZED FREE ENERGY PREDICTED BY IDOCK:   -3.24 KCAL/MOL
REMARK 922        TOTAL FREE ENERGY PREDICTED BY IDOCK:   -4.70 KCAL/MOL
REMARK 923 INTER-LIGAND FREE ENERGY PREDICTED BY IDOCK:   -4.36 KCAL/MOL
REMARK 924 INTRA-LIGAND FREE ENERGY PREDICTED BY IDOCK:   -0.34 KCAL/MOL
REMARK 927      BINDING AFFINITY PREDICTED BY RF-SCORE:    0.00 PKD
ROOT
HETATM    1  C   UNL     1     -10.895   6.834  71.065  1.00  0.00    -0.280 C  
HETATM    2  C   UNL     1     -11.016   8.270  71.582  1.00  0.00    -0.327 C  
HETATM    3  C   UNL     1     -12.130   8.368  72.619  1.00  0.00    -0.324 C  
HETATM    4  C   UNL     1     -13.373   9.081  72.183  1.00  0.00    -0.455 C  
HETATM    5  N   UNL     1     -13.340   9.736  70.990  1.00  0.00    -0.550 N  
HETATM    6  O   UNL     1     -14.380   9.105  72.892  1.00  0.00    -0.519 OA 
HETATM    7  H   UNL     1     -14.210  10.175  70.691  1.00  0.00     0.000 HD 
HETATM    8  N   UNL     1     -12.284   9.871  70.158  1.00  0.00    -0.053 NA 
HETATM    9  C   UNL     1     -11.179   9.238  70.412  1.00  0.00    -0.247 C  
ENDROOT
BRANCH   9  10
HETATM   10  C   UNL     1     -10.018   9.477  69.485  1.00  0.00    -0.205 A  
HETATM   11  C   UNL     1     -10.081  10.420  68.457  1.00  0.00    -0.186 A  
HETATM   12  C   UNL     1      -9.015  10.558  67.559  1.00  0.00    -0.137 A  
HETATM   13  C   UNL     1      -7.865   9.764  67.660  1.00  0.00    -0.095 A  
HETATM   14  C   UNL     1      -7.805   8.823  68.694  1.00  0.00    -0.103 A  
HETATM   15  C   UNL     1      -8.866   8.686  69.604  1.00  0.00    -0.137 A  
BRANCH  13  16
HETATM   16  N   UNL     1      -6.817   9.861  66.719  1.00  0.00    -0.082 NA 
HETATM   17  H   UNL     1      -6.291  10.725  66.585  1.00  0.00     0.000 HD 
BRANCH  16  18
HETATM   18  N   UNL     1      -6.544   8.731  65.995  1.00  0.00    -0.057 NA 
HETATM   19  H   UNL     1      -5.692   8.201  66.177  1.00  0.00     0.000 HD 
BRANCH  18  20
HETATM   20  C   UNL     1      -7.374   8.333  65.072  1.00  0.00    -0.086 C  
HETATM   21  C   UNL     1      -7.930   7.024  65.287  1.00  0.00    -0.127 C  
HETATM   22  C   UNL     1      -7.691   9.144  63.936  1.00  0.00    -0.122 C  
HETATM   23  N   UNL     1      -7.956   9.830  63.035  1.00  0.00    -0.131 NA 
HETATM   24  N   UNL     1      -8.403   5.977  65.456  1.00  0.00    -0.142 NA 
ENDBRANCH  18  20
ENDBRANCH  16  18
ENDBRANCH  13  16
ENDBRANCH   9  10
TORSDOF 4
ENDMDL
MODEL      200
REMARK 921   NORMALIZED FREE ENERGY PREDICTED BY IDOCK:   -3.22 KCAL/MOL
REMARK 922        TOTAL FREE ENERGY PREDICTED BY IDOCK:   -4.68 KCAL/MOL
REMARK 923 INTER-LIGAND FREE ENERGY PREDICTED BY IDOCK:   -3.92 KCAL/MOL
REMARK 924 INTRA-LIGAND FREE ENERGY PREDICTED BY IDOCK:   -0.76 KCAL/MOL
REMARK 927      BINDING AFFINITY PREDICTED BY RF-SCORE:    0.00 PKD
ROOT
HETATM    1  C   UNL     1     -10.832   7.710  70.471  1.00  0.00    -0.249 C  
HETATM    2  C   UNL     1     -10.578   9.219  70.425  1.00  0.00    -0.298 C  
HETATM    3  C   UNL     1     -11.421   9.931  71.477  1.00  0.00    -0.322 C  
HETATM    4  C   UNL     1     -12.573  10.738  70.960  1.00  0.00    -0.420 C  
HETATM    5  N   UNL     1     -12.660  10.923  69.615  1.00  0.00    -0.382 N  
HETATM    6  O   UNL     1     -13.393  11.246  71.725  1.00  0.00    -0.391 OA 
HETATM    7  H   UNL     1     -13.477  11.436  69.281  1.00  0.00     0.000 HD 
HETATM    8  N   UNL     1     -11.789  10.505  68.671  1.00  0.00    -0.313 NA 
HETATM    9  C   UNL     1     -10.792   9.743  69.006  1.00  0.00    -0.199 C  
ENDROOT
BRANCH   9  10
HETATM   10  C   UNL     1      -9.819   9.363  67.923  1.00  0.00    -0.197 A  
HETATM   11  C   UNL     1     -10.201   8.576  66.835  1.00  0.00    -0.375 A  
HETATM   12  C   UNL     1      -9.251   8.169  65.890  1.00  0.00    -0.158 A  
HETATM   13  C   UNL     1      -7.903   8.533  66.004  1.00  0.00    -0.098 A  
HETATM   14  C   UNL     1      -7.525   9.325  67.094  1.00  0.00    -0.091 A  
HETATM   15  C   UNL     1      -8.474   9.745  68.040  1.00  0.00    -0.118 A  
BRANCH  13  16
HETATM   16  N   UNL     1      -6.935   8.072  65.085  1.00  0.00    -0.062 NA 
HETATM   17  H   UNL     1      -6.876   8.439  64.134  1.00  0.00     0.000 HD 
BRANCH  16  18
HETATM   18  N   UNL     1      -6.077   7.105  65.539  1.00  0.00    -0.036 NA 
HETATM   19  H   UNL     1      -5.169   7.367  65.921  1.00  0.00     0.000 HD 
BRANCH  18  20
HETATM   20  C   UNL     1      -6.423   5.850  65.482  1.00  0.00    -0.043 C  
HETATM   21  C   UNL     1      -6.371   5.155  66.740  1.00  0.00    -0.040 C  
HETATM   22  C   UNL     1      -6.816   5.226  64.255  1.00  0.00    -0.048 C  
HETATM   23  N   UNL     1      -7.157   4.745  63.252  1.00  0.00    -0.046 NA 
HETATM   24  N   UNL     1      -6.353   4.583  67.750  1.00  0.00    -0.036 NA 
ENDBRANCH  18  20
ENDBRANCH  16  18
ENDBRANCH  13  16
ENDBRANCH   9  10
TORSDOF 4
ENDMDL
MODEL      201
REMARK 921   NORMALIZED FREE ENERGY PREDICTED BY IDOCK:   -3.20 KCAL/MOL
REMARK 922        TOTAL FREE ENERGY PREDICTED BY IDOCK:   -4.66 KCAL/MOL
REMARK 923 INTER-LIGAND FREE ENERGY PREDICTED BY IDOCK:   -4.18 KCAL/MOL
REMARK 924 INTRA-LIGAND FREE ENERGY PREDICTED BY IDOCK:   -0.48 KCAL/MOL
REMARK 927      BINDING AFFINITY PREDICTED BY RF-SCORE:    0.00 PKD
ROOT
HETATM    1  C   UNL     1     -10.040  10.268  64.898  1.00  0.00    -0.346 C  
HETATM    2  C   UNL     1     -10.905  10.938  65.969  1.00  0.00    -0.155 C  
HETATM    3  C   UNL     1     -11.353  12.319  65.501  1.00  0.00    -0.394 C  
HETATM    4  C   UNL     1     -10.703  13.486  66.179  1.00  0.00    -0.289 C  
HETATM    5  N   UNL     1      -9.924  13.231  67.265  1.00  0.00    -0.228 N  
HETATM    6  O   UNL     1     -10.894  14.639  65.791  1.00  0.00    -0.302 OA 
HETATM    7  H   UNL     1      -9.455  14.035  67.683  1.00  0.00     0.000 HD 
HETATM    8  N   UNL     1      -9.702  12.035  67.853  1.00  0.00    -0.189 NA 
HETATM    9  C   UNL     1     -10.166  10.953  67.306  1.00  0.00    -0.205 C  
ENDROOT
BRANCH   9  10
HETATM   10  C   UNL     1      -9.942   9.658  68.040  1.00  0.00    -0.190 A  
HETATM   11  C   UNL     1     -10.828   9.207  69.021  1.00  0.00    -0.115 A  
HETATM   12  C   UNL     1     -10.545   8.042  69.745  1.00  0.00    -0.238 A  
HETATM   13  C   UNL     1      -9.380   7.300  69.513  1.00  0.00    -0.152 A  
HETATM   14  C   UNL     1      -8.497   7.754  68.526  1.00  0.00    -0.129 A  
HETATM   15  C   UNL     1      -8.778   8.916  67.790  1.00  0.00    -0.125 A  
BRANCH  13  16
HETATM   16  N   UNL     1      -9.065   6.160  70.285  1.00  0.00    -0.152 NA 
HETATM   17  H   UNL     1      -9.519   5.260  70.126  1.00  0.00     0.000 HD 
BRANCH  16  18
HETATM   18  N   UNL     1      -8.117   6.328  71.259  1.00  0.00    -0.116 NA 
HETATM   19  H   UNL     1      -7.218   5.852  71.183  1.00  0.00     0.000 HD 
BRANCH  18  20
HETATM   20  C   UNL     1      -8.364   7.095  72.283  1.00  0.00    -0.109 C  
HETATM   21  C   UNL     1      -7.569   8.292  72.343  1.00  0.00    -0.120 C  
HETATM   22  C   UNL     1      -9.350   6.756  73.264  1.00  0.00    -0.136 C  
HETATM   23  N   UNL     1     -10.173   6.475  74.036  1.00  0.00    -0.326 NA 
HETATM   24  N   UNL     1      -6.949   9.272  72.396  1.00  0.00    -0.164 NA 
ENDBRANCH  18  20
ENDBRANCH  16  18
ENDBRANCH  13  16
ENDBRANCH   9  10
TORSDOF 4
ENDMDL
MODEL      202
REMARK 921   NORMALIZED FREE ENERGY PREDICTED BY IDOCK:   -3.16 KCAL/MOL
REMARK 922        TOTAL FREE ENERGY PREDICTED BY IDOCK:   -4.60 KCAL/MOL
REMARK 923 INTER-LIGAND FREE ENERGY PREDICTED BY IDOCK:   -3.83 KCAL/MOL
REMARK 924 INTRA-LIGAND FREE ENERGY PREDICTED BY IDOCK:   -0.77 KCAL/MOL
REMARK 927      BINDING AFFINITY PREDICTED BY RF-SCORE:    0.00 PKD
ROOT
HETATM    1  C   UNL     1     -10.221   9.317  66.521  1.00  0.00    -0.316 C  
HETATM    2  C   UNL     1      -8.908   8.531  66.538  1.00  0.00    -0.165 C  
HETATM    3  C   UNL     1      -8.238   8.588  65.168  1.00  0.00    -0.153 C  
HETATM    4  C   UNL     1      -8.265   7.320  64.371  1.00  0.00     0.010 C  
HETATM    5  N   UNL     1      -8.704   6.192  64.992  1.00  0.00    -0.353 N  
HETATM    6  O   UNL     1      -7.871   7.289  63.204  1.00  0.00    -0.122 OA 
HETATM    7  H   UNL     1      -8.758   5.351  64.418  1.00  0.00     0.000 HD 
HETATM    8  N   UNL     1      -9.077   6.060  66.285  1.00  0.00    -0.149 NA 
HETATM    9  C   UNL     1      -9.152   7.111  67.044  1.00  0.00    -0.134 C  
ENDROOT
BRANCH   9  10
HETATM   10  C   UNL     1      -9.510   6.893  68.489  1.00  0.00    -0.133 A  
HETATM   11  C   UNL     1      -8.939   7.656  69.510  1.00  0.00    -0.139 A  
HETATM   12  C   UNL     1      -9.228   7.370  70.850  1.00  0.00    -0.154 A  
HETATM   13  C   UNL     1     -10.089   6.324  71.207  1.00  0.00    -0.189 A  
HETATM   14  C   UNL     1     -10.663   5.565  70.180  1.00  0.00    -0.348 A  
HETATM   15  C   UNL     1     -10.384   5.852  68.834  1.00  0.00    -0.290 A  
BRANCH  13  16
HETATM   16  N   UNL     1     -10.333   5.998  72.559  1.00  0.00    -0.190 NA 
HETATM   17  H   UNL     1      -9.929   6.538  73.325  1.00  0.00     0.000 HD 
BRANCH  16  18
HETATM   18  N   UNL     1     -11.143   4.917  72.787  1.00  0.00    -0.230 NA 
HETATM   19  H   UNL     1     -12.110   4.926  72.463  1.00  0.00     0.000 HD 
BRANCH  18  20
HETATM   20  C   UNL     1     -10.677   3.877  73.420  1.00  0.00    -0.208 C  
HETATM   21  C   UNL     1      -9.392   4.073  74.034  1.00  0.00    -0.098 C  
HETATM   22  C   UNL     1     -11.400   2.642  73.485  1.00  0.00    -0.180 C  
HETATM   23  N   UNL     1     -12.014   1.657  73.547  1.00  0.00    -0.203 NA 
HETATM   24  N   UNL     1      -8.363   4.220  74.553  1.00  0.00    -0.090 NA 
ENDBRANCH  18  20
ENDBRANCH  16  18
ENDBRANCH  13  16
ENDBRANCH   9  10
TORSDOF 4
ENDMDL
MODEL      203
REMARK 921   NORMALIZED FREE ENERGY PREDICTED BY IDOCK:   -3.14 KCAL/MOL
REMARK 922        TOTAL FREE ENERGY PREDICTED BY IDOCK:   -4.58 KCAL/MOL
REMARK 923 INTER-LIGAND FREE ENERGY PREDICTED BY IDOCK:   -4.33 KCAL/MOL
REMARK 924 INTRA-LIGAND FREE ENERGY PREDICTED BY IDOCK:   -0.25 KCAL/MOL
REMARK 927      BINDING AFFINITY PREDICTED BY RF-SCORE:    0.00 PKD
ROOT
HETATM    1  C   UNL     1     -12.929  13.356  71.444  1.00  0.00    -0.412 C  
HETATM    2  C   UNL     1     -11.661  14.187  71.232  1.00  0.00     0.205 C  
HETATM    3  C   UNL     1     -11.394  15.066  72.449  1.00  0.00    -0.146 C  
HETATM    4  C   UNL     1     -11.638  16.532  72.267  1.00  0.00    -0.130 C  
HETATM    5  N   UNL     1     -11.889  16.979  71.007  1.00  0.00     0.539 N  
HETATM    6  O   UNL     1     -11.579  17.314  73.217  1.00  0.00     0.080 OA 
HETATM    7  H   UNL     1     -12.098  17.973  70.912  1.00  0.00     0.000 HD 
HETATM    8  N   UNL     1     -11.893  16.255  69.865  1.00  0.00    -0.093 NA 
HETATM    9  C   UNL     1     -11.757  14.965  69.921  1.00  0.00    -0.305 C  
ENDROOT
BRANCH   9  10
HETATM   10  C   UNL     1     -11.704  14.220  68.614  1.00  0.00    -0.380 A  
HETATM   11  C   UNL     1     -11.794  12.828  68.559  1.00  0.00    -0.345 A  
HETATM   12  C   UNL     1     -11.655  12.160  67.335  1.00  0.00    -0.410 A  
HETATM   13  C   UNL     1     -11.424  12.857  66.142  1.00  0.00    -0.348 A  
HETATM   14  C   UNL     1     -11.339  14.253  66.203  1.00  0.00    -0.342 A  
HETATM   15  C   UNL     1     -11.486  14.930  67.424  1.00  0.00    -0.354 A  
BRANCH  13  16
HETATM   16  N   UNL     1     -11.224  12.181  64.919  1.00  0.00    -0.316 NA 
HETATM   17  H   UNL     1     -12.005  11.867  64.343  1.00  0.00     0.000 HD 
BRANCH  16  18
HETATM   18  N   UNL     1      -9.923  11.969  64.548  1.00  0.00    -0.378 NA 
HETATM   19  H   UNL     1      -9.319  12.761  64.327  1.00  0.00     0.000 HD 
BRANCH  18  20
HETATM   20  C   UNL     1      -9.455  10.755  64.475  1.00  0.00    -0.252 C  
HETATM   21  C   UNL     1      -8.666  10.483  63.304  1.00  0.00    -0.195 C  
HETATM   22  C   UNL     1      -9.721   9.778  65.488  1.00  0.00    -0.312 C  
HETATM   23  N   UNL     1      -9.927   9.008  66.334  1.00  0.00    -0.294 NA 
HETATM   24  N   UNL     1      -8.010  10.253  62.374  1.00  0.00    -0.138 NA 
ENDBRANCH  18  20
ENDBRANCH  16  18
ENDBRANCH  13  16
ENDBRANCH   9  10
TORSDOF 4
ENDMDL
MODEL      204
REMARK 921   NORMALIZED FREE ENERGY PREDICTED BY IDOCK:   -3.08 KCAL/MOL
REMARK 922        TOTAL FREE ENERGY PREDICTED BY IDOCK:   -4.51 KCAL/MOL
REMARK 923 INTER-LIGAND FREE ENERGY PREDICTED BY IDOCK:   -4.35 KCAL/MOL
REMARK 924 INTRA-LIGAND FREE ENERGY PREDICTED BY IDOCK:   -0.16 KCAL/MOL
REMARK 927      BINDING AFFINITY PREDICTED BY RF-SCORE:    0.00 PKD
ROOT
HETATM    1  C   UNL     1     -10.499  10.845  65.657  1.00  0.00    -0.274 C  
HETATM    2  C   UNL     1      -9.033  10.406  65.663  1.00  0.00    -0.198 C  
HETATM    3  C   UNL     1      -8.419  10.589  64.279  1.00  0.00    -0.128 C  
HETATM    4  C   UNL     1      -8.146   9.333  63.510  1.00  0.00    -0.154 C  
HETATM    5  N   UNL     1      -8.284   8.149  64.166  1.00  0.00    -0.315 N  
HETATM    6  O   UNL     1      -7.774   9.368  62.336  1.00  0.00    -0.112 OA 
HETATM    7  H   UNL     1      -8.138   7.305  63.612  1.00  0.00     0.000 HD 
HETATM    8  N   UNL     1      -8.593   7.964  65.469  1.00  0.00    -0.142 NA 
HETATM    9  C   UNL     1      -8.912   8.984  66.206  1.00  0.00    -0.162 C  
ENDROOT
BRANCH   9  10
HETATM   10  C   UNL     1      -9.183   8.724  67.663  1.00  0.00    -0.148 A  
HETATM   11  C   UNL     1     -10.396   9.077  68.259  1.00  0.00    -0.252 A  
HETATM   12  C   UNL     1     -10.583   8.900  69.636  1.00  0.00    -0.230 A  
HETATM   13  C   UNL     1      -9.574   8.370  70.450  1.00  0.00    -0.169 A  
HETATM   14  C   UNL     1      -8.362   8.014  69.848  1.00  0.00    -0.121 A  
HETATM   15  C   UNL     1      -8.170   8.180  68.467  1.00  0.00    -0.125 A  
BRANCH  13  16
HETATM   16  N   UNL     1      -9.742   8.249  71.848  1.00  0.00    -0.207 NA 
HETATM   17  H   UNL     1      -9.030   7.819  72.439  1.00  0.00     0.000 HD 
BRANCH  16  18
HETATM   18  N   UNL     1     -10.911   8.740  72.365  1.00  0.00    -0.258 NA 
HETATM   19  H   UNL     1     -10.988   9.729  72.602  1.00  0.00     0.000 HD 
BRANCH  18  20
HETATM   20  C   UNL     1     -11.924   7.943  72.555  1.00  0.00    -0.295 C  
HETATM   21  C   UNL     1     -13.193   8.606  72.688  1.00  0.00    -0.219 C  
HETATM   22  C   UNL     1     -11.769   6.522  72.627  1.00  0.00    -0.091 C  
HETATM   23  N   UNL     1     -11.624   5.368  72.656  1.00  0.00    -0.259 NA 
HETATM   24  N   UNL     1     -14.229   9.124  72.779  1.00  0.00    -0.490 NA 
ENDBRANCH  18  20
ENDBRANCH  16  18
ENDBRANCH  13  16
ENDBRANCH   9  10
TORSDOF 4
ENDMDL
MODEL      205
REMARK 921   NORMALIZED FREE ENERGY PREDICTED BY IDOCK:   -3.07 KCAL/MOL
REMARK 922        TOTAL FREE ENERGY PREDICTED BY IDOCK:   -4.50 KCAL/MOL
REMARK 923 INTER-LIGAND FREE ENERGY PREDICTED BY IDOCK:   -4.37 KCAL/MOL
REMARK 924 INTRA-LIGAND FREE ENERGY PREDICTED BY IDOCK:   -0.13 KCAL/MOL
REMARK 927      BINDING AFFINITY PREDICTED BY RF-SCORE:    0.00 PKD
ROOT
HETATM    1  C   UNL     1     -12.331  13.611  70.021  1.00  0.00    -0.342 C  
HETATM    2  C   UNL     1     -10.998  13.948  69.347  1.00  0.00    -0.169 C  
HETATM    3  C   UNL     1     -10.833  15.460  69.226  1.00  0.00    -0.253 C  
HETATM    4  C   UNL     1     -10.963  16.027  67.846  1.00  0.00    -0.327 C  
HETATM    5  N   UNL     1     -11.026  15.150  66.807  1.00  0.00    -0.321 N  
HETATM    6  O   UNL     1     -10.977  17.243  67.651  1.00  0.00    -0.286 OA 
HETATM    7  H   UNL     1     -11.161  15.556  65.881  1.00  0.00     0.000 HD 
HETATM    8  N   UNL     1     -10.931  13.803  66.863  1.00  0.00    -0.288 NA 
HETATM    9  C   UNL     1     -10.881  13.209  68.016  1.00  0.00    -0.242 C  
ENDROOT
BRANCH   9  10
HETATM   10  C   UNL     1     -10.710  11.713  68.015  1.00  0.00    -0.246 A  
HETATM   11  C   UNL     1     -11.042  10.935  69.125  1.00  0.00    -0.301 A  
HETATM   12  C   UNL     1     -10.789   9.558  69.122  1.00  0.00    -0.194 A  
HETATM   13  C   UNL     1     -10.204   8.923  68.019  1.00  0.00    -0.213 A  
HETATM   14  C   UNL     1      -9.877   9.706  66.907  1.00  0.00    -0.257 A  
HETATM   15  C   UNL     1     -10.135  11.087  66.899  1.00  0.00    -0.248 A  
BRANCH  13  16
HETATM   16  N   UNL     1      -9.894   7.545  68.040  1.00  0.00    -0.147 NA 
HETATM   17  H   UNL     1     -10.595   6.832  67.834  1.00  0.00     0.000 HD 
BRANCH  16  18
HETATM   18  N   UNL     1      -8.601   7.217  68.350  1.00  0.00    -0.124 NA 
HETATM   19  H   UNL     1      -8.271   7.298  69.312  1.00  0.00     0.000 HD 
BRANCH  18  20
HETATM   20  C   UNL     1      -7.792   6.802  67.417  1.00  0.00    -0.110 C  
HETATM   21  C   UNL     1      -7.717   5.373  67.278  1.00  0.00    -0.096 C  
HETATM   22  C   UNL     1      -7.041   7.711  66.605  1.00  0.00    -0.079 C  
HETATM   23  N   UNL     1      -6.460   8.467  65.940  1.00  0.00    -0.053 NA 
HETATM   24  N   UNL     1      -7.659   4.221  67.139  1.00  0.00    -0.077 NA 
ENDBRANCH  18  20
ENDBRANCH  16  18
ENDBRANCH  13  16
ENDBRANCH   9  10
TORSDOF 4
ENDMDL
MODEL      206
REMARK 921   NORMALIZED FREE ENERGY PREDICTED BY IDOCK:   -3.02 KCAL/MOL
REMARK 922        TOTAL FREE ENERGY PREDICTED BY IDOCK:   -4.44 KCAL/MOL
REMARK 923 INTER-LIGAND FREE ENERGY PREDICTED BY IDOCK:   -3.90 KCAL/MOL
REMARK 924 INTRA-LIGAND FREE ENERGY PREDICTED BY IDOCK:   -0.53 KCAL/MOL
REMARK 927      BINDING AFFINITY PREDICTED BY RF-SCORE:    0.00 PKD
ROOT
HETATM    1  C   UNL     1     -11.068  14.321  65.870  1.00  0.00    -0.310 C  
HETATM    2  C   UNL     1     -11.098  14.149  67.391  1.00  0.00    -0.318 C  
HETATM    3  C   UNL     1     -11.363  15.488  68.070  1.00  0.00    -0.332 C  
HETATM    4  C   UNL     1     -10.199  16.104  68.786  1.00  0.00    -0.238 C  
HETATM    5  N   UNL     1      -9.077  15.348  68.932  1.00  0.00    -0.202 N  
HETATM    6  O   UNL     1     -10.265  17.240  69.257  1.00  0.00    -0.296 OA 
HETATM    7  H   UNL     1      -8.282  15.802  69.381  1.00  0.00     0.000 HD 
HETATM    8  N   UNL     1      -8.897  14.064  68.551  1.00  0.00    -0.183 NA 
HETATM    9  C   UNL     1      -9.820  13.460  67.866  1.00  0.00    -0.237 C  
ENDROOT
BRANCH   9  10
HETATM   10  C   UNL     1      -9.591  12.012  67.525  1.00  0.00    -0.177 A  
HETATM   11  C   UNL     1      -8.915  11.628  66.366  1.00  0.00    -0.198 A  
HETATM   12  C   UNL     1      -8.794  10.273  66.036  1.00  0.00    -0.166 A  
HETATM   13  C   UNL     1      -9.340   9.270  66.847  1.00  0.00    -0.151 A  
HETATM   14  C   UNL     1     -10.014   9.659  68.010  1.00  0.00    -0.190 A  
HETATM   15  C   UNL     1     -10.131  11.016  68.352  1.00  0.00    -0.194 A  
BRANCH  13  16
HETATM   16  N   UNL     1      -9.271   7.907  66.482  1.00  0.00    -0.181 NA 
HETATM   17  H   UNL     1     -10.045   7.264  66.655  1.00  0.00     0.000 HD 
BRANCH  16  18
HETATM   18  N   UNL     1      -8.110   7.496  65.884  1.00  0.00    -0.119 NA 
HETATM   19  H   UNL     1      -7.444   8.185  65.535  1.00  0.00     0.000 HD 
BRANCH  18  20
HETATM   20  C   UNL     1      -7.857   6.223  65.759  1.00  0.00    -0.103 C  
HETATM   21  C   UNL     1      -6.876   5.901  64.758  1.00  0.00    -0.047 C  
HETATM   22  C   UNL     1      -8.517   5.237  66.560  1.00  0.00    -0.112 C  
HETATM   23  N   UNL     1      -9.045   4.454  67.239  1.00  0.00    -0.124 NA 
HETATM   24  N   UNL     1      -6.072   5.624  63.968  1.00  0.00    -0.024 NA 
ENDBRANCH  18  20
ENDBRANCH  16  18
ENDBRANCH  13  16
ENDBRANCH   9  10
TORSDOF 4
ENDMDL
MODEL      207
REMARK 921   NORMALIZED FREE ENERGY PREDICTED BY IDOCK:   -2.58 KCAL/MOL
REMARK 922        TOTAL FREE ENERGY PREDICTED BY IDOCK:   -3.89 KCAL/MOL
REMARK 923 INTER-LIGAND FREE ENERGY PREDICTED BY IDOCK:   -3.24 KCAL/MOL
REMARK 924 INTRA-LIGAND FREE ENERGY PREDICTED BY IDOCK:   -0.65 KCAL/MOL
REMARK 927      BINDING AFFINITY PREDICTED BY RF-SCORE:    0.00 PKD
ROOT
HETATM    1  C   UNL     1      -9.635   7.497  72.610  1.00  0.00    -0.220 C  
HETATM    2  C   UNL     1      -9.971   7.038  71.189  1.00  0.00    -0.191 C  
HETATM    3  C   UNL     1     -10.566   5.634  71.213  1.00  0.00    -0.321 C  
HETATM    4  C   UNL     1      -9.687   4.538  70.693  1.00  0.00    -0.212 C  
HETATM    5  N   UNL     1      -8.528   4.897  70.078  1.00  0.00    -0.082 N  
HETATM    6  O   UNL     1     -10.016   3.354  70.786  1.00  0.00    -0.095 OA 
HETATM    7  H   UNL     1      -7.923   4.134  69.772  1.00  0.00     0.000 HD 
HETATM    8  N   UNL     1      -8.087   6.149  69.825  1.00  0.00    -0.116 NA 
HETATM    9  C   UNL     1      -8.742   7.169  70.291  1.00  0.00    -0.144 C  
ENDROOT
BRANCH   9  10
HETATM   10  C   UNL     1      -8.240   8.539  69.923  1.00  0.00    -0.121 A  
HETATM   11  C   UNL     1      -9.104   9.546  69.490  1.00  0.00    -0.193 A  
HETATM   12  C   UNL     1      -8.594  10.782  69.073  1.00  0.00    -0.143 A  
HETATM   13  C   UNL     1      -7.218  11.046  69.076  1.00  0.00    -0.111 A  
HETATM   14  C   UNL     1      -6.356  10.034  69.515  1.00  0.00    -0.049 A  
HETATM   15  C   UNL     1      -6.861   8.796  69.943  1.00  0.00    -0.042 A  
BRANCH  13  16
HETATM   16  N   UNL     1      -6.700  12.270  68.598  1.00  0.00    -0.076 NA 
HETATM   17  H   UNL     1      -5.997  12.305  67.859  1.00  0.00     0.000 HD 
BRANCH  16  18
HETATM   18  N   UNL     1      -7.193  13.407  69.181  1.00  0.00    -0.289 NA 
HETATM   19  H   UNL     1      -7.453  13.404  70.167  1.00  0.00     0.000 HD 
BRANCH  18  20
HETATM   20  C   UNL     1      -7.330  14.494  68.474  1.00  0.00    -0.120 C  
HETATM   21  C   UNL     1      -8.339  14.422  67.452  1.00  0.00    -0.201 C  
HETATM   22  C   UNL     1      -6.527  15.656  68.707  1.00  0.00    -0.109 C  
HETATM   23  N   UNL     1      -5.883  16.598  68.929  1.00  0.00    -0.139 NA 
HETATM   24  N   UNL     1      -9.163  14.389  66.634  1.00  0.00    -0.266 NA 
ENDBRANCH  18  20
ENDBRANCH  16  18
ENDBRANCH  13  16
ENDBRANCH   9  10
TORSDOF 4
ENDMDL
MODEL      208
REMARK 921   NORMALIZED FREE ENERGY PREDICTED BY IDOCK:   -2.35 KCAL/MOL
REMARK 922        TOTAL FREE ENERGY PREDICTED BY IDOCK:   -3.61 KCAL/MOL
REMARK 923 INTER-LIGAND FREE ENERGY PREDICTED BY IDOCK:   -3.66 KCAL/MOL
REMARK 924 INTRA-LIGAND FREE ENERGY PREDICTED BY IDOCK:    0.05 KCAL/MOL
REMARK 927      BINDING AFFINITY PREDICTED BY RF-SCORE:    0.00 PKD
ROOT
HETATM    1  C   UNL     1     -11.518  12.079  68.172  1.00  0.00    -0.383 C  
HETATM    2  C   UNL     1     -11.873  10.653  68.601  1.00  0.00    -0.135 C  
HETATM    3  C   UNL     1     -12.761  10.678  69.841  1.00  0.00    -0.081 C  
HETATM    4  C   UNL     1     -12.116  10.238  71.120  1.00  0.00    -0.395 C  
HETATM    5  N   UNL     1     -10.876   9.682  71.043  1.00  0.00    -0.335 N  
HETATM    6  O   UNL     1     -12.699  10.342  72.200  1.00  0.00    -0.358 OA 
HETATM    7  H   UNL     1     -10.437   9.432  71.929  1.00  0.00     0.000 HD 
HETATM    8  N   UNL     1     -10.161   9.424  69.926  1.00  0.00    -0.203 NA 
HETATM    9  C   UNL     1     -10.601   9.825  68.772  1.00  0.00    -0.219 C  
ENDROOT
BRANCH   9  10
HETATM   10  C   UNL     1      -9.794   9.452  67.558  1.00  0.00    -0.220 A  
HETATM   11  C   UNL     1      -8.611   8.717  67.659  1.00  0.00    -0.136 A  
HETATM   12  C   UNL     1      -7.840   8.461  66.519  1.00  0.00    -0.092 A  
HETATM   13  C   UNL     1      -8.224   8.927  65.255  1.00  0.00    -0.137 A  
HETATM   14  C   UNL     1      -9.412   9.659  65.157  1.00  0.00    -0.332 A  
HETATM   15  C   UNL     1     -10.196   9.912  66.295  1.00  0.00    -0.282 A  
BRANCH  13  16
HETATM   16  N   UNL     1      -7.415   8.720  64.115  1.00  0.00    -0.104 NA 
HETATM   17  H   UNL     1      -7.637   9.144  63.214  1.00  0.00     0.000 HD 
BRANCH  16  18
HETATM   18  N   UNL     1      -6.316   7.922  64.287  1.00  0.00    -0.056 NA 
HETATM   19  H   UNL     1      -5.394   8.342  64.410  1.00  0.00     0.000 HD 
BRANCH  18  20
HETATM   20  C   UNL     1      -6.447   6.625  64.291  1.00  0.00    -0.038 C  
HETATM   21  C   UNL     1      -5.776   5.957  65.373  1.00  0.00    -0.024 C  
HETATM   22  C   UNL     1      -7.200   5.936  63.287  1.00  0.00    -0.050 C  
HETATM   23  N   UNL     1      -7.838   5.398  62.477  1.00  0.00    -0.072 NA 
HETATM   24  N   UNL     1      -5.255   5.403  66.251  1.00  0.00    -0.008 NA 
ENDBRANCH  18  20
ENDBRANCH  16  18
ENDBRANCH  13  16
ENDBRANCH   9  10
TORSDOF 4
ENDMDL
MODEL      209
REMARK 921   NORMALIZED FREE ENERGY PREDICTED BY IDOCK:   -1.90 KCAL/MOL
REMARK 922        TOTAL FREE ENERGY PREDICTED BY IDOCK:   -3.06 KCAL/MOL
REMARK 923 INTER-LIGAND FREE ENERGY PREDICTED BY IDOCK:   -3.54 KCAL/MOL
REMARK 924 INTRA-LIGAND FREE ENERGY PREDICTED BY IDOCK:    0.48 KCAL/MOL
REMARK 927      BINDING AFFINITY PREDICTED BY RF-SCORE:    0.00 PKD
ROOT
HETATM    1  C   UNL     1      -9.996  10.102  64.874  1.00  0.00    -0.358 C  
HETATM    2  C   UNL     1     -10.499  10.884  66.091  1.00  0.00    -0.290 C  
HETATM    3  C   UNL     1     -10.478  12.382  65.804  1.00  0.00    -0.288 C  
HETATM    4  C   UNL     1      -9.420  13.172  66.512  1.00  0.00    -0.243 C  
HETATM    5  N   UNL     1      -8.700  12.539  67.478  1.00  0.00    -0.172 N  
HETATM    6  O   UNL     1      -9.230  14.361  66.256  1.00  0.00    -0.253 OA 
HETATM    7  H   UNL     1      -7.955  13.082  67.915  1.00  0.00     0.000 HD 
HETATM    8  N   UNL     1      -8.861  11.274  67.925  1.00  0.00    -0.138 NA 
HETATM    9  C   UNL     1      -9.707  10.485  67.335  1.00  0.00    -0.164 C  
ENDROOT
BRANCH   9  10
HETATM   10  C   UNL     1      -9.889   9.109  67.917  1.00  0.00    -0.204 A  
HETATM   11  C   UNL     1     -10.855   8.846  68.890  1.00  0.00    -0.052 A  
HETATM   12  C   UNL     1     -10.941   7.576  69.473  1.00  0.00    -0.127 A  
HETATM   13  C   UNL     1     -10.073   6.540  69.104  1.00  0.00    -0.168 A  
HETATM   14  C   UNL     1      -9.109   6.808  68.126  1.00  0.00    -0.123 A  
HETATM   15  C   UNL     1      -9.023   8.076  67.530  1.00  0.00    -0.143 A  
BRANCH  13  16
HETATM   16  N   UNL     1     -10.120   5.278  69.736  1.00  0.00    -0.241 NA 
HETATM   17  H   UNL     1     -10.944   4.678  69.679  1.00  0.00     0.000 HD 
BRANCH  16  18
HETATM   18  N   UNL     1      -9.001   4.902  70.429  1.00  0.00    -0.109 NA 
HETATM   19  H   UNL     1      -8.762   3.914  70.517  1.00  0.00     0.000 HD 
BRANCH  18  20
HETATM   20  C   UNL     1      -8.239   5.807  70.976  1.00  0.00    -0.122 C  
HETATM   21  C   UNL     1      -8.913   6.681  71.899  1.00  0.00    -0.136 C  
HETATM   22  C   UNL     1      -6.845   5.913  70.669  1.00  0.00    -0.054 C  
HETATM   23  N   UNL     1      -5.710   5.965  70.424  1.00  0.00    -0.013 NA 
HETATM   24  N   UNL     1      -9.437   7.382  72.661  1.00  0.00    -0.146 NA 
ENDBRANCH  18  20
ENDBRANCH  16  18
ENDBRANCH  13  16
ENDBRANCH   9  10
TORSDOF 4
ENDMDL
MODEL      210
REMARK 921   NORMALIZED FREE ENERGY PREDICTED BY IDOCK:    2.58 KCAL/MOL
REMARK 922        TOTAL FREE ENERGY PREDICTED BY IDOCK:    2.48 KCAL/MOL
REMARK 923 INTER-LIGAND FREE ENERGY PREDICTED BY IDOCK:   -0.64 KCAL/MOL
REMARK 924 INTRA-LIGAND FREE ENERGY PREDICTED BY IDOCK:    3.12 KCAL/MOL
REMARK 927      BINDING AFFINITY PREDICTED BY RF-SCORE:    0.00 PKD
ROOT
HETATM    1  C   UNL     1      -5.331  16.431  68.960  1.00  0.00    -0.118 C  
HETATM    2  C   UNL     1      -6.491  16.242  69.942  1.00  0.00    -0.087 C  
HETATM    3  C   UNL     1      -5.968  15.770  71.295  1.00  0.00     0.665 C  
HETATM    4  C   UNL     1      -6.253  14.343  71.649  1.00  0.00     0.339 C  
HETATM    5  N   UNL     1      -7.100  13.649  70.840  1.00  0.00     1.074 N  
HETATM    6  O   UNL     1      -5.768  13.823  72.655  1.00  0.00    -0.444 OA 
HETATM    7  H   UNL     1      -7.244  12.666  71.073  1.00  0.00     0.000 HD 
HETATM    8  N   UNL     1      -7.772  14.115  69.764  1.00  0.00     0.376 NA 
HETATM    9  C   UNL     1      -7.546  15.319  69.335  1.00  0.00    -0.219 C  
ENDROOT
BRANCH   9  10
HETATM   10  C   UNL     1      -8.371  15.804  68.173  1.00  0.00    -0.160 A  
HETATM   11  C   UNL     1      -8.239  15.251  66.898  1.00  0.00    -0.263 A  
HETATM   12  C   UNL     1      -8.959  15.784  65.821  1.00  0.00    -0.072 A  
HETATM   13  C   UNL     1      -9.824  16.873  65.985  1.00  0.00    -0.258 A  
HETATM   14  C   UNL     1      -9.956  17.421  67.266  1.00  0.00    -0.302 A  
HETATM   15  C   UNL     1      -9.244  16.887  68.353  1.00  0.00    -0.253 A  
BRANCH  13  16
HETATM   16  N   UNL     1     -10.503  17.448  64.888  1.00  0.00    -0.192 NA 
HETATM   17  H   UNL     1     -10.112  18.230  64.363  1.00  0.00     0.000 HD 
BRANCH  16  18
HETATM   18  N   UNL     1     -11.716  16.897  64.567  1.00  0.00    -0.443 NA 
HETATM   19  H   UNL     1     -12.421  17.459  64.090  1.00  0.00     0.000 HD 
BRANCH  18  20
HETATM   20  C   UNL     1     -11.968  15.656  64.873  1.00  0.00     0.144 C  
HETATM   21  C   UNL     1     -11.854  15.347  66.273  1.00  0.00     0.336 C  
HETATM   22  C   UNL     1     -12.326  14.688  63.881  1.00  0.00     0.030 C  
HETATM   23  N   UNL     1     -12.640  13.924  63.063  1.00  0.00    -0.489 NA 
HETATM   24  N   UNL     1     -11.785  15.084  67.402  1.00  0.00    -0.303 NA 
ENDBRANCH  18  20
ENDBRANCH  16  18
ENDBRANCH  13  16
ENDBRANCH   9  10
TORSDOF 4
ENDMDL
MODEL      211
REMARK 921   NORMALIZED FREE ENERGY PREDICTED BY IDOCK:    2.99 KCAL/MOL
REMARK 922        TOTAL FREE ENERGY PREDICTED BY IDOCK:    2.99 KCAL/MOL
REMARK 923 INTER-LIGAND FREE ENERGY PREDICTED BY IDOCK:    2.00 KCAL/MOL
REMARK 924 INTRA-LIGAND FREE ENERGY PREDICTED BY IDOCK:    0.98 KCAL/MOL
REMARK 927      BINDING AFFINITY PREDICTED BY RF-SCORE:    0.00 PKD
ROOT
HETATM    1  C   UNL     1     -13.520  14.193  66.943  1.00  0.00     3.726 C  
HETATM    2  C   UNL     1     -12.217  14.491  66.197  1.00  0.00    -0.268 C  
HETATM    3  C   UNL     1     -12.497  15.337  64.959  1.00  0.00     0.294 C  
HETATM    4  C   UNL     1     -12.365  14.638  63.641  1.00  0.00     0.415 C  
HETATM    5  N   UNL     1     -11.834  13.385  63.642  1.00  0.00    -0.688 N  
HETATM    6  O   UNL     1     -12.693  15.188  62.589  1.00  0.00     2.027 OA 
HETATM    7  H   UNL     1     -11.796  12.910  62.740  1.00  0.00     0.000 HD 
HETATM    8  N   UNL     1     -11.350  12.700  64.701  1.00  0.00    -0.306 NA 
HETATM    9  C   UNL     1     -11.476  13.190  65.897  1.00  0.00    -0.333 C  
ENDROOT
BRANCH   9  10
HETATM   10  C   UNL     1     -10.860  12.413  67.029  1.00  0.00    -0.282 A  
HETATM   11  C   UNL     1     -11.456  12.356  68.291  1.00  0.00    -0.360 A  
HETATM   12  C   UNL     1     -10.814  11.696  69.346  1.00  0.00    -0.151 A  
HETATM   13  C   UNL     1      -9.569  11.078  69.173  1.00  0.00    -0.061 A  
HETATM   14  C   UNL     1      -8.977  11.133  67.906  1.00  0.00    -0.143 A  
HETATM   15  C   UNL     1      -9.620  11.786  66.841  1.00  0.00    -0.204 A  
BRANCH  13  16
HETATM   16  N   UNL     1      -8.894  10.465  70.252  1.00  0.00    -0.217 NA 
HETATM   17  H   UNL     1      -8.287  10.995  70.878  1.00  0.00     0.000 HD 
BRANCH  16  18
HETATM   18  N   UNL     1      -9.098   9.120  70.412  1.00  0.00    -0.212 NA 
HETATM   19  H   UNL     1      -8.346   8.528  70.763  1.00  0.00     0.000 HD 
BRANCH  18  20
HETATM   20  C   UNL     1     -10.255   8.598  70.115  1.00  0.00    -0.192 C  
HETATM   21  C   UNL     1     -11.365   9.135  70.855  1.00  0.00    -0.295 C  
HETATM   22  C   UNL     1     -10.391   7.567  69.131  1.00  0.00    -0.212 C  
HETATM   23  N   UNL     1     -10.484   6.749  68.310  1.00  0.00    -0.190 NA 
HETATM   24  N   UNL     1     -12.275   9.571  71.430  1.00  0.00    -0.346 NA 
ENDBRANCH  18  20
ENDBRANCH  16  18
ENDBRANCH  13  16
ENDBRANCH   9  10
TORSDOF 4
ENDMDL
MODEL      212
REMARK 921   NORMALIZED FREE ENERGY PREDICTED BY IDOCK:    9.11 KCAL/MOL
REMARK 922        TOTAL FREE ENERGY PREDICTED BY IDOCK:   10.53 KCAL/MOL
REMARK 923 INTER-LIGAND FREE ENERGY PREDICTED BY IDOCK:    9.93 KCAL/MOL
REMARK 924 INTRA-LIGAND FREE ENERGY PREDICTED BY IDOCK:    0.60 KCAL/MOL
REMARK 927      BINDING AFFINITY PREDICTED BY RF-SCORE:    0.00 PKD
ROOT
HETATM    1  C   UNL     1      -5.195  16.357  69.277  1.00  0.00    -0.120 C  
HETATM    2  C   UNL     1      -6.198  16.540  70.418  1.00  0.00     0.278 C  
HETATM    3  C   UNL     1      -5.593  16.068  71.736  1.00  0.00     0.598 C  
HETATM    4  C   UNL     1      -6.141  14.788  72.290  1.00  0.00     0.665 C  
HETATM    5  N   UNL     1      -7.241  14.260  71.688  1.00  0.00     1.858 N  
HETATM    6  O   UNL     1      -5.637  14.250  73.277  1.00  0.00    -0.284 OA 
HETATM    7  H   UNL     1      -7.570  13.366  72.052  1.00  0.00     0.000 HD 
HETATM    8  N   UNL     1      -7.948  14.786  70.663  1.00  0.00     1.252 NA 
HETATM    9  C   UNL     1      -7.519  15.859  70.070  1.00  0.00     0.429 C  
ENDROOT
BRANCH   9  10
HETATM   10  C   UNL     1      -8.382  16.435  68.979  1.00  0.00    -0.225 A  
HETATM   11  C   UNL     1      -9.696  16.840  69.218  1.00  0.00    -0.139 A  
HETATM   12  C   UNL     1     -10.499  17.291  68.163  1.00  0.00    -0.382 A  
HETATM   13  C   UNL     1     -10.017  17.349  66.849  1.00  0.00    -0.300 A  
HETATM   14  C   UNL     1      -8.697  16.945  66.614  1.00  0.00    -0.279 A  
HETATM   15  C   UNL     1      -7.884  16.501  67.669  1.00  0.00    -0.175 A  
BRANCH  13  16
HETATM   16  N   UNL     1     -10.845  17.746  65.776  1.00  0.00    -0.253 NA 
HETATM   17  H   UNL     1     -11.365  17.067  65.218  1.00  0.00     0.000 HD 
BRANCH  16  18
HETATM   18  N   UNL     1     -10.912  19.090  65.524  1.00  0.00    -0.369 NA 
HETATM   19  H   UNL     1     -11.153  19.423  64.591  1.00  0.00     0.000 HD 
BRANCH  18  20
HETATM   20  C   UNL     1     -10.669  19.944  66.478  1.00  0.00    -0.333 C  
HETATM   21  C   UNL     1     -11.838  20.440  67.153  1.00  0.00     2.913 C  
HETATM   22  C   UNL     1      -9.337  20.350  66.812  1.00  0.00    -0.306 C  
HETATM   23  N   UNL     1      -8.246  20.646  67.084  1.00  0.00    -0.288 NA 
HETATM   24  N   UNL     1     -12.769  20.836  67.722  1.00  0.00     5.386 NA 
ENDBRANCH  18  20
ENDBRANCH  16  18
ENDBRANCH  13  16
ENDBRANCH   9  10
TORSDOF 4
ENDMDL
MODEL      213
REMARK 921   NORMALIZED FREE ENERGY PREDICTED BY IDOCK:   10.43 KCAL/MOL
REMARK 922        TOTAL FREE ENERGY PREDICTED BY IDOCK:   12.17 KCAL/MOL
REMARK 923 INTER-LIGAND FREE ENERGY PREDICTED BY IDOCK:   11.46 KCAL/MOL
REMARK 924 INTRA-LIGAND FREE ENERGY PREDICTED BY IDOCK:    0.70 KCAL/MOL
REMARK 927      BINDING AFFINITY PREDICTED BY RF-SCORE:    0.00 PKD
ROOT
HETATM    1  C   UNL     1      -5.404  16.392  69.395  1.00  0.00    -0.132 C  
HETATM    2  C   UNL     1      -6.227  16.658  70.658  1.00  0.00     0.684 C  
HETATM    3  C   UNL     1      -5.421  16.294  71.901  1.00  0.00     0.570 C  
HETATM    4  C   UNL     1      -5.857  15.058  72.628  1.00  0.00     0.690 C  
HETATM    5  N   UNL     1      -7.026  14.479  72.242  1.00  0.00     1.612 N  
HETATM    6  O   UNL     1      -5.201  14.601  73.564  1.00  0.00    -0.289 OA 
HETATM    7  H   UNL     1      -7.281  13.613  72.719  1.00  0.00     0.000 HD 
HETATM    8  N   UNL     1      -7.889  14.920  71.300  1.00  0.00     2.425 NA 
HETATM    9  C   UNL     1      -7.574  15.945  70.568  1.00  0.00     1.643 C  
ENDROOT
BRANCH   9  10
HETATM   10  C   UNL     1      -8.601  16.429  69.580  1.00  0.00     0.405 A  
HETATM   11  C   UNL     1      -9.902  16.752  69.972  1.00  0.00     0.689 A  
HETATM   12  C   UNL     1     -10.857  17.116  69.014  1.00  0.00    -0.129 A  
HETATM   13  C   UNL     1     -10.543  17.169  67.650  1.00  0.00    -0.343 A  
HETATM   14  C   UNL     1      -9.237  16.848  67.263  1.00  0.00    -0.231 A  
HETATM   15  C   UNL     1      -8.272  16.491  68.218  1.00  0.00    -0.185 A  
BRANCH  13  16
HETATM   16  N   UNL     1     -11.522  17.477  66.680  1.00  0.00     1.029 NA 
HETATM   17  H   UNL     1     -11.738  18.440  66.420  1.00  0.00     0.000 HD 
BRANCH  16  18
HETATM   18  N   UNL     1     -12.165  16.413  66.105  1.00  0.00     2.166 NA 
HETATM   19  H   UNL     1     -13.110  16.525  65.739  1.00  0.00     0.000 HD 
BRANCH  18  20
HETATM   20  C   UNL     1     -11.569  15.257  66.027  1.00  0.00     0.006 C  
HETATM   21  C   UNL     1     -10.897  15.010  64.780  1.00  0.00    -0.355 C  
HETATM   22  C   UNL     1     -11.595  14.316  67.106  1.00  0.00    -0.380 C  
HETATM   23  N   UNL     1     -11.606  13.577  68.003  1.00  0.00    -0.316 NA 
HETATM   24  N   UNL     1     -10.334  14.802  63.786  1.00  0.00     1.903 NA 
ENDBRANCH  18  20
ENDBRANCH  16  18
ENDBRANCH  13  16
ENDBRANCH   9  10
TORSDOF 4
ENDMDL
MODEL      214
REMARK 921   NORMALIZED FREE ENERGY PREDICTED BY IDOCK:   12.44 KCAL/MOL
REMARK 922        TOTAL FREE ENERGY PREDICTED BY IDOCK:   14.63 KCAL/MOL
REMARK 923 INTER-LIGAND FREE ENERGY PREDICTED BY IDOCK:   14.48 KCAL/MOL
REMARK 924 INTRA-LIGAND FREE ENERGY PREDICTED BY IDOCK:    0.15 KCAL/MOL
REMARK 927      BINDING AFFINITY PREDICTED BY RF-SCORE:    0.00 PKD
ROOT
HETATM    1  C   UNL     1      -5.179  15.601  70.356  1.00  0.00    -0.147 C  
HETATM    2  C   UNL     1      -6.042  15.884  71.589  1.00  0.00     1.400 C  
HETATM    3  C   UNL     1      -5.302  15.472  72.858  1.00  0.00     0.749 C  
HETATM    4  C   UNL     1      -5.815  14.246  73.549  1.00  0.00     0.089 C  
HETATM    5  N   UNL     1      -6.989  13.718  73.108  1.00  0.00     2.936 N  
HETATM    6  O   UNL     1      -5.216  13.752  74.505  1.00  0.00    -0.143 OA 
HETATM    7  H   UNL     1      -7.296  12.857  73.562  1.00  0.00     0.000 HD 
HETATM    8  N   UNL     1      -7.795  14.204  72.138  1.00  0.00     5.071 NA 
HETATM    9  C   UNL     1      -7.410  15.225  71.434  1.00  0.00     2.634 C  
ENDROOT
BRANCH   9  10
HETATM   10  C   UNL     1      -8.377  15.761  70.412  1.00  0.00     1.477 A  
HETATM   11  C   UNL     1      -9.285  14.930  69.753  1.00  0.00     0.183 A  
HETATM   12  C   UNL     1     -10.110  15.446  68.746  1.00  0.00    -0.213 A  
HETATM   13  C   UNL     1     -10.054  16.795  68.372  1.00  0.00    -0.285 A  
HETATM   14  C   UNL     1      -9.145  17.625  69.038  1.00  0.00    -0.034 A  
HETATM   15  C   UNL     1      -8.320  17.117  70.055  1.00  0.00     1.957 A  
BRANCH  13  16
HETATM   16  N   UNL     1     -10.843  17.301  67.316  1.00  0.00    -0.200 NA 
HETATM   17  H   UNL     1     -11.803  17.613  67.463  1.00  0.00     0.000 HD 
BRANCH  16  18
HETATM   18  N   UNL     1     -10.249  17.351  66.083  1.00  0.00    -0.412 NA 
HETATM   19  H   UNL     1     -10.525  18.067  65.412  1.00  0.00     0.000 HD 
BRANCH  18  20
HETATM   20  C   UNL     1      -9.331  16.481  65.767  1.00  0.00    -0.075 C  
HETATM   21  C   UNL     1      -7.981  16.924  65.992  1.00  0.00    -0.111 C  
HETATM   22  C   UNL     1      -9.657  15.193  65.234  1.00  0.00     0.022 C  
HETATM   23  N   UNL     1      -9.945  14.143  64.827  1.00  0.00    -0.180 NA 
HETATM   24  N   UNL     1      -6.886  17.257  66.185  1.00  0.00    -0.238 NA 
ENDBRANCH  18  20
ENDBRANCH  16  18
ENDBRANCH  13  16
ENDBRANCH   9  10
TORSDOF 4
ENDMDL
