MODEL        1
REMARK 921   NORMALIZED FREE ENERGY PREDICTED BY IDOCK:   -7.83 KCAL/MOL
REMARK 922        TOTAL FREE ENERGY PREDICTED BY IDOCK:   -8.69 KCAL/MOL
REMARK 923 INTER-LIGAND FREE ENERGY PREDICTED BY IDOCK:   -8.29 KCAL/MOL
REMARK 924 INTRA-LIGAND FREE ENERGY PREDICTED BY IDOCK:   -0.40 KCAL/MOL
REMARK 927      BINDING AFFINITY PREDICTED BY RF-SCORE:    0.00 PKD
ROOT
HETATM    1  C   UNL     1     -12.893  14.603  73.293  1.00  0.00    -0.580 C  
HETATM    2  C   UNL     1     -13.505  14.367  71.909  1.00  0.00    -0.393 C  
HETATM    3  C   UNL     1     -13.284  15.553  70.967  1.00  0.00    -0.474 C  
HETATM    4  O   UNL     1     -12.013  15.597  70.331  1.00  0.00    -0.330 OA 
HETATM    5  C   UNL     1     -11.589  14.407  69.782  1.00  0.00    -0.298 A  
HETATM    6  C   UNL     1     -12.045  13.175  70.318  1.00  0.00    -0.328 A  
HETATM    7  N   UNL     1     -13.018  13.103  71.343  1.00  0.00    -0.339 NA 
HETATM    8  C   UNL     1     -13.377  11.861  71.853  1.00  0.00    -0.300 C  
HETATM    9  C   UNL     1     -12.895  10.670  71.465  1.00  0.00    -0.567 C  
HETATM   10  C   UNL     1     -11.894  10.685  70.381  1.00  0.00    -0.349 C  
HETATM   11  C   UNL     1     -13.357   9.442  72.140  1.00  0.00    -0.468 C  
HETATM   12  C   UNL     1     -11.499  11.987  69.800  1.00  0.00    -0.284 A  
HETATM   13  O   UNL     1     -14.195   9.436  73.030  1.00  0.00    -0.310 OA 
HETATM   14  O   UNL     1     -12.765   8.309  71.703  1.00  0.00    -0.312 OA 
HETATM   15  O   UNL     1     -11.401   9.628  69.988  1.00  0.00    -0.241 OA 
HETATM   16  C   UNL     1     -10.560  12.003  68.776  1.00  0.00    -0.237 A  
HETATM   17  C   UNL     1     -10.154  13.220  68.249  1.00  0.00    -0.250 A  
HETATM   18  C   UNL     1     -10.645  14.462  68.714  1.00  0.00    -0.254 A  
HETATM   19  F   UNL     1      -9.198  13.173  67.306  1.00  0.00    -0.189 F  
ENDROOT
BRANCH  18  20
HETATM   20  N   UNL     1     -10.161  15.642  68.153  1.00  0.00    -0.221 NA 
HETATM   21  C   UNL     1     -10.517  16.083  66.800  1.00  0.00    -0.308 C  
HETATM   22  C   UNL     1     -10.661  17.625  66.768  1.00  0.00    -0.224 C  
HETATM   23  N   UNL     1      -9.523  18.395  67.317  1.00  0.00    -0.274 NA 
HETATM   24  C   UNL     1      -9.195  17.866  68.663  1.00  0.00    -0.264 C  
HETATM   25  C   UNL     1      -8.368  18.346  66.424  1.00  0.00    -0.251 C  
HETATM   26  C   UNL     1      -8.989  16.333  68.732  1.00  0.00    -0.243 C  
ENDBRANCH  18  20
TORSDOF 1
ENDMDL
MODEL        2
REMARK 921   NORMALIZED FREE ENERGY PREDICTED BY IDOCK:   -7.55 KCAL/MOL
REMARK 922        TOTAL FREE ENERGY PREDICTED BY IDOCK:   -8.39 KCAL/MOL
REMARK 923 INTER-LIGAND FREE ENERGY PREDICTED BY IDOCK:   -8.20 KCAL/MOL
REMARK 924 INTRA-LIGAND FREE ENERGY PREDICTED BY IDOCK:   -0.19 KCAL/MOL
REMARK 927      BINDING AFFINITY PREDICTED BY RF-SCORE:    0.00 PKD
ROOT
HETATM    1  C   UNL     1      -9.239   9.655  68.899  1.00  0.00    -0.147 C  
HETATM    2  C   UNL     1     -10.680  10.024  68.533  1.00  0.00    -0.231 C  
HETATM    3  C   UNL     1     -11.483  10.498  69.747  1.00  0.00    -0.294 C  
HETATM    4  O   UNL     1     -11.290  11.860  70.110  1.00  0.00    -0.131 OA 
HETATM    5  C   UNL     1     -11.337  12.758  69.066  1.00  0.00    -0.294 A  
HETATM    6  C   UNL     1     -10.992  12.343  67.755  1.00  0.00    -0.228 A  
HETATM    7  N   UNL     1     -10.695  10.997  67.434  1.00  0.00    -0.240 NA 
HETATM    8  C   UNL     1     -10.314  10.676  66.137  1.00  0.00    -0.227 C  
HETATM    9  C   UNL     1     -10.197  11.526  65.107  1.00  0.00    -0.322 C  
HETATM   10  C   UNL     1     -10.518  12.941  65.379  1.00  0.00    -0.292 C  
HETATM   11  C   UNL     1      -9.741  11.025  63.795  1.00  0.00    -0.309 C  
HETATM   12  C   UNL     1     -10.945  13.319  66.744  1.00  0.00    -0.302 A  
HETATM   13  O   UNL     1      -9.488   9.850  63.574  1.00  0.00    -0.266 OA 
HETATM   14  O   UNL     1      -9.611  11.979  62.848  1.00  0.00    -0.332 OA 
HETATM   15  O   UNL     1     -10.417  13.776  64.481  1.00  0.00    -0.434 OA 
HETATM   16  C   UNL     1     -11.252  14.650  67.002  1.00  0.00    -0.348 A  
HETATM   17  C   UNL     1     -11.617  15.023  68.286  1.00  0.00    -0.334 A  
HETATM   18  C   UNL     1     -11.683  14.110  69.364  1.00  0.00    -0.313 A  
HETATM   19  F   UNL     1     -11.840  16.334  68.487  1.00  0.00    -0.362 F  
ENDROOT
BRANCH  18  20
HETATM   20  N   UNL     1     -12.026  14.573  70.633  1.00  0.00    -0.301 NA 
HETATM   21  C   UNL     1     -11.108  15.353  71.470  1.00  0.00    -0.230 C  
HETATM   22  C   UNL     1     -11.896  16.429  72.257  1.00  0.00    -0.445 C  
HETATM   23  N   UNL     1     -13.066  15.946  73.024  1.00  0.00    -0.513 NA 
HETATM   24  C   UNL     1     -13.922  15.134  72.126  1.00  0.00    -0.533 C  
HETATM   25  C   UNL     1     -12.653  15.189  74.202  1.00  0.00    -0.437 C  
HETATM   26  C   UNL     1     -13.185  14.010  71.357  1.00  0.00    -0.334 C  
ENDBRANCH  18  20
TORSDOF 1
ENDMDL
MODEL        3
REMARK 921   NORMALIZED FREE ENERGY PREDICTED BY IDOCK:   -7.49 KCAL/MOL
REMARK 922        TOTAL FREE ENERGY PREDICTED BY IDOCK:   -8.33 KCAL/MOL
REMARK 923 INTER-LIGAND FREE ENERGY PREDICTED BY IDOCK:   -8.15 KCAL/MOL
REMARK 924 INTRA-LIGAND FREE ENERGY PREDICTED BY IDOCK:   -0.18 KCAL/MOL
REMARK 927      BINDING AFFINITY PREDICTED BY RF-SCORE:    0.00 PKD
ROOT
HETATM    1  C   UNL     1      -9.188  16.869  68.927  1.00  0.00    -0.229 C  
HETATM    2  C   UNL     1     -10.570  16.520  68.369  1.00  0.00    -0.323 C  
HETATM    3  C   UNL     1     -10.507  16.061  66.910  1.00  0.00    -0.306 C  
HETATM    4  O   UNL     1     -10.151  14.697  66.717  1.00  0.00    -0.256 OA 
HETATM    5  C   UNL     1     -10.814  13.797  67.523  1.00  0.00    -0.265 A  
HETATM    6  C   UNL     1     -11.305  14.204  68.789  1.00  0.00    -0.278 A  
HETATM    7  N   UNL     1     -11.241  15.545  69.237  1.00  0.00    -0.287 NA 
HETATM    8  C   UNL     1     -11.696  15.859  70.512  1.00  0.00    -0.373 C  
HETATM    9  C   UNL     1     -12.219  15.004  71.404  1.00  0.00    -0.388 C  
HETATM   10  C   UNL     1     -12.332  13.595  70.981  1.00  0.00    -0.354 C  
HETATM   11  C   UNL     1     -12.620  15.496  72.737  1.00  0.00    -0.416 C  
HETATM   12  C   UNL     1     -11.874  13.225  69.623  1.00  0.00    -0.391 A  
HETATM   13  O   UNL     1     -12.535  16.667  73.077  1.00  0.00    -0.274 OA 
HETATM   14  O   UNL     1     -13.084  14.538  73.569  1.00  0.00    -0.564 OA 
HETATM   15  O   UNL     1     -12.789  12.756  71.757  1.00  0.00    -0.308 OA 
HETATM   16  C   UNL     1     -11.983  11.900  69.220  1.00  0.00    -0.342 A  
HETATM   17  C   UNL     1     -11.524  11.534  67.965  1.00  0.00    -0.311 A  
HETATM   18  C   UNL     1     -10.931  12.450  67.065  1.00  0.00    -0.260 A  
HETATM   19  F   UNL     1     -11.598  10.228  67.658  1.00  0.00    -0.351 F  
ENDROOT
BRANCH  18  20
HETATM   20  N   UNL     1     -10.464  11.995  65.834  1.00  0.00    -0.247 NA 
HETATM   21  C   UNL     1      -9.246  11.191  65.694  1.00  0.00    -0.218 C  
HETATM   22  C   UNL     1      -9.435  10.134  64.577  1.00  0.00    -0.303 C  
HETATM   23  N   UNL     1      -9.910  10.647  63.272  1.00  0.00    -0.328 NA 
HETATM   24  C   UNL     1     -11.114  11.482  63.498  1.00  0.00    -0.348 C  
HETATM   25  C   UNL     1      -8.862  11.391  62.581  1.00  0.00    -0.107 C  
HETATM   26  C   UNL     1     -10.953  12.587  64.571  1.00  0.00    -0.323 C  
ENDBRANCH  18  20
TORSDOF 1
ENDMDL
MODEL        4
REMARK 921   NORMALIZED FREE ENERGY PREDICTED BY IDOCK:   -7.41 KCAL/MOL
REMARK 922        TOTAL FREE ENERGY PREDICTED BY IDOCK:   -8.24 KCAL/MOL
REMARK 923 INTER-LIGAND FREE ENERGY PREDICTED BY IDOCK:   -7.97 KCAL/MOL
REMARK 924 INTRA-LIGAND FREE ENERGY PREDICTED BY IDOCK:   -0.27 KCAL/MOL
REMARK 927      BINDING AFFINITY PREDICTED BY RF-SCORE:    0.00 PKD
ROOT
HETATM    1  C   UNL     1      -9.522  16.268  68.367  1.00  0.00    -0.216 C  
HETATM    2  C   UNL     1     -10.808  15.718  67.743  1.00  0.00    -0.316 C  
HETATM    3  C   UNL     1     -10.581  15.178  66.328  1.00  0.00    -0.310 C  
HETATM    4  O   UNL     1     -10.054  13.859  66.258  1.00  0.00    -0.283 OA 
HETATM    5  C   UNL     1     -10.665  12.937  67.079  1.00  0.00    -0.257 A  
HETATM    6  C   UNL     1     -11.295  13.360  68.277  1.00  0.00    -0.295 A  
HETATM    7  N   UNL     1     -11.423  14.724  68.631  1.00  0.00    -0.287 NA 
HETATM    8  C   UNL     1     -12.007  15.059  69.847  1.00  0.00    -0.334 C  
HETATM    9  C   UNL     1     -12.491  14.205  70.761  1.00  0.00    -0.436 C  
HETATM   10  C   UNL     1     -12.406  12.768  70.432  1.00  0.00    -0.247 C  
HETATM   11  C   UNL     1     -13.047  14.727  72.025  1.00  0.00    -0.337 C  
HETATM   12  C   UNL     1     -11.806  12.373  69.138  1.00  0.00    -0.352 A  
HETATM   13  O   UNL     1     -13.126  15.918  72.285  1.00  0.00    -0.449 OA 
HETATM   14  O   UNL     1     -13.457  13.773  72.890  1.00  0.00    -0.652 OA 
HETATM   15  O   UNL     1     -12.818  11.931  71.233  1.00  0.00    -0.380 OA 
HETATM   16  C   UNL     1     -11.728  11.021  68.825  1.00  0.00    -0.383 A  
HETATM   17  C   UNL     1     -11.135  10.637  67.633  1.00  0.00    -0.319 A  
HETATM   18  C   UNL     1     -10.588  11.560  66.711  1.00  0.00    -0.250 A  
HETATM   19  F   UNL     1     -11.033   9.314  67.415  1.00  0.00    -0.348 F  
ENDROOT
BRANCH  18  20
HETATM   20  N   UNL     1      -9.980  11.090  65.550  1.00  0.00    -0.242 NA 
HETATM   21  C   UNL     1     -10.644  11.106  64.242  1.00  0.00    -0.357 C  
HETATM   22  C   UNL     1      -9.614  11.426  63.131  1.00  0.00    -0.380 C  
HETATM   23  N   UNL     1      -8.392  10.591  63.117  1.00  0.00    -0.162 NA 
HETATM   24  C   UNL     1      -7.803  10.588  64.478  1.00  0.00     0.007 C  
HETATM   25  C   UNL     1      -8.679   9.236  62.654  1.00  0.00    -0.223 C  
HETATM   26  C   UNL     1      -8.786  10.221  65.617  1.00  0.00    -0.162 C  
ENDBRANCH  18  20
TORSDOF 1
ENDMDL
MODEL        5
REMARK 921   NORMALIZED FREE ENERGY PREDICTED BY IDOCK:   -7.35 KCAL/MOL
REMARK 922        TOTAL FREE ENERGY PREDICTED BY IDOCK:   -8.18 KCAL/MOL
REMARK 923 INTER-LIGAND FREE ENERGY PREDICTED BY IDOCK:   -7.92 KCAL/MOL
REMARK 924 INTRA-LIGAND FREE ENERGY PREDICTED BY IDOCK:   -0.27 KCAL/MOL
REMARK 927      BINDING AFFINITY PREDICTED BY RF-SCORE:    0.00 PKD
ROOT
HETATM    1  C   UNL     1     -10.389   9.584  67.103  1.00  0.00    -0.320 C  
HETATM    2  C   UNL     1      -9.673  10.361  68.212  1.00  0.00    -0.151 C  
HETATM    3  C   UNL     1      -8.991  11.626  67.685  1.00  0.00    -0.166 C  
HETATM    4  O   UNL     1      -9.842  12.755  67.527  1.00  0.00    -0.204 OA 
HETATM    5  C   UNL     1     -10.679  13.013  68.591  1.00  0.00    -0.248 A  
HETATM    6  C   UNL     1     -11.092  11.958  69.443  1.00  0.00    -0.153 A  
HETATM    7  N   UNL     1     -10.595  10.639  69.319  1.00  0.00    -0.220 NA 
HETATM    8  C   UNL     1     -11.085   9.646  70.159  1.00  0.00    -0.269 C  
HETATM    9  C   UNL     1     -12.009   9.799  71.119  1.00  0.00    -0.463 C  
HETATM   10  C   UNL     1     -12.545  11.161  71.309  1.00  0.00    -0.398 C  
HETATM   11  C   UNL     1     -12.451   8.626  71.900  1.00  0.00    -0.357 C  
HETATM   12  C   UNL     1     -12.034  12.248  70.446  1.00  0.00    -0.349 A  
HETATM   13  O   UNL     1     -11.994   7.503  71.746  1.00  0.00    -0.280 OA 
HETATM   14  O   UNL     1     -13.421   8.890  72.803  1.00  0.00    -0.408 OA 
HETATM   15  O   UNL     1     -13.406  11.368  72.163  1.00  0.00    -0.469 OA 
HETATM   16  C   UNL     1     -12.534  13.533  70.625  1.00  0.00    -0.405 A  
HETATM   17  C   UNL     1     -12.090  14.553  69.798  1.00  0.00    -0.331 A  
HETATM   18  C   UNL     1     -11.151  14.349  68.760  1.00  0.00    -0.257 A  
HETATM   19  F   UNL     1     -12.657  15.758  69.979  1.00  0.00    -0.402 F  
ENDROOT
BRANCH  18  20
HETATM   20  N   UNL     1     -10.782  15.422  67.951  1.00  0.00    -0.278 NA 
HETATM   21  C   UNL     1     -10.114  16.618  68.474  1.00  0.00    -0.266 C  
HETATM   22  C   UNL     1      -9.075  17.135  67.449  1.00  0.00    -0.224 C  
HETATM   23  N   UNL     1      -9.570  17.340  66.069  1.00  0.00    -0.500 NA 
HETATM   24  C   UNL     1     -10.267  16.108  65.626  1.00  0.00    -0.364 C  
HETATM   25  C   UNL     1     -10.440  18.509  65.984  1.00  0.00    -0.400 C  
HETATM   26  C   UNL     1     -11.353  15.584  66.598  1.00  0.00    -0.034 C  
ENDBRANCH  18  20
TORSDOF 1
ENDMDL
MODEL        6
REMARK 921   NORMALIZED FREE ENERGY PREDICTED BY IDOCK:   -7.08 KCAL/MOL
REMARK 922        TOTAL FREE ENERGY PREDICTED BY IDOCK:   -7.90 KCAL/MOL
REMARK 923 INTER-LIGAND FREE ENERGY PREDICTED BY IDOCK:   -7.47 KCAL/MOL
REMARK 924 INTRA-LIGAND FREE ENERGY PREDICTED BY IDOCK:   -0.43 KCAL/MOL
REMARK 927      BINDING AFFINITY PREDICTED BY RF-SCORE:    0.00 PKD
ROOT
HETATM    1  C   UNL     1     -14.178   8.826  72.121  1.00  0.00    -0.504 C  
HETATM    2  C   UNL     1     -12.714   9.248  72.276  1.00  0.00    -0.363 C  
HETATM    3  C   UNL     1     -11.743   8.126  71.899  1.00  0.00    -0.310 C  
HETATM    4  O   UNL     1     -11.492   7.982  70.506  1.00  0.00    -0.264 OA 
HETATM    5  C   UNL     1     -11.225   9.155  69.833  1.00  0.00    -0.102 A  
HETATM    6  C   UNL     1     -11.747  10.383  70.312  1.00  0.00    -0.321 A  
HETATM    7  N   UNL     1     -12.457  10.487  71.532  1.00  0.00    -0.391 NA 
HETATM    8  C   UNL     1     -12.982  11.716  71.910  1.00  0.00    -0.337 C  
HETATM    9  C   UNL     1     -12.886  12.868  71.229  1.00  0.00    -0.361 C  
HETATM   10  C   UNL     1     -12.134  12.823  69.960  1.00  0.00    -0.285 C  
HETATM   11  C   UNL     1     -13.539  14.083  71.755  1.00  0.00    -0.394 C  
HETATM   12  C   UNL     1     -11.544  11.536  69.533  1.00  0.00    -0.400 A  
HETATM   13  O   UNL     1     -14.150  14.116  72.813  1.00  0.00    -0.610 OA 
HETATM   14  O   UNL     1     -13.418  15.169  70.961  1.00  0.00    -0.436 OA 
HETATM   15  O   UNL     1     -12.019  13.842  69.279  1.00  0.00    -0.320 OA 
HETATM   16  C   UNL     1     -10.831  11.492  68.340  1.00  0.00    -0.250 A  
HETATM   17  C   UNL     1     -10.305  10.284  67.910  1.00  0.00    -0.196 A  
HETATM   18  C   UNL     1     -10.468   9.074  68.627  1.00  0.00    -0.200 A  
HETATM   19  F   UNL     1      -9.682  10.293  66.719  1.00  0.00    -0.188 F  
ENDROOT
BRANCH  18  20
HETATM   20  N   UNL     1      -9.935   7.896  68.109  1.00  0.00    -0.173 NA 
HETATM   21  C   UNL     1      -8.535   7.504  68.302  1.00  0.00    -0.125 C  
HETATM   22  C   UNL     1      -8.436   5.970  68.485  1.00  0.00    -0.113 C  
HETATM   23  N   UNL     1      -9.099   5.148  67.448  1.00  0.00    -0.112 NA 
HETATM   24  C   UNL     1     -10.492   5.628  67.280  1.00  0.00    -0.258 C  
HETATM   25  C   UNL     1      -8.363   5.184  66.189  1.00  0.00    -0.114 C  
HETATM   26  C   UNL     1     -10.636   7.152  67.041  1.00  0.00    -0.343 C  
ENDBRANCH  18  20
TORSDOF 1
ENDMDL
MODEL        7
REMARK 921   NORMALIZED FREE ENERGY PREDICTED BY IDOCK:   -7.04 KCAL/MOL
REMARK 922        TOTAL FREE ENERGY PREDICTED BY IDOCK:   -7.85 KCAL/MOL
REMARK 923 INTER-LIGAND FREE ENERGY PREDICTED BY IDOCK:   -7.42 KCAL/MOL
REMARK 924 INTRA-LIGAND FREE ENERGY PREDICTED BY IDOCK:   -0.43 KCAL/MOL
REMARK 927      BINDING AFFINITY PREDICTED BY RF-SCORE:    0.00 PKD
ROOT
HETATM    1  C   UNL     1      -9.153  12.839  68.360  1.00  0.00    -0.129 C  
HETATM    2  C   UNL     1     -10.507  12.178  68.084  1.00  0.00    -0.211 C  
HETATM    3  C   UNL     1     -10.365  10.703  67.702  1.00  0.00    -0.209 C  
HETATM    4  O   UNL     1     -10.216   9.803  68.794  1.00  0.00    -0.179 OA 
HETATM    5  C   UNL     1     -11.098   9.993  69.836  1.00  0.00    -0.288 A  
HETATM    6  C   UNL     1     -11.647  11.277  70.077  1.00  0.00    -0.321 A  
HETATM    7  N   UNL     1     -11.415  12.379  69.220  1.00  0.00    -0.282 NA 
HETATM    8  C   UNL     1     -11.946  13.620  69.549  1.00  0.00    -0.341 C  
HETATM    9  C   UNL     1     -12.692  13.908  70.627  1.00  0.00    -0.351 C  
HETATM   10  C   UNL     1     -12.986  12.789  71.544  1.00  0.00    -0.292 C  
HETATM   11  C   UNL     1     -13.147  15.294  70.850  1.00  0.00    -0.464 C  
HETATM   12  C   UNL     1     -12.452  11.449  71.217  1.00  0.00    -0.423 A  
HETATM   13  O   UNL     1     -12.910  16.214  70.081  1.00  0.00    -0.069 OA 
HETATM   14  O   UNL     1     -13.845  15.475  71.993  1.00  0.00    -0.473 OA 
HETATM   15  O   UNL     1     -13.652  12.988  72.559  1.00  0.00    -0.572 OA 
HETATM   16  C   UNL     1     -12.731  10.392  72.076  1.00  0.00    -0.365 A  
HETATM   17  C   UNL     1     -12.207   9.140  71.801  1.00  0.00    -0.372 A  
HETATM   18  C   UNL     1     -11.381   8.879  70.682  1.00  0.00    -0.259 A  
HETATM   19  F   UNL     1     -12.459   8.174  72.702  1.00  0.00    -0.346 F  
ENDROOT
BRANCH  18  20
HETATM   20  N   UNL     1     -10.867   7.598  70.494  1.00  0.00    -0.237 NA 
HETATM   21  C   UNL     1     -11.644   6.510  69.892  1.00  0.00    -0.368 C  
HETATM   22  C   UNL     1     -10.725   5.629  69.011  1.00  0.00    -0.237 C  
HETATM   23  N   UNL     1      -9.489   5.131  69.656  1.00  0.00    -0.132 NA 
HETATM   24  C   UNL     1      -8.782   6.277  70.276  1.00  0.00    -0.142 C  
HETATM   25  C   UNL     1      -9.783   4.088  70.634  1.00  0.00    -0.196 C  
HETATM   26  C   UNL     1      -9.651   7.157  71.209  1.00  0.00    -0.163 C  
ENDBRANCH  18  20
TORSDOF 1
ENDMDL
MODEL        8
REMARK 921   NORMALIZED FREE ENERGY PREDICTED BY IDOCK:   -7.04 KCAL/MOL
REMARK 922        TOTAL FREE ENERGY PREDICTED BY IDOCK:   -7.85 KCAL/MOL
REMARK 923 INTER-LIGAND FREE ENERGY PREDICTED BY IDOCK:   -7.73 KCAL/MOL
REMARK 924 INTRA-LIGAND FREE ENERGY PREDICTED BY IDOCK:   -0.12 KCAL/MOL
REMARK 927      BINDING AFFINITY PREDICTED BY RF-SCORE:    0.00 PKD
ROOT
HETATM    1  C   UNL     1     -11.822  15.443  64.541  1.00  0.00    -0.257 C  
HETATM    2  C   UNL     1     -10.584  15.196  65.407  1.00  0.00    -0.391 C  
HETATM    3  C   UNL     1     -10.648  15.949  66.738  1.00  0.00    -0.309 C  
HETATM    4  O   UNL     1     -11.414  15.318  67.758  1.00  0.00    -0.335 OA 
HETATM    5  C   UNL     1     -11.170  13.973  67.928  1.00  0.00    -0.273 A  
HETATM    6  C   UNL     1     -10.703  13.192  66.841  1.00  0.00    -0.263 A  
HETATM    7  N   UNL     1     -10.364  13.756  65.587  1.00  0.00    -0.301 NA 
HETATM    8  C   UNL     1      -9.962  12.919  64.553  1.00  0.00    -0.135 C  
HETATM    9  C   UNL     1      -9.844  11.584  64.606  1.00  0.00    -0.283 C  
HETATM   10  C   UNL     1     -10.161  10.945  65.899  1.00  0.00    -0.257 C  
HETATM   11  C   UNL     1      -9.439  10.838  63.399  1.00  0.00    -0.316 C  
HETATM   12  C   UNL     1     -10.576  11.805  67.029  1.00  0.00    -0.267 A  
HETATM   13  O   UNL     1      -9.167  11.375  62.335  1.00  0.00    -0.276 OA 
HETATM   14  O   UNL     1      -9.405   9.497  63.557  1.00  0.00    -0.138 OA 
HETATM   15  O   UNL     1     -10.088   9.722  66.012  1.00  0.00    -0.276 OA 
HETATM   16  C   UNL     1     -10.872  11.206  68.249  1.00  0.00    -0.258 A  
HETATM   17  C   UNL     1     -11.297  11.996  69.305  1.00  0.00    -0.268 A  
HETATM   18  C   UNL     1     -11.460  13.398  69.202  1.00  0.00    -0.300 A  
HETATM   19  F   UNL     1     -11.628  11.353  70.438  1.00  0.00    -0.372 F  
ENDROOT
BRANCH  18  20
HETATM   20  N   UNL     1     -11.924  14.116  70.301  1.00  0.00    -0.315 NA 
HETATM   21  C   UNL     1     -11.074  15.035  71.066  1.00  0.00    -0.169 C  
HETATM   22  C   UNL     1     -11.901  16.262  71.523  1.00  0.00    -0.380 C  
HETATM   23  N   UNL     1     -13.167  15.966  72.229  1.00  0.00    -0.428 NA 
HETATM   24  C   UNL     1     -13.950  15.002  71.418  1.00  0.00    -0.479 C  
HETATM   25  C   UNL     1     -12.919  15.459  73.575  1.00  0.00    -0.528 C  
HETATM   26  C   UNL     1     -13.177  13.732  70.984  1.00  0.00    -0.152 C  
ENDBRANCH  18  20
TORSDOF 1
ENDMDL
MODEL        9
REMARK 921   NORMALIZED FREE ENERGY PREDICTED BY IDOCK:   -7.01 KCAL/MOL
REMARK 922        TOTAL FREE ENERGY PREDICTED BY IDOCK:   -7.82 KCAL/MOL
REMARK 923 INTER-LIGAND FREE ENERGY PREDICTED BY IDOCK:   -7.80 KCAL/MOL
REMARK 924 INTRA-LIGAND FREE ENERGY PREDICTED BY IDOCK:   -0.02 KCAL/MOL
REMARK 927      BINDING AFFINITY PREDICTED BY RF-SCORE:    0.00 PKD
ROOT
HETATM    1  C   UNL     1      -8.586  11.841  66.376  1.00  0.00    -0.113 C  
HETATM    2  C   UNL     1     -10.115  11.897  66.315  1.00  0.00    -0.220 C  
HETATM    3  C   UNL     1     -10.764  10.612  66.833  1.00  0.00    -0.237 C  
HETATM    4  O   UNL     1     -10.885  10.520  68.248  1.00  0.00    -0.211 OA 
HETATM    5  C   UNL     1     -11.379  11.645  68.870  1.00  0.00    -0.267 A  
HETATM    6  C   UNL     1     -11.196  12.921  68.280  1.00  0.00    -0.270 A  
HETATM    7  N   UNL     1     -10.611  13.095  67.003  1.00  0.00    -0.257 NA 
HETATM    8  C   UNL     1     -10.418  14.381  66.513  1.00  0.00    -0.289 C  
HETATM    9  C   UNL     1     -10.742  15.526  67.131  1.00  0.00    -0.315 C  
HETATM   10  C   UNL     1     -11.379  15.404  68.457  1.00  0.00    -0.335 C  
HETATM   11  C   UNL     1     -10.432  16.817  66.485  1.00  0.00    -0.258 C  
HETATM   12  C   UNL     1     -11.617  14.050  69.005  1.00  0.00    -0.345 A  
HETATM   13  O   UNL     1      -9.915  16.911  65.381  1.00  0.00    -0.568 OA 
HETATM   14  O   UNL     1     -10.756  17.902  67.222  1.00  0.00    -0.354 OA 
HETATM   15  O   UNL     1     -11.688  16.416  69.085  1.00  0.00    -0.216 OA 
HETATM   16  C   UNL     1     -12.220  13.932  70.252  1.00  0.00    -0.428 A  
HETATM   17  C   UNL     1     -12.415  12.671  70.792  1.00  0.00    -0.270 A  
HETATM   18  C   UNL     1     -12.016  11.482  70.137  1.00  0.00    -0.369 A  
HETATM   19  F   UNL     1     -12.944  12.625  72.027  1.00  0.00    -0.456 F  
ENDROOT
BRANCH  18  20
HETATM   20  N   UNL     1     -12.219  10.255  70.763  1.00  0.00    -0.323 NA 
HETATM   21  C   UNL     1     -11.147   9.269  70.946  1.00  0.00    -0.306 C  
HETATM   22  C   UNL     1     -11.314   8.554  72.308  1.00  0.00    -0.371 C  
HETATM   23  N   UNL     1     -12.648   7.972  72.578  1.00  0.00    -0.173 NA 
HETATM   24  C   UNL     1     -13.678   9.011  72.333  1.00  0.00    -0.479 C  
HETATM   25  C   UNL     1     -12.883   6.781  71.767  1.00  0.00    -0.259 C  
HETATM   26  C   UNL     1     -13.581   9.718  70.958  1.00  0.00    -0.109 C  
ENDBRANCH  18  20
TORSDOF 1
ENDMDL
MODEL       10
REMARK 921   NORMALIZED FREE ENERGY PREDICTED BY IDOCK:   -6.92 KCAL/MOL
REMARK 922        TOTAL FREE ENERGY PREDICTED BY IDOCK:   -7.73 KCAL/MOL
REMARK 923 INTER-LIGAND FREE ENERGY PREDICTED BY IDOCK:   -7.37 KCAL/MOL
REMARK 924 INTRA-LIGAND FREE ENERGY PREDICTED BY IDOCK:   -0.36 KCAL/MOL
REMARK 927      BINDING AFFINITY PREDICTED BY RF-SCORE:    0.00 PKD
ROOT
HETATM    1  C   UNL     1      -8.339   9.577  65.929  1.00  0.00    -0.124 C  
HETATM    2  C   UNL     1      -9.837   9.290  66.065  1.00  0.00    -0.293 C  
HETATM    3  C   UNL     1     -10.112   8.008  66.855  1.00  0.00    -0.292 C  
HETATM    4  O   UNL     1     -10.071   8.145  68.271  1.00  0.00    -0.185 OA 
HETATM    5  C   UNL     1     -10.754   9.230  68.776  1.00  0.00    -0.154 A  
HETATM    6  C   UNL     1     -10.935  10.389  67.981  1.00  0.00    -0.291 A  
HETATM    7  N   UNL     1     -10.533  10.455  66.625  1.00  0.00    -0.234 NA 
HETATM    8  C   UNL     1     -10.696  11.644  65.925  1.00  0.00    -0.278 C  
HETATM    9  C   UNL     1     -11.220  12.784  66.400  1.00  0.00    -0.339 C  
HETATM   10  C   UNL     1     -11.679  12.765  67.803  1.00  0.00    -0.359 C  
HETATM   11  C   UNL     1     -11.286  13.975  65.530  1.00  0.00    -0.313 C  
HETATM   12  C   UNL     1     -11.538  11.511  68.576  1.00  0.00    -0.377 A  
HETATM   13  O   UNL     1     -10.915  13.980  64.366  1.00  0.00    -0.365 OA 
HETATM   14  O   UNL     1     -11.784  15.078  66.131  1.00  0.00    -0.242 OA 
HETATM   15  O   UNL     1     -12.157  13.781  68.305  1.00  0.00    -0.362 OA 
HETATM   16  C   UNL     1     -11.974  11.489  69.896  1.00  0.00    -0.426 A  
HETATM   17  C   UNL     1     -11.813  10.332  70.642  1.00  0.00    -0.347 A  
HETATM   18  C   UNL     1     -11.211   9.161  70.126  1.00  0.00    -0.187 A  
HETATM   19  F   UNL     1     -12.196  10.393  71.929  1.00  0.00    -0.434 F  
ENDROOT
BRANCH  18  20
HETATM   20  N   UNL     1     -11.057   8.050  70.953  1.00  0.00    -0.251 NA 
HETATM   21  C   UNL     1      -9.886   7.857  71.815  1.00  0.00    -0.173 C  
HETATM   22  C   UNL     1     -10.315   7.201  73.150  1.00  0.00    -0.295 C  
HETATM   23  N   UNL     1     -11.125   5.967  73.037  1.00  0.00    -0.257 NA 
HETATM   24  C   UNL     1     -12.261   6.226  72.120  1.00  0.00    -0.203 C  
HETATM   25  C   UNL     1     -10.315   4.840  72.584  1.00  0.00    -0.198 C  
HETATM   26  C   UNL     1     -11.872   6.835  70.750  1.00  0.00    -0.392 C  
ENDBRANCH  18  20
TORSDOF 1
ENDMDL
MODEL       11
REMARK 921   NORMALIZED FREE ENERGY PREDICTED BY IDOCK:   -6.84 KCAL/MOL
REMARK 922        TOTAL FREE ENERGY PREDICTED BY IDOCK:   -7.64 KCAL/MOL
REMARK 923 INTER-LIGAND FREE ENERGY PREDICTED BY IDOCK:   -7.26 KCAL/MOL
REMARK 924 INTRA-LIGAND FREE ENERGY PREDICTED BY IDOCK:   -0.38 KCAL/MOL
REMARK 927      BINDING AFFINITY PREDICTED BY RF-SCORE:    0.00 PKD
ROOT
HETATM    1  C   UNL     1     -14.253   8.852  72.263  1.00  0.00    -0.474 C  
HETATM    2  C   UNL     1     -12.774   9.223  72.408  1.00  0.00    -0.313 C  
HETATM    3  C   UNL     1     -11.847   8.048  72.085  1.00  0.00    -0.349 C  
HETATM    4  O   UNL     1     -11.596   7.835  70.701  1.00  0.00    -0.281 OA 
HETATM    5  C   UNL     1     -11.281   8.966  69.980  1.00  0.00    -0.110 A  
HETATM    6  C   UNL     1     -11.756  10.233  70.402  1.00  0.00    -0.319 A  
HETATM    7  N   UNL     1     -12.466  10.417  71.613  1.00  0.00    -0.395 NA 
HETATM    8  C   UNL     1     -12.945  11.681  71.935  1.00  0.00    -0.337 C  
HETATM    9  C   UNL     1     -12.800  12.798  71.206  1.00  0.00    -0.355 C  
HETATM   10  C   UNL     1     -12.045  12.669  69.944  1.00  0.00    -0.252 C  
HETATM   11  C   UNL     1     -13.407  14.059  71.675  1.00  0.00    -0.367 C  
HETATM   12  C   UNL     1     -11.505  11.342  69.575  1.00  0.00    -0.381 A  
HETATM   13  O   UNL     1     -14.020  14.161  72.727  1.00  0.00    -0.638 OA 
HETATM   14  O   UNL     1     -13.241  15.105  70.835  1.00  0.00    -0.425 OA 
HETATM   15  O   UNL     1     -11.888  13.652  69.220  1.00  0.00    -0.303 OA 
HETATM   16  C   UNL     1     -10.790  11.219  68.389  1.00  0.00    -0.248 A  
HETATM   17  C   UNL     1     -10.310   9.974  68.015  1.00  0.00    -0.198 A  
HETATM   18  C   UNL     1     -10.523   8.804  68.782  1.00  0.00    -0.191 A  
HETATM   19  F   UNL     1      -9.683   9.908  66.828  1.00  0.00    -0.192 F  
ENDROOT
BRANCH  18  20
HETATM   20  N   UNL     1     -10.035   7.585  68.318  1.00  0.00    -0.167 NA 
HETATM   21  C   UNL     1     -10.847   6.652  67.530  1.00  0.00    -0.342 C  
HETATM   22  C   UNL     1      -9.969   5.963  66.457  1.00  0.00    -0.153 C  
HETATM   23  N   UNL     1      -8.723   5.330  66.946  1.00  0.00    -0.112 NA 
HETATM   24  C   UNL     1      -7.979   6.316  67.766  1.00  0.00    -0.114 C  
HETATM   25  C   UNL     1      -9.005   4.111  67.697  1.00  0.00    -0.121 C  
HETATM   26  C   UNL     1      -8.806   6.993  68.887  1.00  0.00    -0.130 C  
ENDBRANCH  18  20
TORSDOF 1
ENDMDL
MODEL       12
REMARK 921   NORMALIZED FREE ENERGY PREDICTED BY IDOCK:   -6.82 KCAL/MOL
REMARK 922        TOTAL FREE ENERGY PREDICTED BY IDOCK:   -7.62 KCAL/MOL
REMARK 923 INTER-LIGAND FREE ENERGY PREDICTED BY IDOCK:   -7.18 KCAL/MOL
REMARK 924 INTRA-LIGAND FREE ENERGY PREDICTED BY IDOCK:   -0.43 KCAL/MOL
REMARK 927      BINDING AFFINITY PREDICTED BY RF-SCORE:    0.00 PKD
ROOT
HETATM    1  C   UNL     1      -9.965   8.464  66.389  1.00  0.00    -0.291 C  
HETATM    2  C   UNL     1      -9.192   9.264  67.441  1.00  0.00    -0.126 C  
HETATM    3  C   UNL     1      -8.658  10.588  66.886  1.00  0.00    -0.125 C  
HETATM    4  O   UNL     1      -9.597  11.656  66.852  1.00  0.00    -0.182 OA 
HETATM    5  C   UNL     1     -10.333  11.828  68.004  1.00  0.00    -0.198 A  
HETATM    6  C   UNL     1     -10.580  10.726  68.861  1.00  0.00    -0.216 A  
HETATM    7  N   UNL     1     -10.009   9.449  68.646  1.00  0.00    -0.167 NA 
HETATM    8  C   UNL     1     -10.339   8.405  69.501  1.00  0.00    -0.219 C  
HETATM    9  C   UNL     1     -11.164   8.468  70.556  1.00  0.00    -0.262 C  
HETATM   10  C   UNL     1     -11.770   9.784  70.842  1.00  0.00    -0.347 C  
HETATM   11  C   UNL     1     -11.439   7.249  71.342  1.00  0.00    -0.266 C  
HETATM   12  C   UNL     1     -11.429  10.925  69.964  1.00  0.00    -0.411 A  
HETATM   13  O   UNL     1     -10.925   6.166  71.107  1.00  0.00    -0.261 OA 
HETATM   14  O   UNL     1     -12.324   7.422  72.348  1.00  0.00    -0.180 OA 
HETATM   15  O   UNL     1     -12.548   9.908  71.787  1.00  0.00    -0.378 OA 
HETATM   16  C   UNL     1     -11.994  12.166  70.234  1.00  0.00    -0.389 A  
HETATM   17  C   UNL     1     -11.711  13.234  69.397  1.00  0.00    -0.325 A  
HETATM   18  C   UNL     1     -10.875  13.123  68.262  1.00  0.00    -0.253 A  
HETATM   19  F   UNL     1     -12.338  14.391  69.673  1.00  0.00    -0.340 F  
ENDROOT
BRANCH  18  20
HETATM   20  N   UNL     1     -10.668  14.238  67.453  1.00  0.00    -0.279 NA 
HETATM   21  C   UNL     1      -9.684  15.278  67.770  1.00  0.00    -0.215 C  
HETATM   22  C   UNL     1      -9.024  15.796  66.469  1.00  0.00    -0.306 C  
HETATM   23  N   UNL     1      -9.949  16.222  65.396  1.00  0.00    -0.521 NA 
HETATM   24  C   UNL     1     -10.936  15.141  65.161  1.00  0.00    -0.417 C  
HETATM   25  C   UNL     1     -10.604  17.484  65.729  1.00  0.00    -0.174 C  
HETATM   26  C   UNL     1     -11.661  14.628  66.430  1.00  0.00    -0.339 C  
ENDBRANCH  18  20
TORSDOF 1
ENDMDL
MODEL       13
REMARK 921   NORMALIZED FREE ENERGY PREDICTED BY IDOCK:   -6.79 KCAL/MOL
REMARK 922        TOTAL FREE ENERGY PREDICTED BY IDOCK:   -7.58 KCAL/MOL
REMARK 923 INTER-LIGAND FREE ENERGY PREDICTED BY IDOCK:   -7.15 KCAL/MOL
REMARK 924 INTRA-LIGAND FREE ENERGY PREDICTED BY IDOCK:   -0.43 KCAL/MOL
REMARK 927      BINDING AFFINITY PREDICTED BY RF-SCORE:    0.00 PKD
ROOT
HETATM    1  C   UNL     1      -8.153   9.365  65.869  1.00  0.00    -0.114 C  
HETATM    2  C   UNL     1      -9.622   8.974  66.056  1.00  0.00    -0.272 C  
HETATM    3  C   UNL     1      -9.793   7.822  67.049  1.00  0.00    -0.219 C  
HETATM    4  O   UNL     1      -9.780   8.196  68.422  1.00  0.00    -0.155 OA 
HETATM    5  C   UNL     1     -10.562   9.285  68.741  1.00  0.00    -0.193 A  
HETATM    6  C   UNL     1     -10.834  10.276  67.764  1.00  0.00    -0.292 A  
HETATM    7  N   UNL     1     -10.423  10.150  66.416  1.00  0.00    -0.179 NA 
HETATM    8  C   UNL     1     -10.681  11.187  65.527  1.00  0.00    -0.185 C  
HETATM    9  C   UNL     1     -11.308  12.340  65.807  1.00  0.00    -0.400 C  
HETATM   10  C   UNL     1     -11.780  12.514  67.195  1.00  0.00    -0.355 C  
HETATM   11  C   UNL     1     -11.468  13.359  64.751  1.00  0.00    -0.336 C  
HETATM   12  C   UNL     1     -11.539  11.424  68.166  1.00  0.00    -0.364 A  
HETATM   13  O   UNL     1     -11.085  13.203  63.601  1.00  0.00    -0.324 OA 
HETATM   14  O   UNL     1     -12.067  14.498  65.162  1.00  0.00    -0.383 OA 
HETATM   15  O   UNL     1     -12.350  13.554  67.523  1.00  0.00    -0.259 OA 
HETATM   16  C   UNL     1     -11.987  11.583  69.472  1.00  0.00    -0.402 A  
HETATM   17  C   UNL     1     -11.734  10.585  70.400  1.00  0.00    -0.344 A  
HETATM   18  C   UNL     1     -11.026   9.402  70.086  1.00  0.00    -0.246 A  
HETATM   19  F   UNL     1     -12.136  10.826  71.661  1.00  0.00    -0.393 F  
ENDROOT
BRANCH  18  20
HETATM   20  N   UNL     1     -10.785   8.462  71.085  1.00  0.00    -0.223 NA 
HETATM   21  C   UNL     1     -11.801   7.506  71.538  1.00  0.00    -0.295 C  
HETATM   22  C   UNL     1     -11.138   6.146  71.867  1.00  0.00    -0.274 C  
HETATM   23  N   UNL     1      -9.979   6.195  72.786  1.00  0.00    -0.171 NA 
HETATM   24  C   UNL     1      -9.019   7.209  72.288  1.00  0.00    -0.131 C  
HETATM   25  C   UNL     1     -10.398   6.478  74.156  1.00  0.00    -0.329 C  
HETATM   26  C   UNL     1      -9.630   8.601  71.995  1.00  0.00    -0.314 C  
ENDBRANCH  18  20
TORSDOF 1
ENDMDL
MODEL       14
REMARK 921   NORMALIZED FREE ENERGY PREDICTED BY IDOCK:   -6.72 KCAL/MOL
REMARK 922        TOTAL FREE ENERGY PREDICTED BY IDOCK:   -7.52 KCAL/MOL
REMARK 923 INTER-LIGAND FREE ENERGY PREDICTED BY IDOCK:   -7.14 KCAL/MOL
REMARK 924 INTRA-LIGAND FREE ENERGY PREDICTED BY IDOCK:   -0.37 KCAL/MOL
REMARK 927      BINDING AFFINITY PREDICTED BY RF-SCORE:    0.00 PKD
ROOT
HETATM    1  C   UNL     1      -9.373  13.957  68.172  1.00  0.00    -0.203 C  
HETATM    2  C   UNL     1     -10.622  13.174  67.757  1.00  0.00    -0.234 C  
HETATM    3  C   UNL     1     -10.284  11.959  66.890  1.00  0.00    -0.208 C  
HETATM    4  O   UNL     1      -9.868  10.800  67.603  1.00  0.00    -0.167 OA 
HETATM    5  C   UNL     1     -10.646  10.469  68.691  1.00  0.00    -0.200 A  
HETATM    6  C   UNL     1     -11.369  11.475  69.381  1.00  0.00    -0.289 A  
HETATM    7  N   UNL     1     -11.418  12.818  68.938  1.00  0.00    -0.285 NA 
HETATM    8  C   UNL     1     -12.104  13.759  69.696  1.00  0.00    -0.336 C  
HETATM    9  C   UNL     1     -12.761  13.533  70.844  1.00  0.00    -0.366 C  
HETATM   10  C   UNL     1     -12.763  12.143  71.340  1.00  0.00    -0.263 C  
HETATM   11  C   UNL     1     -13.409  14.657  71.547  1.00  0.00    -0.364 C  
HETATM   12  C   UNL     1     -12.058  11.109  70.551  1.00  0.00    -0.474 A  
HETATM   13  O   UNL     1     -13.414  15.804  71.125  1.00  0.00    -0.575 OA 
HETATM   14  O   UNL     1     -13.995  14.320  72.717  1.00  0.00    -0.600 OA 
HETATM   15  O   UNL     1     -13.335  11.869  72.395  1.00  0.00    -0.370 OA 
HETATM   16  C   UNL     1     -12.061   9.798  71.014  1.00  0.00    -0.434 A  
HETATM   17  C   UNL     1     -11.373   8.828  70.303  1.00  0.00    -0.147 A  
HETATM   18  C   UNL     1     -10.647   9.108  69.121  1.00  0.00    -0.208 A  
HETATM   19  F   UNL     1     -11.361   7.594  70.835  1.00  0.00    -0.258 F  
ENDROOT
BRANCH  18  20
HETATM   20  N   UNL     1      -9.954   8.081  68.485  1.00  0.00    -0.186 NA 
HETATM   21  C   UNL     1      -8.553   7.765  68.782  1.00  0.00    -0.129 C  
HETATM   22  C   UNL     1      -8.332   6.234  68.717  1.00  0.00    -0.120 C  
HETATM   23  N   UNL     1      -8.799   5.561  67.484  1.00  0.00    -0.107 NA 
HETATM   24  C   UNL     1     -10.203   5.961  67.227  1.00  0.00    -0.200 C  
HETATM   25  C   UNL     1      -7.935   5.873  66.349  1.00  0.00    -0.102 C  
HETATM   26  C   UNL     1     -10.461   7.488  67.230  1.00  0.00    -0.321 C  
ENDBRANCH  18  20
TORSDOF 1
ENDMDL
MODEL       15
REMARK 921   NORMALIZED FREE ENERGY PREDICTED BY IDOCK:   -6.71 KCAL/MOL
REMARK 922        TOTAL FREE ENERGY PREDICTED BY IDOCK:   -7.50 KCAL/MOL
REMARK 923 INTER-LIGAND FREE ENERGY PREDICTED BY IDOCK:   -7.09 KCAL/MOL
REMARK 924 INTRA-LIGAND FREE ENERGY PREDICTED BY IDOCK:   -0.41 KCAL/MOL
REMARK 927      BINDING AFFINITY PREDICTED BY RF-SCORE:    0.00 PKD
ROOT
HETATM    1  C   UNL     1      -8.112  12.029  68.230  1.00  0.00    -0.155 C  
HETATM    2  C   UNL     1      -9.470  11.431  67.852  1.00  0.00    -0.174 C  
HETATM    3  C   UNL     1      -9.428   9.903  67.770  1.00  0.00    -0.140 C  
HETATM    4  O   UNL     1      -9.544   9.224  69.015  1.00  0.00    -0.155 OA 
HETATM    5  C   UNL     1     -10.549   9.678  69.841  1.00  0.00    -0.249 A  
HETATM    6  C   UNL     1     -10.990  11.023  69.750  1.00  0.00    -0.193 A  
HETATM    7  N   UNL     1     -10.514  11.917  68.761  1.00  0.00    -0.207 NA 
HETATM    8  C   UNL     1     -10.955  13.234  68.768  1.00  0.00    -0.260 C  
HETATM    9  C   UNL     1     -11.821  13.781  69.634  1.00  0.00    -0.393 C  
HETATM   10  C   UNL     1     -12.369  12.887  70.673  1.00  0.00    -0.302 C  
HETATM   11  C   UNL     1     -12.156  15.215  69.525  1.00  0.00    -0.283 C  
HETATM   12  C   UNL     1     -11.937  11.472  70.688  1.00  0.00    -0.391 A  
HETATM   13  O   UNL     1     -11.708  15.946  68.654  1.00  0.00    -0.387 OA 
HETATM   14  O   UNL     1     -12.998  15.666  70.480  1.00  0.00    -0.429 OA 
HETATM   15  O   UNL     1     -13.158  13.328  71.508  1.00  0.00    -0.363 OA 
HETATM   16  C   UNL     1     -12.454  10.627  71.663  1.00  0.00    -0.416 A  
HETATM   17  C   UNL     1     -12.029   9.309  71.709  1.00  0.00    -0.385 A  
HETATM   18  C   UNL     1     -11.075   8.774  70.812  1.00  0.00    -0.260 A  
HETATM   19  F   UNL     1     -12.517   8.559  72.713  1.00  0.00    -0.447 F  
ENDROOT
BRANCH  18  20
HETATM   20  N   UNL     1     -10.677   7.447  70.948  1.00  0.00    -0.232 NA 
HETATM   21  C   UNL     1     -11.392   6.333  70.314  1.00  0.00    -0.388 C  
HETATM   22  C   UNL     1     -10.384   5.258  69.842  1.00  0.00    -0.304 C  
HETATM   23  N   UNL     1      -9.416   4.784  70.857  1.00  0.00    -0.154 NA 
HETATM   24  C   UNL     1      -8.766   5.962  71.481  1.00  0.00    -0.132 C  
HETATM   25  C   UNL     1     -10.064   3.937  71.854  1.00  0.00    -0.134 C  
HETATM   26  C   UNL     1      -9.740   7.041  72.016  1.00  0.00    -0.155 C  
ENDBRANCH  18  20
TORSDOF 1
ENDMDL
MODEL       16
REMARK 921   NORMALIZED FREE ENERGY PREDICTED BY IDOCK:   -6.69 KCAL/MOL
REMARK 922        TOTAL FREE ENERGY PREDICTED BY IDOCK:   -7.48 KCAL/MOL
REMARK 923 INTER-LIGAND FREE ENERGY PREDICTED BY IDOCK:   -7.15 KCAL/MOL
REMARK 924 INTRA-LIGAND FREE ENERGY PREDICTED BY IDOCK:   -0.33 KCAL/MOL
REMARK 927      BINDING AFFINITY PREDICTED BY RF-SCORE:    0.00 PKD
ROOT
HETATM    1  C   UNL     1      -7.751   8.997  65.831  1.00  0.00    -0.094 C  
HETATM    2  C   UNL     1      -9.233   8.622  65.912  1.00  0.00    -0.202 C  
HETATM    3  C   UNL     1      -9.487   7.467  66.885  1.00  0.00    -0.171 C  
HETATM    4  O   UNL     1      -9.566   7.834  68.257  1.00  0.00    -0.151 OA 
HETATM    5  C   UNL     1     -10.356   8.931  68.527  1.00  0.00    -0.198 A  
HETATM    6  C   UNL     1     -10.547   9.929  67.539  1.00  0.00    -0.275 A  
HETATM    7  N   UNL     1     -10.044   9.806  66.222  1.00  0.00    -0.251 NA 
HETATM    8  C   UNL     1     -10.228  10.850  65.324  1.00  0.00    -0.288 C  
HETATM    9  C   UNL     1     -10.859  12.008  65.566  1.00  0.00    -0.336 C  
HETATM   10  C   UNL     1     -11.426  12.181  66.918  1.00  0.00    -0.351 C  
HETATM   11  C   UNL     1     -10.933  13.034  64.507  1.00  0.00    -0.358 C  
HETATM   12  C   UNL     1     -11.266  11.083  67.897  1.00  0.00    -0.375 A  
HETATM   13  O   UNL     1     -10.472  12.880  63.386  1.00  0.00    -0.223 OA 
HETATM   14  O   UNL     1     -11.547  14.178  64.881  1.00  0.00    -0.345 OA 
HETATM   15  O   UNL     1     -12.005  13.226  67.211  1.00  0.00    -0.367 OA 
HETATM   16  C   UNL     1     -11.802  11.242  69.170  1.00  0.00    -0.423 A  
HETATM   17  C   UNL     1     -11.627  10.236  70.107  1.00  0.00    -0.299 A  
HETATM   18  C   UNL     1     -10.912   9.046  69.836  1.00  0.00    -0.193 A  
HETATM   19  F   UNL     1     -12.113  10.475  71.338  1.00  0.00    -0.415 F  
ENDROOT
BRANCH  18  20
HETATM   20  N   UNL     1     -10.753   8.099  70.845  1.00  0.00    -0.217 NA 
HETATM   21  C   UNL     1      -9.679   8.172  71.842  1.00  0.00    -0.205 C  
HETATM   22  C   UNL     1     -10.200   7.683  73.216  1.00  0.00    -0.339 C  
HETATM   23  N   UNL     1     -10.870   6.363  73.224  1.00  0.00    -0.261 NA 
HETATM   24  C   UNL     1     -11.909   6.351  72.167  1.00  0.00    -0.314 C  
HETATM   25  C   UNL     1      -9.910   5.278  73.047  1.00  0.00    -0.154 C  
HETATM   26  C   UNL     1     -11.420   6.783  70.762  1.00  0.00    -0.342 C  
ENDBRANCH  18  20
TORSDOF 1
ENDMDL
MODEL       17
REMARK 921   NORMALIZED FREE ENERGY PREDICTED BY IDOCK:   -6.64 KCAL/MOL
REMARK 922        TOTAL FREE ENERGY PREDICTED BY IDOCK:   -7.43 KCAL/MOL
REMARK 923 INTER-LIGAND FREE ENERGY PREDICTED BY IDOCK:   -7.04 KCAL/MOL
REMARK 924 INTRA-LIGAND FREE ENERGY PREDICTED BY IDOCK:   -0.39 KCAL/MOL
REMARK 927      BINDING AFFINITY PREDICTED BY RF-SCORE:    0.00 PKD
ROOT
HETATM    1  C   UNL     1      -7.445  11.530  68.561  1.00  0.00    -0.115 C  
HETATM    2  C   UNL     1      -8.766  10.975  68.020  1.00  0.00    -0.138 C  
HETATM    3  C   UNL     1      -8.914   9.474  68.282  1.00  0.00    -0.124 C  
HETATM    4  O   UNL     1      -9.371   9.126  69.583  1.00  0.00    -0.159 OA 
HETATM    5  C   UNL     1     -10.453   9.847  70.039  1.00  0.00    -0.284 A  
HETATM    6  C   UNL     1     -10.681  11.163  69.562  1.00  0.00    -0.143 A  
HETATM    7  N   UNL     1      -9.898  11.750  68.539  1.00  0.00    -0.204 NA 
HETATM    8  C   UNL     1     -10.150  13.063  68.161  1.00  0.00    -0.237 C  
HETATM    9  C   UNL     1     -11.093  13.872  68.666  1.00  0.00    -0.290 C  
HETATM   10  C   UNL     1     -11.956  13.302  69.719  1.00  0.00    -0.324 C  
HETATM   11  C   UNL     1     -11.203  15.260  68.176  1.00  0.00    -0.324 C  
HETATM   12  C   UNL     1     -11.730  11.901  70.138  1.00  0.00    -0.337 A  
HETATM   13  O   UNL     1     -10.493  15.722  67.295  1.00  0.00    -0.294 OA 
HETATM   14  O   UNL     1     -12.153  15.996  68.793  1.00  0.00    -0.255 OA 
HETATM   15  O   UNL     1     -12.832  13.996  70.236  1.00  0.00    -0.279 OA 
HETATM   16  C   UNL     1     -12.543  11.361  71.127  1.00  0.00    -0.490 A  
HETATM   17  C   UNL     1     -12.318  10.062  71.553  1.00  0.00    -0.419 A  
HETATM   18  C   UNL     1     -11.282   9.250  71.035  1.00  0.00    -0.321 A  
HETATM   19  F   UNL     1     -13.096   9.618  72.555  1.00  0.00    -0.465 F  
ENDROOT
BRANCH  18  20
HETATM   20  N   UNL     1     -11.101   7.965  71.541  1.00  0.00    -0.237 NA 
HETATM   21  C   UNL     1     -11.745   6.783  70.958  1.00  0.00    -0.355 C  
HETATM   22  C   UNL     1     -10.784   5.570  71.026  1.00  0.00    -0.205 C  
HETATM   23  N   UNL     1     -10.199   5.279  72.354  1.00  0.00    -0.189 NA 
HETATM   24  C   UNL     1      -9.607   6.526  72.897  1.00  0.00    -0.149 C  
HETATM   25  C   UNL     1     -11.195   4.718  73.262  1.00  0.00    -0.340 C  
HETATM   26  C   UNL     1     -10.551   7.754  72.897  1.00  0.00    -0.366 C  
ENDBRANCH  18  20
TORSDOF 1
ENDMDL
MODEL       18
REMARK 921   NORMALIZED FREE ENERGY PREDICTED BY IDOCK:   -6.62 KCAL/MOL
REMARK 922        TOTAL FREE ENERGY PREDICTED BY IDOCK:   -7.41 KCAL/MOL
REMARK 923 INTER-LIGAND FREE ENERGY PREDICTED BY IDOCK:   -7.09 KCAL/MOL
REMARK 924 INTRA-LIGAND FREE ENERGY PREDICTED BY IDOCK:   -0.31 KCAL/MOL
REMARK 927      BINDING AFFINITY PREDICTED BY RF-SCORE:    0.00 PKD
ROOT
HETATM    1  C   UNL     1     -10.389   6.659  66.716  1.00  0.00    -0.280 C  
HETATM    2  C   UNL     1      -9.451   7.540  67.547  1.00  0.00    -0.139 C  
HETATM    3  C   UNL     1      -9.084   8.838  66.824  1.00  0.00    -0.146 C  
HETATM    4  O   UNL     1     -10.048   9.880  66.917  1.00  0.00    -0.202 OA 
HETATM    5  C   UNL     1     -10.548  10.107  68.181  1.00  0.00    -0.223 A  
HETATM    6  C   UNL     1     -10.583   9.054  69.130  1.00  0.00    -0.203 A  
HETATM    7  N   UNL     1     -10.021   7.780  68.878  1.00  0.00    -0.177 NA 
HETATM    8  C   UNL     1     -10.140   6.783  69.838  1.00  0.00    -0.180 C  
HETATM    9  C   UNL     1     -10.743   6.892  71.031  1.00  0.00    -0.258 C  
HETATM   10  C   UNL     1     -11.326   8.209  71.358  1.00  0.00    -0.259 C  
HETATM   11  C   UNL     1     -10.816   5.718  71.923  1.00  0.00    -0.252 C  
HETATM   12  C   UNL     1     -11.204   9.301  70.367  1.00  0.00    -0.290 A  
HETATM   13  O   UNL     1     -10.321   4.635  71.652  1.00  0.00    -0.187 OA 
HETATM   14  O   UNL     1     -11.491   5.932  73.074  1.00  0.00    -0.223 OA 
HETATM   15  O   UNL     1     -11.907   8.373  72.430  1.00  0.00    -0.372 OA 
HETATM   16  C   UNL     1     -11.748  10.543  70.674  1.00  0.00    -0.453 A  
HETATM   17  C   UNL     1     -11.673  11.564  69.739  1.00  0.00    -0.353 A  
HETATM   18  C   UNL     1     -11.073  11.402  68.468  1.00  0.00    -0.235 A  
HETATM   19  F   UNL     1     -12.272  12.721  70.068  1.00  0.00    -0.355 F  
ENDROOT
BRANCH  18  20
HETATM   20  N   UNL     1     -11.068  12.469  67.573  1.00  0.00    -0.254 NA 
HETATM   21  C   UNL     1     -11.904  12.499  66.368  1.00  0.00    -0.381 C  
HETATM   22  C   UNL     1     -12.408  13.941  66.110  1.00  0.00    -0.465 C  
HETATM   23  N   UNL     1     -11.371  14.997  66.088  1.00  0.00    -0.314 NA 
HETATM   24  C   UNL     1     -10.543  14.877  67.312  1.00  0.00    -0.272 C  
HETATM   25  C   UNL     1     -10.557  14.917  64.879  1.00  0.00    -0.391 C  
HETATM   26  C   UNL     1      -9.974  13.462  67.582  1.00  0.00    -0.229 C  
ENDBRANCH  18  20
TORSDOF 1
ENDMDL
MODEL       19
REMARK 921   NORMALIZED FREE ENERGY PREDICTED BY IDOCK:   -6.59 KCAL/MOL
REMARK 922        TOTAL FREE ENERGY PREDICTED BY IDOCK:   -7.37 KCAL/MOL
REMARK 923 INTER-LIGAND FREE ENERGY PREDICTED BY IDOCK:   -6.94 KCAL/MOL
REMARK 924 INTRA-LIGAND FREE ENERGY PREDICTED BY IDOCK:   -0.43 KCAL/MOL
REMARK 927      BINDING AFFINITY PREDICTED BY RF-SCORE:    0.00 PKD
ROOT
HETATM    1  C   UNL     1      -8.308  15.717  68.483  1.00  0.00    -0.175 C  
HETATM    2  C   UNL     1      -7.928  14.785  67.329  1.00  0.00    -0.205 C  
HETATM    3  C   UNL     1      -7.088  13.594  67.798  1.00  0.00    -0.161 C  
HETATM    4  O   UNL     1      -7.826  12.510  68.351  1.00  0.00    -0.138 OA 
HETATM    5  C   UNL     1      -8.930  12.120  67.626  1.00  0.00    -0.178 A  
HETATM    6  C   UNL     1      -9.603  13.055  66.798  1.00  0.00    -0.248 A  
HETATM    7  N   UNL     1      -9.126  14.371  66.590  1.00  0.00    -0.259 NA 
HETATM    8  C   UNL     1      -9.868  15.246  65.805  1.00  0.00    -0.361 C  
HETATM    9  C   UNL     1     -11.029  14.976  65.189  1.00  0.00    -0.417 C  
HETATM   10  C   UNL     1     -11.560  13.609  65.352  1.00  0.00    -0.321 C  
HETATM   11  C   UNL     1     -11.711  16.036  64.421  1.00  0.00    -0.134 C  
HETATM   12  C   UNL     1     -10.789  12.643  66.166  1.00  0.00    -0.301 A  
HETATM   13  O   UNL     1     -11.259  17.163  64.280  1.00  0.00    -1.126 OA 
HETATM   14  O   UNL     1     -12.895  15.665  63.888  1.00  0.00    -0.619 OA 
HETATM   15  O   UNL     1     -12.628  13.299  64.824  1.00  0.00    -0.577 OA 
HETATM   16  C   UNL     1     -11.285  11.353  66.317  1.00  0.00    -0.228 A  
HETATM   17  C   UNL     1     -10.591  10.450  67.107  1.00  0.00    -0.261 A  
HETATM   18  C   UNL     1      -9.395  10.781  67.786  1.00  0.00    -0.152 A  
HETATM   19  F   UNL     1     -11.154   9.240  67.266  1.00  0.00    -0.306 F  
ENDROOT
BRANCH  18  20
HETATM   20  N   UNL     1      -8.776   9.824  68.588  1.00  0.00    -0.119 NA 
HETATM   21  C   UNL     1      -7.957   8.738  68.040  1.00  0.00    -0.106 C  
HETATM   22  C   UNL     1      -6.760   8.453  68.980  1.00  0.00    -0.052 C  
HETATM   23  N   UNL     1      -7.093   8.228  70.405  1.00  0.00    -0.037 NA 
HETATM   24  C   UNL     1      -7.954   9.340  70.874  1.00  0.00    -0.122 C  
HETATM   25  C   UNL     1      -7.734   6.931  70.602  1.00  0.00    -0.096 C  
HETATM   26  C   UNL     1      -9.194   9.626  69.991  1.00  0.00    -0.241 C  
ENDBRANCH  18  20
TORSDOF 1
ENDMDL
MODEL       20
REMARK 921   NORMALIZED FREE ENERGY PREDICTED BY IDOCK:   -6.57 KCAL/MOL
REMARK 922        TOTAL FREE ENERGY PREDICTED BY IDOCK:   -7.35 KCAL/MOL
REMARK 923 INTER-LIGAND FREE ENERGY PREDICTED BY IDOCK:   -6.92 KCAL/MOL
REMARK 924 INTRA-LIGAND FREE ENERGY PREDICTED BY IDOCK:   -0.43 KCAL/MOL
REMARK 927      BINDING AFFINITY PREDICTED BY RF-SCORE:    0.00 PKD
ROOT
HETATM    1  C   UNL     1      -9.472  15.649  68.545  1.00  0.00    -0.200 C  
HETATM    2  C   UNL     1     -10.595  14.900  67.822  1.00  0.00    -0.262 C  
HETATM    3  C   UNL     1     -10.088  14.142  66.592  1.00  0.00    -0.275 C  
HETATM    4  O   UNL     1      -9.498  12.875  66.859  1.00  0.00    -0.223 OA 
HETATM    5  C   UNL     1     -10.207  12.066  67.719  1.00  0.00    -0.202 A  
HETATM    6  C   UNL     1     -11.065  12.641  68.691  1.00  0.00    -0.266 A  
HETATM    7  N   UNL     1     -11.317  14.032  68.759  1.00  0.00    -0.260 NA 
HETATM    8  C   UNL     1     -12.129  14.526  69.772  1.00  0.00    -0.331 C  
HETATM    9  C   UNL     1     -12.734  13.810  70.731  1.00  0.00    -0.361 C  
HETATM   10  C   UNL     1     -12.524  12.349  70.695  1.00  0.00    -0.234 C  
HETATM   11  C   UNL     1     -13.535  14.499  71.762  1.00  0.00    -0.375 C  
HETATM   12  C   UNL     1     -11.680  11.782  69.620  1.00  0.00    -0.413 A  
HETATM   13  O   UNL     1     -13.714  15.707  71.779  1.00  0.00    -0.471 OA 
HETATM   14  O   UNL     1     -14.053  13.682  72.705  1.00  0.00    -0.746 OA 
HETATM   15  O   UNL     1     -13.038  11.634  71.554  1.00  0.00    -0.412 OA 
HETATM   16  C   UNL     1     -11.484  10.407  69.580  1.00  0.00    -0.326 A  
HETATM   17  C   UNL     1     -10.666   9.868  68.600  1.00  0.00    -0.226 A  
HETATM   18  C   UNL     1     -10.002  10.656  67.632  1.00  0.00    -0.169 A  
HETATM   19  F   UNL     1     -10.466   8.540  68.653  1.00  0.00    -0.213 F  
ENDROOT
BRANCH  18  20
HETATM   20  N   UNL     1      -9.170  10.039  66.701  1.00  0.00    -0.147 NA 
HETATM   21  C   UNL     1      -9.682   9.346  65.514  1.00  0.00    -0.230 C  
HETATM   22  C   UNL     1      -8.730   9.576  64.315  1.00  0.00    -0.207 C  
HETATM   23  N   UNL     1      -7.300   9.277  64.554  1.00  0.00    -0.099 NA 
HETATM   24  C   UNL     1      -6.867   9.976  65.787  1.00  0.00    -0.111 C  
HETATM   25  C   UNL     1      -7.066   7.838  64.640  1.00  0.00    -0.068 C  
HETATM   26  C   UNL     1      -7.762   9.731  67.028  1.00  0.00    -0.095 C  
ENDBRANCH  18  20
TORSDOF 1
ENDMDL
MODEL       21
REMARK 921   NORMALIZED FREE ENERGY PREDICTED BY IDOCK:   -6.56 KCAL/MOL
REMARK 922        TOTAL FREE ENERGY PREDICTED BY IDOCK:   -7.34 KCAL/MOL
REMARK 923 INTER-LIGAND FREE ENERGY PREDICTED BY IDOCK:   -7.18 KCAL/MOL
REMARK 924 INTRA-LIGAND FREE ENERGY PREDICTED BY IDOCK:   -0.16 KCAL/MOL
REMARK 927      BINDING AFFINITY PREDICTED BY RF-SCORE:    0.00 PKD
ROOT
HETATM    1  C   UNL     1     -10.361  15.959  70.045  1.00  0.00    -0.242 C  
HETATM    2  C   UNL     1      -9.291  15.668  68.989  1.00  0.00    -0.243 C  
HETATM    3  C   UNL     1      -8.797  14.220  69.047  1.00  0.00     0.063 C  
HETATM    4  O   UNL     1      -9.623  13.270  68.385  1.00  0.00    -0.220 OA 
HETATM    5  C   UNL     1     -10.040  13.632  67.123  1.00  0.00    -0.245 A  
HETATM    6  C   UNL     1     -10.164  15.003  66.781  1.00  0.00    -0.260 A  
HETATM    7  N   UNL     1      -9.772  16.045  67.655  1.00  0.00    -0.223 NA 
HETATM    8  C   UNL     1      -9.972  17.365  67.271  1.00  0.00    -0.302 C  
HETATM    9  C   UNL     1     -10.509  17.787  66.116  1.00  0.00    -0.301 C  
HETATM   10  C   UNL     1     -10.913  16.741  65.155  1.00  0.00    -0.100 C  
HETATM   11  C   UNL     1     -10.687  19.233  65.879  1.00  0.00    -0.372 C  
HETATM   12  C   UNL     1     -10.700  15.324  65.522  1.00  0.00    -0.385 A  
HETATM   13  O   UNL     1     -10.339  20.094  66.674  1.00  0.00    -0.445 OA 
HETATM   14  O   UNL     1     -11.284  19.537  64.706  1.00  0.00    -0.058 OA 
HETATM   15  O   UNL     1     -11.426  17.060  64.083  1.00  0.00    -1.135 OA 
HETATM   16  C   UNL     1     -11.077  14.338  64.618  1.00  0.00    -0.371 A  
HETATM   17  C   UNL     1     -10.916  13.006  64.964  1.00  0.00    -0.298 A  
HETATM   18  C   UNL     1     -10.393  12.592  66.212  1.00  0.00    -0.250 A  
HETATM   19  F   UNL     1     -11.357  12.099  64.075  1.00  0.00    -0.346 F  
ENDROOT
BRANCH  18  20
HETATM   20  N   UNL     1     -10.295  11.231  66.495  1.00  0.00    -0.232 NA 
HETATM   21  C   UNL     1      -9.551  10.294  65.646  1.00  0.00    -0.232 C  
HETATM   22  C   UNL     1      -8.849   9.229  66.524  1.00  0.00    -0.133 C  
HETATM   23  N   UNL     1      -9.708   8.524  67.501  1.00  0.00    -0.154 NA 
HETATM   24  C   UNL     1     -10.456   9.532  68.291  1.00  0.00    -0.223 C  
HETATM   25  C   UNL     1     -10.607   7.585  66.838  1.00  0.00    -0.297 C  
HETATM   26  C   UNL     1     -11.218  10.587  67.452  1.00  0.00    -0.173 C  
ENDBRANCH  18  20
TORSDOF 1
ENDMDL
MODEL       22
REMARK 921   NORMALIZED FREE ENERGY PREDICTED BY IDOCK:   -6.46 KCAL/MOL
REMARK 922        TOTAL FREE ENERGY PREDICTED BY IDOCK:   -7.24 KCAL/MOL
REMARK 923 INTER-LIGAND FREE ENERGY PREDICTED BY IDOCK:   -7.21 KCAL/MOL
REMARK 924 INTRA-LIGAND FREE ENERGY PREDICTED BY IDOCK:   -0.03 KCAL/MOL
REMARK 927      BINDING AFFINITY PREDICTED BY RF-SCORE:    0.00 PKD
ROOT
HETATM    1  C   UNL     1     -13.895  15.716  70.971  1.00  0.00    -0.027 C  
HETATM    2  C   UNL     1     -12.435  15.301  71.172  1.00  0.00    -0.375 C  
HETATM    3  C   UNL     1     -12.300  14.065  72.064  1.00  0.00    -0.079 C  
HETATM    4  O   UNL     1     -12.501  12.818  71.410  1.00  0.00    -0.271 OA 
HETATM    5  C   UNL     1     -11.843  12.672  70.208  1.00  0.00    -0.214 A  
HETATM    6  C   UNL     1     -11.528  13.813  69.427  1.00  0.00    -0.286 A  
HETATM    7  N   UNL     1     -11.767  15.134  69.876  1.00  0.00    -0.292 NA 
HETATM    8  C   UNL     1     -11.480  16.200  69.032  1.00  0.00    -0.323 C  
HETATM    9  C   UNL     1     -10.974  16.123  67.792  1.00  0.00    -0.293 C  
HETATM   10  C   UNL     1     -10.682  14.769  67.283  1.00  0.00    -0.294 C  
HETATM   11  C   UNL     1     -10.764  17.357  67.012  1.00  0.00    -0.162 C  
HETATM   12  C   UNL     1     -10.958  13.608  68.158  1.00  0.00    -0.273 A  
HETATM   13  O   UNL     1     -10.997  18.476  67.444  1.00  0.00    -0.376 OA 
HETATM   14  O   UNL     1     -10.299  17.153  65.759  1.00  0.00    -0.504 OA 
HETATM   15  O   UNL     1     -10.230  14.625  66.147  1.00  0.00    -0.277 OA 
HETATM   16  C   UNL     1     -10.680  12.332  67.682  1.00  0.00    -0.250 A  
HETATM   17  C   UNL     1     -10.969  11.236  68.479  1.00  0.00    -0.220 A  
HETATM   18  C   UNL     1     -11.550  11.348  69.764  1.00  0.00    -0.332 A  
HETATM   19  F   UNL     1     -10.737  10.027  67.938  1.00  0.00    -0.236 F  
ENDROOT
BRANCH  18  20
HETATM   20  N   UNL     1     -11.839  10.194  70.487  1.00  0.00    -0.301 NA 
HETATM   21  C   UNL     1     -10.855   9.128  70.710  1.00  0.00    -0.268 C  
HETATM   22  C   UNL     1     -11.035   8.532  72.128  1.00  0.00    -0.357 C  
HETATM   23  N   UNL     1     -12.405   8.099  72.482  1.00  0.00    -0.293 NA 
HETATM   24  C   UNL     1     -13.345   9.209  72.191  1.00  0.00    -0.463 C  
HETATM   25  C   UNL     1     -12.778   6.879  71.771  1.00  0.00    -0.327 C  
HETATM   26  C   UNL     1     -13.236   9.802  70.764  1.00  0.00    -0.117 C  
ENDBRANCH  18  20
TORSDOF 1
ENDMDL
MODEL       23
REMARK 921   NORMALIZED FREE ENERGY PREDICTED BY IDOCK:   -6.43 KCAL/MOL
REMARK 922        TOTAL FREE ENERGY PREDICTED BY IDOCK:   -7.21 KCAL/MOL
REMARK 923 INTER-LIGAND FREE ENERGY PREDICTED BY IDOCK:   -6.91 KCAL/MOL
REMARK 924 INTRA-LIGAND FREE ENERGY PREDICTED BY IDOCK:   -0.30 KCAL/MOL
REMARK 927      BINDING AFFINITY PREDICTED BY RF-SCORE:    0.00 PKD
ROOT
HETATM    1  C   UNL     1     -11.449  11.782  66.239  1.00  0.00    -0.296 C  
HETATM    2  C   UNL     1     -10.348  12.077  67.262  1.00  0.00    -0.212 C  
HETATM    3  C   UNL     1      -9.404  13.188  66.794  1.00  0.00    -0.244 C  
HETATM    4  O   UNL     1      -9.874  14.514  67.007  1.00  0.00    -0.240 OA 
HETATM    5  C   UNL     1     -10.393  14.759  68.260  1.00  0.00    -0.238 A  
HETATM    6  C   UNL     1     -10.963  13.701  69.012  1.00  0.00    -0.234 A  
HETATM    7  N   UNL     1     -10.933  12.354  68.579  1.00  0.00    -0.232 NA 
HETATM    8  C   UNL     1     -11.559  11.380  69.346  1.00  0.00    -0.323 C  
HETATM    9  C   UNL     1     -12.210  11.571  70.503  1.00  0.00    -0.469 C  
HETATM   10  C   UNL     1     -12.251  12.955  71.015  1.00  0.00    -0.116 C  
HETATM   11  C   UNL     1     -12.856  10.427  71.176  1.00  0.00    -0.414 C  
HETATM   12  C   UNL     1     -11.581  14.019  70.234  1.00  0.00    -0.240 A  
HETATM   13  O   UNL     1     -12.807   9.282  70.752  1.00  0.00    -0.107 OA 
HETATM   14  O   UNL     1     -13.525  10.749  72.304  1.00  0.00    -0.330 OA 
HETATM   15  O   UNL     1     -12.845  13.203  72.064  1.00  0.00    -0.273 OA 
HETATM   16  C   UNL     1     -11.615  15.322  70.716  1.00  0.00    -0.371 A  
HETATM   17  C   UNL     1     -11.023  16.332  69.976  1.00  0.00    -0.355 A  
HETATM   18  C   UNL     1     -10.386  16.105  68.733  1.00  0.00    -0.248 A  
HETATM   19  F   UNL     1     -11.144  17.580  70.462  1.00  0.00     0.221 F  
ENDROOT
BRANCH  18  20
HETATM   20  N   UNL     1      -9.844  17.182  68.035  1.00  0.00    -0.273 NA 
HETATM   21  C   UNL     1      -8.413  17.502  68.056  1.00  0.00    -0.242 C  
HETATM   22  C   UNL     1      -7.966  18.017  66.665  1.00  0.00    -0.251 C  
HETATM   23  N   UNL     1      -8.769  19.120  66.092  1.00  0.00    -0.450 NA 
HETATM   24  C   UNL     1     -10.202  18.742  66.143  1.00  0.00    -0.421 C  
HETATM   25  C   UNL     1      -8.520  20.378  66.791  1.00  0.00    -0.197 C  
HETATM   26  C   UNL     1     -10.706  18.271  67.530  1.00  0.00    -0.355 C  
ENDBRANCH  18  20
TORSDOF 1
ENDMDL
MODEL       24
REMARK 921   NORMALIZED FREE ENERGY PREDICTED BY IDOCK:   -6.39 KCAL/MOL
REMARK 922        TOTAL FREE ENERGY PREDICTED BY IDOCK:   -7.16 KCAL/MOL
REMARK 923 INTER-LIGAND FREE ENERGY PREDICTED BY IDOCK:   -7.64 KCAL/MOL
REMARK 924 INTRA-LIGAND FREE ENERGY PREDICTED BY IDOCK:    0.47 KCAL/MOL
REMARK 927      BINDING AFFINITY PREDICTED BY RF-SCORE:    0.00 PKD
ROOT
HETATM    1  C   UNL     1     -10.117   7.918  72.379  1.00  0.00    -0.310 C  
HETATM    2  C   UNL     1     -11.433   8.123  71.623  1.00  0.00    -0.274 C  
HETATM    3  C   UNL     1     -12.307   9.204  72.265  1.00  0.00    -0.309 C  
HETATM    4  O   UNL     1     -11.970  10.542  71.920  1.00  0.00    -0.011 OA 
HETATM    5  C   UNL     1     -11.758  10.768  70.578  1.00  0.00    -0.351 A  
HETATM    6  C   UNL     1     -11.313   9.713  69.741  1.00  0.00    -0.120 A  
HETATM    7  N   UNL     1     -11.173   8.382  70.202  1.00  0.00    -0.193 NA 
HETATM    8  C   UNL     1     -10.682   7.411  69.337  1.00  0.00    -0.211 C  
HETATM    9  C   UNL     1     -10.316   7.593  68.059  1.00  0.00    -0.257 C  
HETATM   10  C   UNL     1     -10.465   8.959  67.519  1.00  0.00    -0.269 C  
HETATM   11  C   UNL     1      -9.776   6.458  67.286  1.00  0.00    -0.130 C  
HETATM   12  C   UNL     1     -11.001  10.016  68.404  1.00  0.00    -0.266 A  
HETATM   13  O   UNL     1      -9.666   5.327  67.737  1.00  0.00    -0.128 OA 
HETATM   14  O   UNL     1      -9.393   6.771  66.029  1.00  0.00    -0.109 OA 
HETATM   15  O   UNL     1     -10.135   9.198  66.358  1.00  0.00    -0.283 OA 
HETATM   16  C   UNL     1     -11.146  11.301  67.896  1.00  0.00    -0.325 A  
HETATM   17  C   UNL     1     -11.613  12.308  68.727  1.00  0.00    -0.330 A  
HETATM   18  C   UNL     1     -11.943  12.095  70.086  1.00  0.00    -0.314 A  
HETATM   19  F   UNL     1     -11.671  13.542  68.196  1.00  0.00    -0.311 F  
ENDROOT
BRANCH  18  20
HETATM   20  N   UNL     1     -12.373  13.168  70.862  1.00  0.00    -0.360 NA 
HETATM   21  C   UNL     1     -11.695  14.469  70.866  1.00  0.00    -0.250 C  
HETATM   22  C   UNL     1     -12.737  15.608  70.988  1.00  0.00    -0.460 C  
HETATM   23  N   UNL     1     -13.703  15.487  72.103  1.00  0.00    -0.494 NA 
HETATM   24  C   UNL     1     -14.315  14.137  72.058  1.00  0.00    -0.512 C  
HETATM   25  C   UNL     1     -13.065  15.746  73.390  1.00  0.00    -0.579 C  
HETATM   26  C   UNL     1     -13.307  12.963  71.989  1.00  0.00    -0.482 C  
ENDBRANCH  18  20
TORSDOF 1
ENDMDL
MODEL       25
REMARK 921   NORMALIZED FREE ENERGY PREDICTED BY IDOCK:   -6.35 KCAL/MOL
REMARK 922        TOTAL FREE ENERGY PREDICTED BY IDOCK:   -7.12 KCAL/MOL
REMARK 923 INTER-LIGAND FREE ENERGY PREDICTED BY IDOCK:   -6.75 KCAL/MOL
REMARK 924 INTRA-LIGAND FREE ENERGY PREDICTED BY IDOCK:   -0.37 KCAL/MOL
REMARK 927      BINDING AFFINITY PREDICTED BY RF-SCORE:    0.00 PKD
ROOT
HETATM    1  C   UNL     1     -13.284   9.836  71.519  1.00  0.00    -0.493 C  
HETATM    2  C   UNL     1     -11.775  10.033  71.342  1.00  0.00    -0.334 C  
HETATM    3  C   UNL     1     -11.031   8.703  71.194  1.00  0.00    -0.260 C  
HETATM    4  O   UNL     1     -11.049   8.138  69.889  1.00  0.00    -0.212 OA 
HETATM    5  C   UNL     1     -10.766   9.014  68.865  1.00  0.00    -0.123 A  
HETATM    6  C   UNL     1     -11.041  10.397  69.016  1.00  0.00    -0.248 A  
HETATM    7  N   UNL     1     -11.506  10.954  70.231  1.00  0.00    -0.311 NA 
HETATM    8  C   UNL     1     -11.803  12.310  70.287  1.00  0.00    -0.240 C  
HETATM    9  C   UNL     1     -11.690  13.193  69.285  1.00  0.00    -0.376 C  
HETATM   10  C   UNL     1     -11.186  12.671  67.999  1.00  0.00    -0.265 C  
HETATM   11  C   UNL     1     -12.087  14.598  69.501  1.00  0.00    -0.295 C  
HETATM   12  C   UNL     1     -10.842  11.236  67.905  1.00  0.00    -0.278 A  
HETATM   13  O   UNL     1     -12.492  15.026  70.572  1.00  0.00    -0.328 OA 
HETATM   14  O   UNL     1     -11.979  15.384  68.408  1.00  0.00    -0.301 OA 
HETATM   15  O   UNL     1     -11.071  13.426  67.034  1.00  0.00    -0.282 OA 
HETATM   16  C   UNL     1     -10.363  10.742  66.697  1.00  0.00    -0.294 A  
HETATM   17  C   UNL     1     -10.072   9.392  66.586  1.00  0.00    -0.262 A  
HETATM   18  C   UNL     1     -10.250   8.475  67.648  1.00  0.00    -0.236 A  
HETATM   19  F   UNL     1      -9.673   8.964  65.375  1.00  0.00    -0.279 F  
ENDROOT
BRANCH  18  20
HETATM   20  N   UNL     1      -9.965   7.127  67.444  1.00  0.00    -0.158 NA 
HETATM   21  C   UNL     1     -11.004   6.126  67.181  1.00  0.00    -0.331 C  
HETATM   22  C   UNL     1     -10.485   5.080  66.165  1.00  0.00    -0.286 C  
HETATM   23  N   UNL     1      -9.184   4.451  66.487  1.00  0.00    -0.133 NA 
HETATM   24  C   UNL     1      -8.199   5.520  66.781  1.00  0.00    -0.105 C  
HETATM   25  C   UNL     1      -9.307   3.514  67.599  1.00  0.00    -0.204 C  
HETATM   26  C   UNL     1      -8.656   6.561  67.833  1.00  0.00    -0.117 C  
ENDBRANCH  18  20
TORSDOF 1
ENDMDL
MODEL       26
REMARK 921   NORMALIZED FREE ENERGY PREDICTED BY IDOCK:   -6.29 KCAL/MOL
REMARK 922        TOTAL FREE ENERGY PREDICTED BY IDOCK:   -7.06 KCAL/MOL
REMARK 923 INTER-LIGAND FREE ENERGY PREDICTED BY IDOCK:   -6.63 KCAL/MOL
REMARK 924 INTRA-LIGAND FREE ENERGY PREDICTED BY IDOCK:   -0.43 KCAL/MOL
REMARK 927      BINDING AFFINITY PREDICTED BY RF-SCORE:    0.00 PKD
ROOT
HETATM    1  C   UNL     1     -10.041   9.088  71.772  1.00  0.00    -0.373 C  
HETATM    2  C   UNL     1     -11.198   8.889  70.788  1.00  0.00    -0.272 C  
HETATM    3  C   UNL     1     -11.781  10.218  70.302  1.00  0.00    -0.306 C  
HETATM    4  O   UNL     1     -11.066  10.844  69.243  1.00  0.00    -0.211 OA 
HETATM    5  C   UNL     1     -10.713  10.014  68.201  1.00  0.00    -0.239 A  
HETATM    6  C   UNL     1     -10.522   8.628  68.431  1.00  0.00    -0.176 A  
HETATM    7  N   UNL     1     -10.784   8.019  69.681  1.00  0.00    -0.232 NA 
HETATM    8  C   UNL     1     -10.523   6.663  69.844  1.00  0.00    -0.209 C  
HETATM    9  C   UNL     1     -10.039   5.827  68.914  1.00  0.00    -0.242 C  
HETATM   10  C   UNL     1      -9.771   6.404  67.583  1.00  0.00    -0.118 C  
HETATM   11  C   UNL     1      -9.783   4.416  69.264  1.00  0.00    -0.182 C  
HETATM   12  C   UNL     1     -10.053   7.840  67.365  1.00  0.00    -0.288 A  
HETATM   13  O   UNL     1     -10.018   3.942  70.366  1.00  0.00    -0.162 OA 
HETATM   14  O   UNL     1      -9.248   3.681  68.265  1.00  0.00    -0.136 OA 
HETATM   15  O   UNL     1      -9.313   5.695  66.688  1.00  0.00    -0.134 OA 
HETATM   16  C   UNL     1      -9.805   8.386  66.111  1.00  0.00    -0.183 A  
HETATM   17  C   UNL     1     -10.030   9.738  65.905  1.00  0.00    -0.275 A  
HETATM   18  C   UNL     1     -10.493  10.605  66.921  1.00  0.00    -0.249 A  
HETATM   19  F   UNL     1      -9.711  10.219  64.690  1.00  0.00    -0.293 F  
ENDROOT
BRANCH  18  20
HETATM   20  N   UNL     1     -10.662  11.959  66.641  1.00  0.00    -0.245 NA 
HETATM   21  C   UNL     1     -11.853  12.489  65.968  1.00  0.00    -0.418 C  
HETATM   22  C   UNL     1     -12.224  13.870  66.561  1.00  0.00    -0.442 C  
HETATM   23  N   UNL     1     -11.133  14.869  66.617  1.00  0.00    -0.327 NA 
HETATM   24  C   UNL     1      -9.954  14.250  67.270  1.00  0.00    -0.252 C  
HETATM   25  C   UNL     1     -10.807  15.374  65.286  1.00  0.00    -0.409 C  
HETATM   26  C   UNL     1      -9.514  12.890  66.673  1.00  0.00    -0.255 C  
ENDBRANCH  18  20
TORSDOF 1
ENDMDL
MODEL       27
REMARK 921   NORMALIZED FREE ENERGY PREDICTED BY IDOCK:   -6.27 KCAL/MOL
REMARK 922        TOTAL FREE ENERGY PREDICTED BY IDOCK:   -7.04 KCAL/MOL
REMARK 923 INTER-LIGAND FREE ENERGY PREDICTED BY IDOCK:   -6.67 KCAL/MOL
REMARK 924 INTRA-LIGAND FREE ENERGY PREDICTED BY IDOCK:   -0.37 KCAL/MOL
REMARK 927      BINDING AFFINITY PREDICTED BY RF-SCORE:    0.00 PKD
ROOT
HETATM    1  C   UNL     1      -6.631  11.754  67.958  1.00  0.00    -0.060 C  
HETATM    2  C   UNL     1      -7.927  11.251  67.318  1.00  0.00    -0.141 C  
HETATM    3  C   UNL     1      -8.249   9.808  67.715  1.00  0.00    -0.114 C  
HETATM    4  O   UNL     1      -8.884   9.653  68.979  1.00  0.00    -0.135 OA 
HETATM    5  C   UNL     1      -9.936  10.510  69.217  1.00  0.00    -0.213 A  
HETATM    6  C   UNL     1      -9.980  11.775  68.580  1.00  0.00    -0.199 A  
HETATM    7  N   UNL     1      -9.032  12.173  67.607  1.00  0.00    -0.171 NA 
HETATM    8  C   UNL     1      -9.111  13.450  67.064  1.00  0.00    -0.243 C  
HETATM    9  C   UNL     1     -10.023  14.388  67.360  1.00  0.00    -0.242 C  
HETATM   10  C   UNL     1     -11.052  14.018  68.352  1.00  0.00    -0.253 C  
HETATM   11  C   UNL     1      -9.941  15.714  66.717  1.00  0.00    -0.250 C  
HETATM   12  C   UNL     1     -11.012  12.661  68.939  1.00  0.00    -0.273 A  
HETATM   13  O   UNL     1      -9.093  16.010  65.888  1.00  0.00    -0.333 OA 
HETATM   14  O   UNL     1     -10.880  16.593  67.130  1.00  0.00    -0.253 OA 
HETATM   15  O   UNL     1     -11.910  14.837  68.679  1.00  0.00    -0.318 OA 
HETATM   16  C   UNL     1     -11.982  12.308  69.870  1.00  0.00    -0.377 A  
HETATM   17  C   UNL     1     -11.933  11.053  70.455  1.00  0.00    -0.379 A  
HETATM   18  C   UNL     1     -10.928  10.103  70.159  1.00  0.00    -0.316 A  
HETATM   19  F   UNL     1     -12.861  10.794  71.394  1.00  0.00    -0.419 F  
ENDROOT
BRANCH  18  20
HETATM   20  N   UNL     1     -10.932   8.875  70.816  1.00  0.00    -0.240 NA 
HETATM   21  C   UNL     1     -10.209   8.643  72.071  1.00  0.00    -0.337 C  
HETATM   22  C   UNL     1     -11.026   7.696  72.984  1.00  0.00    -0.400 C  
HETATM   23  N   UNL     1     -11.478   6.428  72.367  1.00  0.00    -0.284 NA 
HETATM   24  C   UNL     1     -12.159   6.739  71.087  1.00  0.00    -0.370 C  
HETATM   25  C   UNL     1     -10.364   5.505  72.172  1.00  0.00    -0.213 C  
HETATM   26  C   UNL     1     -11.355   7.642  70.119  1.00  0.00    -0.132 C  
ENDBRANCH  18  20
TORSDOF 1
ENDMDL
MODEL       28
REMARK 921   NORMALIZED FREE ENERGY PREDICTED BY IDOCK:   -6.20 KCAL/MOL
REMARK 922        TOTAL FREE ENERGY PREDICTED BY IDOCK:   -6.96 KCAL/MOL
REMARK 923 INTER-LIGAND FREE ENERGY PREDICTED BY IDOCK:   -6.63 KCAL/MOL
REMARK 924 INTRA-LIGAND FREE ENERGY PREDICTED BY IDOCK:   -0.33 KCAL/MOL
REMARK 927      BINDING AFFINITY PREDICTED BY RF-SCORE:    0.00 PKD
ROOT
HETATM    1  C   UNL     1     -13.307   9.193  71.251  1.00  0.00    -0.286 C  
HETATM    2  C   UNL     1     -11.950   9.868  71.468  1.00  0.00    -0.390 C  
HETATM    3  C   UNL     1     -10.792   9.033  70.916  1.00  0.00    -0.258 C  
HETATM    4  O   UNL     1     -10.564   9.161  69.517  1.00  0.00    -0.218 OA 
HETATM    5  C   UNL     1     -10.555  10.453  69.039  1.00  0.00    -0.221 A  
HETATM    6  C   UNL     1     -11.291  11.463  69.707  1.00  0.00    -0.255 A  
HETATM    7  N   UNL     1     -11.966  11.233  70.929  1.00  0.00    -0.293 NA 
HETATM    8  C   UNL     1     -12.710  12.260  71.499  1.00  0.00    -0.233 C  
HETATM    9  C   UNL     1     -12.864  13.499  71.009  1.00  0.00    -0.343 C  
HETATM   10  C   UNL     1     -12.160  13.802  69.747  1.00  0.00    -0.340 C  
HETATM   11  C   UNL     1     -13.724  14.464  71.722  1.00  0.00    -0.421 C  
HETATM   12  C   UNL     1     -11.344  12.740  69.120  1.00  0.00    -0.337 A  
HETATM   13  O   UNL     1     -14.294  14.210  72.773  1.00  0.00    -0.473 OA 
HETATM   14  O   UNL     1     -13.846  15.662  71.110  1.00  0.00    -0.583 OA 
HETATM   15  O   UNL     1     -12.271  14.916  69.236  1.00  0.00    -0.266 OA 
HETATM   16  C   UNL     1     -10.677  13.024  67.934  1.00  0.00    -0.249 A  
HETATM   17  C   UNL     1      -9.939  12.026  67.317  1.00  0.00    -0.194 A  
HETATM   18  C   UNL     1      -9.837  10.713  67.833  1.00  0.00    -0.161 A  
HETATM   19  F   UNL     1      -9.370  12.343  66.141  1.00  0.00    -0.227 F  
ENDROOT
BRANCH  18  20
HETATM   20  N   UNL     1      -9.102   9.758  67.134  1.00  0.00    -0.134 NA 
HETATM   21  C   UNL     1      -9.666   8.970  66.033  1.00  0.00    -0.269 C  
HETATM   22  C   UNL     1      -8.594   8.747  64.939  1.00  0.00    -0.150 C  
HETATM   23  N   UNL     1      -7.299   8.200  65.400  1.00  0.00    -0.068 NA 
HETATM   24  C   UNL     1      -6.813   9.020  66.536  1.00  0.00    -0.079 C  
HETATM   25  C   UNL     1      -7.416   6.791  65.766  1.00  0.00    -0.085 C  
HETATM   26  C   UNL     1      -7.837   9.225  67.680  1.00  0.00    -0.096 C  
ENDBRANCH  18  20
TORSDOF 1
ENDMDL
MODEL       29
REMARK 921   NORMALIZED FREE ENERGY PREDICTED BY IDOCK:   -6.15 KCAL/MOL
REMARK 922        TOTAL FREE ENERGY PREDICTED BY IDOCK:   -6.92 KCAL/MOL
REMARK 923 INTER-LIGAND FREE ENERGY PREDICTED BY IDOCK:   -6.55 KCAL/MOL
REMARK 924 INTRA-LIGAND FREE ENERGY PREDICTED BY IDOCK:   -0.37 KCAL/MOL
REMARK 927      BINDING AFFINITY PREDICTED BY RF-SCORE:    0.00 PKD
ROOT
HETATM    1  C   UNL     1      -6.885  15.863  69.677  1.00  0.00    -0.160 C  
HETATM    2  C   UNL     1      -6.665  15.534  68.198  1.00  0.00    -0.127 C  
HETATM    3  C   UNL     1      -6.491  14.033  67.957  1.00  0.00    -0.149 C  
HETATM    4  O   UNL     1      -7.699  13.285  67.882  1.00  0.00    -0.122 OA 
HETATM    5  C   UNL     1      -8.680  13.834  67.086  1.00  0.00    -0.221 A  
HETATM    6  C   UNL     1      -8.729  15.236  66.882  1.00  0.00    -0.258 A  
HETATM    7  N   UNL     1      -7.737  16.114  67.380  1.00  0.00    -0.146 NA 
HETATM    8  C   UNL     1      -7.880  17.482  67.185  1.00  0.00    -0.207 C  
HETATM    9  C   UNL     1      -8.887  18.096  66.546  1.00  0.00    -0.286 C  
HETATM   10  C   UNL     1      -9.939  17.225  65.984  1.00  0.00    -0.233 C  
HETATM   11  C   UNL     1      -8.907  19.569  66.460  1.00  0.00    -0.357 C  
HETATM   12  C   UNL     1      -9.813  15.761  66.157  1.00  0.00    -0.341 A  
HETATM   13  O   UNL     1      -8.027  20.283  66.917  1.00  0.00    -0.305 OA 
HETATM   14  O   UNL     1      -9.995  20.077  65.840  1.00  0.00    -0.450 OA 
HETATM   15  O   UNL     1     -10.899  17.724  65.399  1.00  0.00    -0.550 OA 
HETATM   16  C   UNL     1     -10.800  14.940  65.626  1.00  0.00    -0.347 A  
HETATM   17  C   UNL     1     -10.712  13.569  65.812  1.00  0.00    -0.275 A  
HETATM   18  C   UNL     1      -9.662  12.956  66.535  1.00  0.00    -0.257 A  
HETATM   19  F   UNL     1     -11.729  12.834  65.330  1.00  0.00    -0.349 F  
ENDROOT
BRANCH  18  20
HETATM   20  N   UNL     1      -9.664  11.574  66.705  1.00  0.00    -0.196 NA 
HETATM   21  C   UNL     1     -10.097  10.927  67.949  1.00  0.00    -0.177 C  
HETATM   22  C   UNL     1     -10.847   9.611  67.628  1.00  0.00    -0.212 C  
HETATM   23  N   UNL     1     -10.145   8.666  66.731  1.00  0.00    -0.275 NA 
HETATM   24  C   UNL     1      -9.703   9.398  65.520  1.00  0.00    -0.230 C  
HETATM   25  C   UNL     1      -9.024   8.023  67.409  1.00  0.00    -0.134 C  
HETATM   26  C   UNL     1      -8.902  10.695  65.794  1.00  0.00    -0.184 C  
ENDBRANCH  18  20
TORSDOF 1
ENDMDL
MODEL       30
REMARK 921   NORMALIZED FREE ENERGY PREDICTED BY IDOCK:   -6.12 KCAL/MOL
REMARK 922        TOTAL FREE ENERGY PREDICTED BY IDOCK:   -6.88 KCAL/MOL
REMARK 923 INTER-LIGAND FREE ENERGY PREDICTED BY IDOCK:   -6.50 KCAL/MOL
REMARK 924 INTRA-LIGAND FREE ENERGY PREDICTED BY IDOCK:   -0.38 KCAL/MOL
REMARK 927      BINDING AFFINITY PREDICTED BY RF-SCORE:    0.00 PKD
ROOT
HETATM    1  C   UNL     1     -12.550  12.869  65.167  1.00  0.00    -0.536 C  
HETATM    2  C   UNL     1     -11.085  13.139  64.814  1.00  0.00    -0.330 C  
HETATM    3  C   UNL     1     -10.808  14.627  64.585  1.00  0.00    -0.313 C  
HETATM    4  O   UNL     1     -10.602  15.395  65.764  1.00  0.00    -0.310 OA 
HETATM    5  C   UNL     1      -9.744  14.838  66.687  1.00  0.00    -0.267 A  
HETATM    6  C   UNL     1      -9.586  13.430  66.750  1.00  0.00    -0.262 A  
HETATM    7  N   UNL     1     -10.198  12.551  65.824  1.00  0.00    -0.266 NA 
HETATM    8  C   UNL     1     -10.038  11.180  65.982  1.00  0.00    -0.244 C  
HETATM    9  C   UNL     1      -9.336  10.564  66.945  1.00  0.00    -0.181 C  
HETATM   10  C   UNL     1      -8.655  11.434  67.924  1.00  0.00    -0.140 C  
HETATM   11  C   UNL     1      -9.299   9.089  66.992  1.00  0.00    -0.150 C  
HETATM   12  C   UNL     1      -8.788  12.900  67.779  1.00  0.00    -0.188 A  
HETATM   13  O   UNL     1      -9.855   8.375  66.170  1.00  0.00    -0.221 OA 
HETATM   14  O   UNL     1      -8.605   8.581  68.033  1.00  0.00    -0.132 OA 
HETATM   15  O   UNL     1      -8.006  10.933  68.842  1.00  0.00    -0.133 OA 
HETATM   16  C   UNL     1      -8.145  13.722  68.698  1.00  0.00    -0.084 A  
HETATM   17  C   UNL     1      -8.291  15.096  68.594  1.00  0.00    -0.160 A  
HETATM   18  C   UNL     1      -9.080  15.714  67.596  1.00  0.00    -0.192 A  
HETATM   19  F   UNL     1      -7.697  15.834  69.549  1.00  0.00    -0.210 F  
ENDROOT
BRANCH  18  20
HETATM   20  N   UNL     1      -9.202  17.102  67.582  1.00  0.00    -0.236 NA 
HETATM   21  C   UNL     1     -10.315  17.808  68.225  1.00  0.00    -0.385 C  
HETATM   22  C   UNL     1      -9.810  19.132  68.849  1.00  0.00    -0.424 C  
HETATM   23  N   UNL     1      -9.039  20.021  67.952  1.00  0.00    -0.311 NA 
HETATM   24  C   UNL     1      -7.962  19.229  67.309  1.00  0.00    -0.260 C  
HETATM   25  C   UNL     1      -9.903  20.657  66.962  1.00  0.00    -0.308 C  
HETATM   26  C   UNL     1      -8.430  17.921  66.624  1.00  0.00    -0.258 C  
ENDBRANCH  18  20
TORSDOF 1
ENDMDL
MODEL       31
REMARK 921   NORMALIZED FREE ENERGY PREDICTED BY IDOCK:   -6.10 KCAL/MOL
REMARK 922        TOTAL FREE ENERGY PREDICTED BY IDOCK:   -6.86 KCAL/MOL
REMARK 923 INTER-LIGAND FREE ENERGY PREDICTED BY IDOCK:   -6.91 KCAL/MOL
REMARK 924 INTRA-LIGAND FREE ENERGY PREDICTED BY IDOCK:    0.05 KCAL/MOL
REMARK 927      BINDING AFFINITY PREDICTED BY RF-SCORE:    0.00 PKD
ROOT
HETATM    1  C   UNL     1     -12.407  12.795  64.406  1.00  0.00    -0.498 C  
HETATM    2  C   UNL     1     -11.155  13.133  65.220  1.00  0.00    -0.283 C  
HETATM    3  C   UNL     1     -11.442  14.146  66.331  1.00  0.00    -0.354 C  
HETATM    4  O   UNL     1     -11.996  13.602  67.523  1.00  0.00    -0.363 OA 
HETATM    5  C   UNL     1     -11.374  12.467  67.995  1.00  0.00    -0.289 A  
HETATM    6  C   UNL     1     -10.694  11.604  67.099  1.00  0.00    -0.247 A  
HETATM    7  N   UNL     1     -10.527  11.907  65.727  1.00  0.00    -0.247 NA 
HETATM    8  C   UNL     1      -9.894  10.986  64.900  1.00  0.00    -0.274 C  
HETATM    9  C   UNL     1      -9.394   9.797  65.266  1.00  0.00    -0.315 C  
HETATM   10  C   UNL     1      -9.519   9.440  66.693  1.00  0.00    -0.177 C  
HETATM   11  C   UNL     1      -8.784   8.918  64.250  1.00  0.00    -0.063 C  
HETATM   12  C   UNL     1     -10.171  10.402  67.609  1.00  0.00    -0.240 A  
HETATM   13  O   UNL     1      -8.674   9.225  63.072  1.00  0.00    -0.219 OA 
HETATM   14  O   UNL     1      -8.362   7.725  64.725  1.00  0.00    -0.130 OA 
HETATM   15  O   UNL     1      -9.094   8.357  67.094  1.00  0.00    -0.134 OA 
HETATM   16  C   UNL     1     -10.286  10.070  68.953  1.00  0.00    -0.217 A  
HETATM   17  C   UNL     1     -10.928  10.947  69.814  1.00  0.00    -0.226 A  
HETATM   18  C   UNL     1     -11.490  12.173  69.387  1.00  0.00    -0.290 A  
HETATM   19  F   UNL     1     -11.064  10.541  71.088  1.00  0.00    -0.319 F  
ENDROOT
BRANCH  18  20
HETATM   20  N   UNL     1     -12.148  12.982  70.310  1.00  0.00    -0.350 NA 
HETATM   21  C   UNL     1     -13.354  12.552  71.026  1.00  0.00     0.405 C  
HETATM   22  C   UNL     1     -13.333  13.101  72.474  1.00  0.00    -0.421 C  
HETATM   23  N   UNL     1     -13.098  14.556  72.613  1.00  0.00    -0.434 NA 
HETATM   24  C   UNL     1     -11.892  14.921  71.832  1.00  0.00    -0.344 C  
HETATM   25  C   UNL     1     -14.265  15.325  72.192  1.00  0.00    -0.571 C  
HETATM   26  C   UNL     1     -11.894  14.437  70.360  1.00  0.00    -0.312 C  
ENDBRANCH  18  20
TORSDOF 1
ENDMDL
MODEL       32
REMARK 921   NORMALIZED FREE ENERGY PREDICTED BY IDOCK:   -5.97 KCAL/MOL
REMARK 922        TOTAL FREE ENERGY PREDICTED BY IDOCK:   -6.72 KCAL/MOL
REMARK 923 INTER-LIGAND FREE ENERGY PREDICTED BY IDOCK:   -6.30 KCAL/MOL
REMARK 924 INTRA-LIGAND FREE ENERGY PREDICTED BY IDOCK:   -0.42 KCAL/MOL
REMARK 927      BINDING AFFINITY PREDICTED BY RF-SCORE:    0.00 PKD
ROOT
HETATM    1  C   UNL     1     -10.651   5.756  67.039  1.00  0.00    -0.373 C  
HETATM    2  C   UNL     1      -9.585   6.528  67.822  1.00  0.00    -0.122 C  
HETATM    3  C   UNL     1      -9.149   7.807  67.103  1.00  0.00    -0.134 C  
HETATM    4  O   UNL     1     -10.006   8.928  67.283  1.00  0.00    -0.182 OA 
HETATM    5  C   UNL     1     -10.399   9.165  68.582  1.00  0.00    -0.209 A  
HETATM    6  C   UNL     1     -10.467   8.095  69.510  1.00  0.00    -0.227 A  
HETATM    7  N   UNL     1     -10.041   6.782  69.194  1.00  0.00    -0.166 NA 
HETATM    8  C   UNL     1     -10.187   5.774  70.140  1.00  0.00    -0.236 C  
HETATM    9  C   UNL     1     -10.698   5.906  71.373  1.00  0.00    -0.319 C  
HETATM   10  C   UNL     1     -11.135   7.260  71.765  1.00  0.00    -0.235 C  
HETATM   11  C   UNL     1     -10.818   4.719  72.243  1.00  0.00    -0.061 C  
HETATM   12  C   UNL     1     -10.980   8.363  70.791  1.00  0.00    -0.276 A  
HETATM   13  O   UNL     1     -10.443   3.603  71.916  1.00  0.00    -0.021 OA 
HETATM   14  O   UNL     1     -11.394   4.962  73.441  1.00  0.00    -0.333 OA 
HETATM   15  O   UNL     1     -11.627   7.447  72.878  1.00  0.00    -0.262 OA 
HETATM   16  C   UNL     1     -11.387   9.640  71.160  1.00  0.00    -0.456 A  
HETATM   17  C   UNL     1     -11.281  10.674  70.244  1.00  0.00    -0.285 A  
HETATM   18  C   UNL     1     -10.784  10.493  68.932  1.00  0.00    -0.220 A  
HETATM   19  F   UNL     1     -11.750  11.871  70.637  1.00  0.00    -0.394 F  
ENDROOT
BRANCH  18  20
HETATM   20  N   UNL     1     -10.741  11.579  68.061  1.00  0.00    -0.192 NA 
HETATM   21  C   UNL     1      -9.735  12.642  68.164  1.00  0.00    -0.219 C  
HETATM   22  C   UNL     1      -9.321  13.117  66.750  1.00  0.00    -0.244 C  
HETATM   23  N   UNL     1     -10.427  13.494  65.842  1.00  0.00    -0.286 NA 
HETATM   24  C   UNL     1     -11.421  12.393  65.821  1.00  0.00    -0.370 C  
HETATM   25  C   UNL     1     -11.035  14.760  66.240  1.00  0.00    -0.330 C  
HETATM   26  C   UNL     1     -11.904  11.921  67.215  1.00  0.00    -0.148 C  
ENDBRANCH  18  20
TORSDOF 1
ENDMDL
MODEL       33
REMARK 921   NORMALIZED FREE ENERGY PREDICTED BY IDOCK:   -5.95 KCAL/MOL
REMARK 922        TOTAL FREE ENERGY PREDICTED BY IDOCK:   -6.70 KCAL/MOL
REMARK 923 INTER-LIGAND FREE ENERGY PREDICTED BY IDOCK:   -6.36 KCAL/MOL
REMARK 924 INTRA-LIGAND FREE ENERGY PREDICTED BY IDOCK:   -0.34 KCAL/MOL
REMARK 927      BINDING AFFINITY PREDICTED BY RF-SCORE:    0.00 PKD
ROOT
HETATM    1  C   UNL     1     -12.047  14.598  64.235  1.00  0.00    -0.437 C  
HETATM    2  C   UNL     1     -11.986  14.490  65.761  1.00  0.00    -0.306 C  
HETATM    3  C   UNL     1     -12.370  13.095  66.260  1.00  0.00    -0.276 C  
HETATM    4  O   UNL     1     -11.332  12.124  66.210  1.00  0.00    -0.324 OA 
HETATM    5  C   UNL     1     -10.114  12.540  66.702  1.00  0.00    -0.230 A  
HETATM    6  C   UNL     1      -9.768  13.915  66.673  1.00  0.00    -0.289 A  
HETATM    7  N   UNL     1     -10.671  14.920  66.252  1.00  0.00    -0.312 NA 
HETATM    8  C   UNL     1     -10.242  16.241  66.201  1.00  0.00    -0.346 C  
HETATM    9  C   UNL     1      -9.023  16.696  66.526  1.00  0.00    -0.310 C  
HETATM   10  C   UNL     1      -8.047  15.693  66.996  1.00  0.00    -0.241 C  
HETATM   11  C   UNL     1      -8.717  18.133  66.378  1.00  0.00    -0.231 C  
HETATM   12  C   UNL     1      -8.472  14.279  67.080  1.00  0.00    -0.220 A  
HETATM   13  O   UNL     1      -9.534  18.960  66.000  1.00  0.00    -0.471 OA 
HETATM   14  O   UNL     1      -7.445  18.467  66.685  1.00  0.00    -0.214 OA 
HETATM   15  O   UNL     1      -6.906  16.042  67.297  1.00  0.00    -0.172 OA 
HETATM   16  C   UNL     1      -7.557  13.333  67.526  1.00  0.00    -0.169 A  
HETATM   17  C   UNL     1      -7.931  11.999  67.574  1.00  0.00    -0.159 A  
HETATM   18  C   UNL     1      -9.210  11.543  67.177  1.00  0.00    -0.169 A  
HETATM   19  F   UNL     1      -6.982  11.125  67.953  1.00  0.00    -0.065 F  
ENDROOT
BRANCH  18  20
HETATM   20  N   UNL     1      -9.496  10.181  67.224  1.00  0.00    -0.152 NA 
HETATM   21  C   UNL     1      -9.564   9.341  66.024  1.00  0.00    -0.270 C  
HETATM   22  C   UNL     1      -8.992   7.935  66.329  1.00  0.00    -0.171 C  
HETATM   23  N   UNL     1      -9.553   7.248  67.514  1.00  0.00    -0.138 NA 
HETATM   24  C   UNL     1      -9.488   8.171  68.673  1.00  0.00    -0.147 C  
HETATM   25  C   UNL     1     -10.917   6.791  67.267  1.00  0.00    -0.363 C  
HETATM   26  C   UNL     1     -10.098   9.574  68.429  1.00  0.00    -0.175 C  
ENDBRANCH  18  20
TORSDOF 1
ENDMDL
MODEL       34
REMARK 921   NORMALIZED FREE ENERGY PREDICTED BY IDOCK:   -5.91 KCAL/MOL
REMARK 922        TOTAL FREE ENERGY PREDICTED BY IDOCK:   -6.65 KCAL/MOL
REMARK 923 INTER-LIGAND FREE ENERGY PREDICTED BY IDOCK:   -6.23 KCAL/MOL
REMARK 924 INTRA-LIGAND FREE ENERGY PREDICTED BY IDOCK:   -0.42 KCAL/MOL
REMARK 927      BINDING AFFINITY PREDICTED BY RF-SCORE:    0.00 PKD
ROOT
HETATM    1  C   UNL     1     -12.434  14.042  66.248  1.00  0.00    -0.439 C  
HETATM    2  C   UNL     1     -11.197  14.077  65.345  1.00  0.00    -0.319 C  
HETATM    3  C   UNL     1     -10.777  15.506  64.991  1.00  0.00    -0.441 C  
HETATM    4  O   UNL     1     -10.001  16.174  65.978  1.00  0.00    -0.305 OA 
HETATM    5  C   UNL     1      -8.963  15.438  66.507  1.00  0.00    -0.309 A  
HETATM    6  C   UNL     1      -9.039  14.023  66.538  1.00  0.00    -0.150 A  
HETATM    7  N   UNL     1     -10.104  13.303  65.945  1.00  0.00    -0.290 NA 
HETATM    8  C   UNL     1     -10.136  11.919  66.061  1.00  0.00    -0.231 C  
HETATM    9  C   UNL     1      -9.234  11.150  66.690  1.00  0.00    -0.188 C  
HETATM   10  C   UNL     1      -8.088  11.847  67.306  1.00  0.00    -0.171 C  
HETATM   11  C   UNL     1      -9.438   9.690  66.755  1.00  0.00    -0.161 C  
HETATM   12  C   UNL     1      -8.009  13.320  67.188  1.00  0.00    -0.077 A  
HETATM   13  O   UNL     1     -10.383   9.118  66.232  1.00  0.00    -0.244 OA 
HETATM   14  O   UNL     1      -8.494   9.025  67.456  1.00  0.00    -0.116 OA 
HETATM   15  O   UNL     1      -7.231  11.203  67.910  1.00  0.00    -0.085 OA 
HETATM   16  C   UNL     1      -6.929  13.979  67.764  1.00  0.00    -0.188 A  
HETATM   17  C   UNL     1      -6.864  15.361  67.692  1.00  0.00    -0.182 A  
HETATM   18  C   UNL     1      -7.858  16.148  67.065  1.00  0.00    -0.223 A  
HETATM   19  F   UNL     1      -5.829  15.944  68.322  1.00  0.00    -0.092 F  
ENDROOT
BRANCH  18  20
HETATM   20  N   UNL     1      -7.734  17.536  67.065  1.00  0.00    -0.203 NA 
HETATM   21  C   UNL     1      -6.940  18.263  66.069  1.00  0.00    -0.280 C  
HETATM   22  C   UNL     1      -7.636  19.598  65.710  1.00  0.00    -0.262 C  
HETATM   23  N   UNL     1      -8.012  20.462  66.852  1.00  0.00    -0.300 NA 
HETATM   24  C   UNL     1      -8.772  19.651  67.832  1.00  0.00    -0.324 C  
HETATM   25  C   UNL     1      -6.837  21.079  67.461  1.00  0.00    -0.349 C  
HETATM   26  C   UNL     1      -8.087  18.329  68.260  1.00  0.00    -0.297 C  
ENDBRANCH  18  20
TORSDOF 1
ENDMDL
MODEL       35
REMARK 921   NORMALIZED FREE ENERGY PREDICTED BY IDOCK:   -5.85 KCAL/MOL
REMARK 922        TOTAL FREE ENERGY PREDICTED BY IDOCK:   -6.60 KCAL/MOL
REMARK 923 INTER-LIGAND FREE ENERGY PREDICTED BY IDOCK:   -6.23 KCAL/MOL
REMARK 924 INTRA-LIGAND FREE ENERGY PREDICTED BY IDOCK:   -0.36 KCAL/MOL
REMARK 927      BINDING AFFINITY PREDICTED BY RF-SCORE:    0.00 PKD
ROOT
HETATM    1  C   UNL     1      -9.807  11.545  63.308  1.00  0.00    -0.431 C  
HETATM    2  C   UNL     1     -10.555  11.611  64.642  1.00  0.00    -0.312 C  
HETATM    3  C   UNL     1     -10.270  10.395  65.528  1.00  0.00    -0.246 C  
HETATM    4  O   UNL     1      -9.059  10.456  66.273  1.00  0.00    -0.153 OA 
HETATM    5  C   UNL     1      -8.831  11.647  66.927  1.00  0.00    -0.190 A  
HETATM    6  C   UNL     1      -9.388  12.851  66.427  1.00  0.00    -0.187 A  
HETATM    7  N   UNL     1     -10.275  12.880  65.324  1.00  0.00    -0.290 NA 
HETATM    8  C   UNL     1     -10.740  14.104  64.858  1.00  0.00    -0.428 C  
HETATM    9  C   UNL     1     -10.441  15.313  65.357  1.00  0.00    -0.422 C  
HETATM   10  C   UNL     1      -9.539  15.340  66.525  1.00  0.00    -0.271 C  
HETATM   11  C   UNL     1     -10.992  16.523  64.717  1.00  0.00    -0.177 C  
HETATM   12  C   UNL     1      -9.036  14.055  67.061  1.00  0.00    -0.256 A  
HETATM   13  O   UNL     1     -11.748  16.493  63.758  1.00  0.00    -1.086 OA 
HETATM   14  O   UNL     1     -10.582  17.685  65.273  1.00  0.00    -0.663 OA 
HETATM   15  O   UNL     1      -9.212  16.417  67.023  1.00  0.00    -0.211 OA 
HETATM   16  C   UNL     1      -8.190  14.077  68.163  1.00  0.00    -0.155 A  
HETATM   17  C   UNL     1      -7.684  12.883  68.651  1.00  0.00    -0.067 A  
HETATM   18  C   UNL     1      -7.978  11.627  68.071  1.00  0.00    -0.132 A  
HETATM   19  F   UNL     1      -6.821  12.975  69.678  1.00  0.00    -0.081 F  
ENDROOT
BRANCH  18  20
HETATM   20  N   UNL     1      -7.402  10.476  68.603  1.00  0.00    -0.086 NA 
HETATM   21  C   UNL     1      -8.071   9.643  69.608  1.00  0.00    -0.141 C  
HETATM   22  C   UNL     1      -7.755   8.149  69.352  1.00  0.00    -0.103 C  
HETATM   23  N   UNL     1      -6.322   7.803  69.215  1.00  0.00    -0.035 NA 
HETATM   24  C   UNL     1      -5.707   8.710  68.217  1.00  0.00    -0.038 C  
HETATM   25  C   UNL     1      -5.633   7.871  70.500  1.00  0.00    -0.026 C  
HETATM   26  C   UNL     1      -5.953  10.219  68.464  1.00  0.00    -0.040 C  
ENDBRANCH  18  20
TORSDOF 1
ENDMDL
MODEL       36
REMARK 921   NORMALIZED FREE ENERGY PREDICTED BY IDOCK:   -5.78 KCAL/MOL
REMARK 922        TOTAL FREE ENERGY PREDICTED BY IDOCK:   -6.52 KCAL/MOL
REMARK 923 INTER-LIGAND FREE ENERGY PREDICTED BY IDOCK:   -6.09 KCAL/MOL
REMARK 924 INTRA-LIGAND FREE ENERGY PREDICTED BY IDOCK:   -0.43 KCAL/MOL
REMARK 927      BINDING AFFINITY PREDICTED BY RF-SCORE:    0.00 PKD
ROOT
HETATM    1  C   UNL     1     -12.100  14.588  64.470  1.00  0.00    -0.501 C  
HETATM    2  C   UNL     1     -11.878  14.599  65.985  1.00  0.00    -0.276 C  
HETATM    3  C   UNL     1     -11.819  13.187  66.573  1.00  0.00    -0.400 C  
HETATM    4  O   UNL     1     -10.563  12.531  66.455  1.00  0.00    -0.242 OA 
HETATM    5  C   UNL     1      -9.468  13.290  66.804  1.00  0.00    -0.257 A  
HETATM    6  C   UNL     1      -9.516  14.703  66.687  1.00  0.00    -0.278 A  
HETATM    7  N   UNL     1     -10.694  15.398  66.322  1.00  0.00    -0.309 NA 
HETATM    8  C   UNL     1     -10.650  16.779  66.179  1.00  0.00    -0.210 C  
HETATM    9  C   UNL     1      -9.579  17.567  66.360  1.00  0.00    -0.283 C  
HETATM   10  C   UNL     1      -8.328  16.896  66.766  1.00  0.00    -0.235 C  
HETATM   11  C   UNL     1      -9.694  19.020  66.128  1.00  0.00    -0.296 C  
HETATM   12  C   UNL     1      -8.340  15.428  66.947  1.00  0.00    -0.290 A  
HETATM   13  O   UNL     1     -10.735  19.570  65.803  1.00  0.00    -0.503 OA 
HETATM   14  O   UNL     1      -8.540  19.704  66.291  1.00  0.00    -0.349 OA 
HETATM   15  O   UNL     1      -7.305  17.558  66.936  1.00  0.00    -0.179 OA 
HETATM   16  C   UNL     1      -7.164  14.794  67.333  1.00  0.00    -0.202 A  
HETATM   17  C   UNL     1      -7.153  13.415  67.469  1.00  0.00    -0.144 A  
HETATM   18  C   UNL     1      -8.287  12.607  67.222  1.00  0.00    -0.189 A  
HETATM   19  F   UNL     1      -5.971  12.855  67.783  1.00  0.00    -0.084 F  
ENDROOT
BRANCH  18  20
HETATM   20  N   UNL     1      -8.183  11.224  67.350  1.00  0.00    -0.130 NA 
HETATM   21  C   UNL     1      -8.206  10.542  68.648  1.00  0.00    -0.130 C  
HETATM   22  C   UNL     1      -8.962   9.196  68.526  1.00  0.00    -0.133 C  
HETATM   23  N   UNL     1      -8.514   8.296  67.439  1.00  0.00    -0.124 NA 
HETATM   24  C   UNL     1      -8.476   9.064  66.171  1.00  0.00    -0.127 C  
HETATM   25  C   UNL     1      -7.218   7.698  67.745  1.00  0.00    -0.087 C  
HETATM   26  C   UNL     1      -7.684  10.393  66.234  1.00  0.00    -0.129 C  
ENDBRANCH  18  20
TORSDOF 1
ENDMDL
MODEL       37
REMARK 921   NORMALIZED FREE ENERGY PREDICTED BY IDOCK:   -5.77 KCAL/MOL
REMARK 922        TOTAL FREE ENERGY PREDICTED BY IDOCK:   -6.51 KCAL/MOL
REMARK 923 INTER-LIGAND FREE ENERGY PREDICTED BY IDOCK:   -6.13 KCAL/MOL
REMARK 924 INTRA-LIGAND FREE ENERGY PREDICTED BY IDOCK:   -0.38 KCAL/MOL
REMARK 927      BINDING AFFINITY PREDICTED BY RF-SCORE:    0.00 PKD
ROOT
HETATM    1  C   UNL     1      -9.601   8.433  72.616  1.00  0.00    -0.337 C  
HETATM    2  C   UNL     1     -10.880   8.271  71.789  1.00  0.00    -0.267 C  
HETATM    3  C   UNL     1     -11.448   9.616  71.329  1.00  0.00    -0.392 C  
HETATM    4  O   UNL     1     -10.839  10.168  70.167  1.00  0.00    -0.273 OA 
HETATM    5  C   UNL     1     -10.663   9.288  69.122  1.00  0.00    -0.183 A  
HETATM    6  C   UNL     1     -10.519   7.900  69.378  1.00  0.00    -0.220 A  
HETATM    7  N   UNL     1     -10.654   7.345  70.673  1.00  0.00    -0.220 NA 
HETATM    8  C   UNL     1     -10.448   5.983  70.853  1.00  0.00    -0.236 C  
HETATM    9  C   UNL     1     -10.129   5.092  69.903  1.00  0.00    -0.344 C  
HETATM   10  C   UNL     1      -9.999   5.612  68.528  1.00  0.00    -0.157 C  
HETATM   11  C   UNL     1      -9.906   3.680  70.271  1.00  0.00    -0.019 C  
HETATM   12  C   UNL     1     -10.228   7.055  68.293  1.00  0.00    -0.206 A  
HETATM   13  O   UNL     1     -10.027   3.254  71.410  1.00  0.00    -0.167 OA 
HETATM   14  O   UNL     1      -9.539   2.886  69.242  1.00  0.00    -0.132 OA 
HETATM   15  O   UNL     1      -9.694   4.851  67.611  1.00  0.00    -0.144 OA 
HETATM   16  C   UNL     1     -10.110   7.547  66.998  1.00  0.00    -0.332 A  
HETATM   17  C   UNL     1     -10.286   8.903  66.771  1.00  0.00    -0.247 A  
HETATM   18  C   UNL     1     -10.573   9.826  67.804  1.00  0.00    -0.266 A  
HETATM   19  F   UNL     1     -10.097   9.327  65.510  1.00  0.00    -0.370 F  
ENDROOT
BRANCH  18  20
HETATM   20  N   UNL     1     -10.703  11.178  67.496  1.00  0.00    -0.220 NA 
HETATM   21  C   UNL     1      -9.587  12.126  67.591  1.00  0.00    -0.190 C  
HETATM   22  C   UNL     1      -9.675  13.162  66.444  1.00  0.00    -0.269 C  
HETATM   23  N   UNL     1     -10.974  13.855  66.293  1.00  0.00    -0.297 NA 
HETATM   24  C   UNL     1     -12.053  12.839  66.247  1.00  0.00    -0.332 C  
HETATM   25  C   UNL     1     -11.191  14.820  67.368  1.00  0.00    -0.339 C  
HETATM   26  C   UNL     1     -12.035  11.811  67.406  1.00  0.00     0.026 C  
ENDBRANCH  18  20
TORSDOF 1
ENDMDL
MODEL       38
REMARK 921   NORMALIZED FREE ENERGY PREDICTED BY IDOCK:   -5.75 KCAL/MOL
REMARK 922        TOTAL FREE ENERGY PREDICTED BY IDOCK:   -6.48 KCAL/MOL
REMARK 923 INTER-LIGAND FREE ENERGY PREDICTED BY IDOCK:   -6.07 KCAL/MOL
REMARK 924 INTRA-LIGAND FREE ENERGY PREDICTED BY IDOCK:   -0.41 KCAL/MOL
REMARK 927      BINDING AFFINITY PREDICTED BY RF-SCORE:    0.00 PKD
ROOT
HETATM    1  C   UNL     1     -12.093  13.982  70.303  1.00  0.00    -0.425 C  
HETATM    2  C   UNL     1     -11.827  13.972  68.795  1.00  0.00    -0.361 C  
HETATM    3  C   UNL     1     -11.759  15.385  68.210  1.00  0.00    -0.297 C  
HETATM    4  O   UNL     1     -10.510  16.048  68.365  1.00  0.00    -0.245 OA 
HETATM    5  C   UNL     1      -9.401  15.294  68.047  1.00  0.00    -0.197 A  
HETATM    6  C   UNL     1      -9.446  13.881  68.162  1.00  0.00    -0.207 A  
HETATM    7  N   UNL     1     -10.630  13.180  68.492  1.00  0.00    -0.256 NA 
HETATM    8  C   UNL     1     -10.583  11.799  68.636  1.00  0.00    -0.223 C  
HETATM    9  C   UNL     1      -9.503  11.017  68.486  1.00  0.00    -0.188 C  
HETATM   10  C   UNL     1      -8.245  11.694  68.116  1.00  0.00    -0.151 C  
HETATM   11  C   UNL     1      -9.617   9.563  68.714  1.00  0.00    -0.157 C  
HETATM   12  C   UNL     1      -8.258  13.163  67.936  1.00  0.00    -0.162 A  
HETATM   13  O   UNL     1     -10.665   9.007  69.008  1.00  0.00    -0.215 OA 
HETATM   14  O   UNL     1      -8.456   8.885  68.584  1.00  0.00    -0.126 OA 
HETATM   15  O   UNL     1      -7.214  11.037  67.977  1.00  0.00    -0.082 OA 
HETATM   16  C   UNL     1      -7.076  13.802  67.585  1.00  0.00    -0.187 A  
HETATM   17  C   UNL     1      -7.067  15.181  67.449  1.00  0.00    -0.187 A  
HETATM   18  C   UNL     1      -8.212  15.984  67.664  1.00  0.00    -0.148 A  
HETATM   19  F   UNL     1      -5.880  15.747  67.170  1.00  0.00    -0.145 F  
ENDROOT
BRANCH  18  20
HETATM   20  N   UNL     1      -8.111  17.367  67.540  1.00  0.00    -0.194 NA 
HETATM   21  C   UNL     1      -7.989  18.042  66.243  1.00  0.00    -0.241 C  
HETATM   22  C   UNL     1      -8.772  19.378  66.266  1.00  0.00    -0.346 C  
HETATM   23  N   UNL     1      -8.467  20.290  67.392  1.00  0.00    -0.342 NA 
HETATM   24  C   UNL     1      -8.569  19.529  68.661  1.00  0.00    -0.325 C  
HETATM   25  C   UNL     1      -7.152  20.904  67.238  1.00  0.00    -0.370 C  
HETATM   26  C   UNL     1      -7.759  18.210  68.701  1.00  0.00    -0.297 C  
ENDBRANCH  18  20
TORSDOF 1
ENDMDL
MODEL       39
REMARK 921   NORMALIZED FREE ENERGY PREDICTED BY IDOCK:   -5.74 KCAL/MOL
REMARK 922        TOTAL FREE ENERGY PREDICTED BY IDOCK:   -6.48 KCAL/MOL
REMARK 923 INTER-LIGAND FREE ENERGY PREDICTED BY IDOCK:   -6.11 KCAL/MOL
REMARK 924 INTRA-LIGAND FREE ENERGY PREDICTED BY IDOCK:   -0.37 KCAL/MOL
REMARK 927      BINDING AFFINITY PREDICTED BY RF-SCORE:    0.00 PKD
ROOT
HETATM    1  C   UNL     1      -8.527  15.377  68.521  1.00  0.00    -0.163 C  
HETATM    2  C   UNL     1      -9.728  14.958  67.669  1.00  0.00    -0.212 C  
HETATM    3  C   UNL     1      -9.311  14.474  66.278  1.00  0.00    -0.247 C  
HETATM    4  O   UNL     1      -8.869  13.124  66.211  1.00  0.00     0.009 OA 
HETATM    5  C   UNL     1      -9.666  12.211  66.866  1.00  0.00    -0.206 A  
HETATM    6  C   UNL     1     -10.452  12.620  67.974  1.00  0.00    -0.224 A  
HETATM    7  N   UNL     1     -10.544  13.971  68.386  1.00  0.00    -0.247 NA 
HETATM    8  C   UNL     1     -11.294  14.288  69.512  1.00  0.00    -0.269 C  
HETATM    9  C   UNL     1     -11.976  13.428  70.284  1.00  0.00    -0.378 C  
HETATM   10  C   UNL     1     -11.934  12.008  69.885  1.00  0.00    -0.318 C  
HETATM   11  C   UNL     1     -12.693  13.927  71.474  1.00  0.00    -0.357 C  
HETATM   12  C   UNL     1     -11.161  11.633  68.681  1.00  0.00    -0.287 A  
HETATM   13  O   UNL     1     -12.733  15.106  71.791  1.00  0.00    -0.308 OA 
HETATM   14  O   UNL     1     -13.300  12.965  72.203  1.00  0.00    -0.512 OA 
HETATM   15  O   UNL     1     -12.526  11.165  70.558  1.00  0.00    -0.323 OA 
HETATM   16  C   UNL     1     -11.123  10.297  68.301  1.00  0.00    -0.311 A  
HETATM   17  C   UNL     1     -10.372   9.929  67.196  1.00  0.00    -0.243 A  
HETATM   18  C   UNL     1      -9.622  10.853  66.432  1.00  0.00    -0.197 A  
HETATM   19  F   UNL     1     -10.324   8.614  66.917  1.00  0.00    -0.293 F  
ENDROOT
BRANCH  18  20
HETATM   20  N   UNL     1      -8.866  10.396  65.355  1.00  0.00    -0.171 NA 
HETATM   21  C   UNL     1      -7.466   9.979  65.487  1.00  0.00    -0.137 C  
HETATM   22  C   UNL     1      -7.183   8.774  64.556  1.00  0.00    -0.096 C  
HETATM   23  N   UNL     1      -7.577   8.941  63.139  1.00  0.00    -0.102 NA 
HETATM   24  C   UNL     1      -8.985   9.403  63.088  1.00  0.00    -0.141 C  
HETATM   25  C   UNL     1      -6.684   9.864  62.445  1.00  0.00    -0.110 C  
HETATM   26  C   UNL     1      -9.302  10.640  63.964  1.00  0.00    -0.266 C  
ENDBRANCH  18  20
TORSDOF 1
ENDMDL
MODEL       40
REMARK 921   NORMALIZED FREE ENERGY PREDICTED BY IDOCK:   -5.72 KCAL/MOL
REMARK 922        TOTAL FREE ENERGY PREDICTED BY IDOCK:   -6.45 KCAL/MOL
REMARK 923 INTER-LIGAND FREE ENERGY PREDICTED BY IDOCK:   -6.03 KCAL/MOL
REMARK 924 INTRA-LIGAND FREE ENERGY PREDICTED BY IDOCK:   -0.43 KCAL/MOL
REMARK 927      BINDING AFFINITY PREDICTED BY RF-SCORE:    0.00 PKD
ROOT
HETATM    1  C   UNL     1     -11.930  14.220  64.115  1.00  0.00    -0.401 C  
HETATM    2  C   UNL     1     -11.932  14.196  65.646  1.00  0.00    -0.396 C  
HETATM    3  C   UNL     1     -12.080  12.778  66.203  1.00  0.00    -0.364 C  
HETATM    4  O   UNL     1     -10.879  12.016  66.252  1.00  0.00    -0.257 OA 
HETATM    5  C   UNL     1      -9.787  12.674  66.774  1.00  0.00    -0.235 A  
HETATM    6  C   UNL     1      -9.699  14.087  66.685  1.00  0.00    -0.289 A  
HETATM    7  N   UNL     1     -10.747  14.885  66.170  1.00  0.00    -0.308 NA 
HETATM    8  C   UNL     1     -10.567  16.259  66.066  1.00  0.00    -0.281 C  
HETATM    9  C   UNL     1      -9.472  16.949  66.419  1.00  0.00    -0.306 C  
HETATM   10  C   UNL     1      -8.355  16.168  66.987  1.00  0.00    -0.215 C  
HETATM   11  C   UNL     1      -9.429  18.409  66.207  1.00  0.00    -0.241 C  
HETATM   12  C   UNL     1      -8.516  14.704  67.129  1.00  0.00    -0.244 A  
HETATM   13  O   UNL     1     -10.362  19.051  65.748  1.00  0.00    -0.526 OA 
HETATM   14  O   UNL     1      -8.258  18.989  66.551  1.00  0.00    -0.280 OA 
HETATM   15  O   UNL     1      -7.316  16.737  67.318  1.00  0.00    -0.151 OA 
HETATM   16  C   UNL     1      -7.467  13.967  67.667  1.00  0.00    -0.186 A  
HETATM   17  C   UNL     1      -7.592  12.591  67.771  1.00  0.00    -0.138 A  
HETATM   18  C   UNL     1      -8.741  11.887  67.343  1.00  0.00    -0.166 A  
HETATM   19  F   UNL     1      -6.520  11.928  68.239  1.00  0.00    -0.050 F  
ENDROOT
BRANCH  18  20
HETATM   20  N   UNL     1      -8.774  10.498  67.452  1.00  0.00    -0.126 NA 
HETATM   21  C   UNL     1      -9.152   9.807  68.689  1.00  0.00    -0.130 C  
HETATM   22  C   UNL     1      -9.957   8.527  68.355  1.00  0.00    -0.187 C  
HETATM   23  N   UNL     1      -9.334   7.606  67.378  1.00  0.00    -0.138 NA 
HETATM   24  C   UNL     1      -8.942   8.381  66.177  1.00  0.00    -0.177 C  
HETATM   25  C   UNL     1      -8.195   6.904  67.961  1.00  0.00    -0.115 C  
HETATM   26  C   UNL     1      -8.090   9.643  66.460  1.00  0.00    -0.119 C  
ENDBRANCH  18  20
TORSDOF 1
ENDMDL
MODEL       41
REMARK 921   NORMALIZED FREE ENERGY PREDICTED BY IDOCK:   -5.71 KCAL/MOL
REMARK 922        TOTAL FREE ENERGY PREDICTED BY IDOCK:   -6.45 KCAL/MOL
REMARK 923 INTER-LIGAND FREE ENERGY PREDICTED BY IDOCK:   -6.18 KCAL/MOL
REMARK 924 INTRA-LIGAND FREE ENERGY PREDICTED BY IDOCK:   -0.27 KCAL/MOL
REMARK 927      BINDING AFFINITY PREDICTED BY RF-SCORE:    0.00 PKD
ROOT
HETATM    1  C   UNL     1     -12.959  10.322  70.950  1.00  0.00    -0.456 C  
HETATM    2  C   UNL     1     -11.456  10.478  70.702  1.00  0.00    -0.327 C  
HETATM    3  C   UNL     1     -10.667   9.235  71.119  1.00  0.00    -0.333 C  
HETATM    4  O   UNL     1     -10.653   8.176  70.169  1.00  0.00    -0.228 OA 
HETATM    5  C   UNL     1     -10.388   8.554  68.871  1.00  0.00    -0.210 A  
HETATM    6  C   UNL     1     -10.710   9.864  68.433  1.00  0.00    -0.232 A  
HETATM    7  N   UNL     1     -11.205  10.861  69.307  1.00  0.00    -0.242 NA 
HETATM    8  C   UNL     1     -11.547  12.106  68.793  1.00  0.00    -0.327 C  
HETATM    9  C   UNL     1     -11.452  12.494  67.513  1.00  0.00    -0.397 C  
HETATM   10  C   UNL     1     -10.918  11.501  66.560  1.00  0.00    -0.293 C  
HETATM   11  C   UNL     1     -11.897  13.847  67.126  1.00  0.00    -0.412 C  
HETATM   12  C   UNL     1     -10.526  10.169  67.073  1.00  0.00    -0.302 A  
HETATM   13  O   UNL     1     -12.327  14.668  67.922  1.00  0.00    -0.160 OA 
HETATM   14  O   UNL     1     -11.803  14.108  65.803  1.00  0.00    -0.355 OA 
HETATM   15  O   UNL     1     -10.818  11.787  65.368  1.00  0.00    -0.284 OA 
HETATM   16  C   UNL     1     -10.019   9.234  66.178  1.00  0.00    -0.348 A  
HETATM   17  C   UNL     1      -9.683   7.971  66.639  1.00  0.00    -0.243 A  
HETATM   18  C   UNL     1      -9.842   7.575  67.988  1.00  0.00    -0.151 A  
HETATM   19  F   UNL     1      -9.258   7.091  65.716  1.00  0.00    -0.150 F  
ENDROOT
BRANCH  18  20
HETATM   20  N   UNL     1      -9.511   6.275  68.363  1.00  0.00    -0.119 NA 
HETATM   21  C   UNL     1     -10.386   5.126  68.106  1.00  0.00    -0.071 C  
HETATM   22  C   UNL     1      -9.535   3.882  67.753  1.00  0.00    -0.179 C  
HETATM   23  N   UNL     1      -8.450   3.546  68.702  1.00  0.00    -0.077 NA 
HETATM   24  C   UNL     1      -7.636   4.762  68.944  1.00  0.00    -0.068 C  
HETATM   25  C   UNL     1      -8.983   2.999  69.946  1.00  0.00    -0.106 C  
HETATM   26  C   UNL     1      -8.443   6.020  69.353  1.00  0.00    -0.115 C  
ENDBRANCH  18  20
TORSDOF 1
ENDMDL
MODEL       42
REMARK 921   NORMALIZED FREE ENERGY PREDICTED BY IDOCK:   -5.70 KCAL/MOL
REMARK 922        TOTAL FREE ENERGY PREDICTED BY IDOCK:   -6.44 KCAL/MOL
REMARK 923 INTER-LIGAND FREE ENERGY PREDICTED BY IDOCK:   -6.07 KCAL/MOL
REMARK 924 INTRA-LIGAND FREE ENERGY PREDICTED BY IDOCK:   -0.37 KCAL/MOL
REMARK 927      BINDING AFFINITY PREDICTED BY RF-SCORE:    0.00 PKD
ROOT
HETATM    1  C   UNL     1     -12.173  13.833  65.763  1.00  0.00    -0.495 C  
HETATM    2  C   UNL     1     -11.770  14.041  67.225  1.00  0.00    -0.389 C  
HETATM    3  C   UNL     1     -12.282  12.920  68.133  1.00  0.00     0.043 C  
HETATM    4  O   UNL     1     -11.490  11.739  68.146  1.00  0.00    -0.267 OA 
HETATM    5  C   UNL     1     -10.134  11.942  68.277  1.00  0.00    -0.203 A  
HETATM    6  C   UNL     1      -9.550  13.153  67.827  1.00  0.00    -0.208 A  
HETATM    7  N   UNL     1     -10.319  14.234  67.334  1.00  0.00    -0.258 NA 
HETATM    8  C   UNL     1      -9.672  15.370  66.863  1.00  0.00    -0.231 C  
HETATM    9  C   UNL     1      -8.347  15.575  66.825  1.00  0.00    -0.301 C  
HETATM   10  C   UNL     1      -7.496  14.489  67.351  1.00  0.00    -0.169 C  
HETATM   11  C   UNL     1      -7.818  16.829  66.254  1.00  0.00    -0.299 C  
HETATM   12  C   UNL     1      -8.150  13.271  67.878  1.00  0.00    -0.159 A  
HETATM   13  O   UNL     1      -8.529  17.729  65.832  1.00  0.00    -0.522 OA 
HETATM   14  O   UNL     1      -6.470  16.903  66.222  1.00  0.00    -0.211 OA 
HETATM   15  O   UNL     1      -6.271  14.607  67.333  1.00  0.00    -0.332 OA 
HETATM   16  C   UNL     1      -7.351  12.248  68.377  1.00  0.00    -0.109 A  
HETATM   17  C   UNL     1      -7.949  11.087  68.840  1.00  0.00    -0.138 A  
HETATM   18  C   UNL     1      -9.349  10.881  68.819  1.00  0.00    -0.185 A  
HETATM   19  F   UNL     1      -7.122  10.111  69.250  1.00  0.00    -0.054 F  
ENDROOT
BRANCH  18  20
HETATM   20  N   UNL     1      -9.868   9.670  69.272  1.00  0.00    -0.179 NA 
HETATM   21  C   UNL     1     -10.291   8.597  68.365  1.00  0.00    -0.201 C  
HETATM   22  C   UNL     1      -9.944   7.219  68.979  1.00  0.00    -0.177 C  
HETATM   23  N   UNL     1     -10.415   6.988  70.363  1.00  0.00    -0.203 NA 
HETATM   24  C   UNL     1      -9.989   8.129  71.208  1.00  0.00    -0.181 C  
HETATM   25  C   UNL     1     -11.862   6.798  70.408  1.00  0.00    -0.338 C  
HETATM   26  C   UNL     1     -10.362   9.528  70.658  1.00  0.00    -0.302 C  
ENDBRANCH  18  20
TORSDOF 1
ENDMDL
MODEL       43
REMARK 921   NORMALIZED FREE ENERGY PREDICTED BY IDOCK:   -5.60 KCAL/MOL
REMARK 922        TOTAL FREE ENERGY PREDICTED BY IDOCK:   -6.33 KCAL/MOL
REMARK 923 INTER-LIGAND FREE ENERGY PREDICTED BY IDOCK:   -5.97 KCAL/MOL
REMARK 924 INTRA-LIGAND FREE ENERGY PREDICTED BY IDOCK:   -0.36 KCAL/MOL
REMARK 927      BINDING AFFINITY PREDICTED BY RF-SCORE:    0.00 PKD
ROOT
HETATM    1  C   UNL     1      -6.214  14.953  70.130  1.00  0.00    -0.165 C  
HETATM    2  C   UNL     1      -6.470  14.971  68.621  1.00  0.00    -0.087 C  
HETATM    3  C   UNL     1      -6.430  13.568  68.009  1.00  0.00    -0.135 C  
HETATM    4  O   UNL     1      -7.628  12.812  68.143  1.00  0.00    -0.112 OA 
HETATM    5  C   UNL     1      -8.787  13.487  67.831  1.00  0.00    -0.190 A  
HETATM    6  C   UNL     1      -8.848  14.897  67.971  1.00  0.00    -0.167 A  
HETATM    7  N   UNL     1      -7.721  15.678  68.322  1.00  0.00    -0.128 NA 
HETATM    8  C   UNL     1      -7.871  17.049  68.491  1.00  0.00    -0.251 C  
HETATM    9  C   UNL     1      -9.005  17.751  68.347  1.00  0.00    -0.281 C  
HETATM   10  C   UNL     1     -10.207  16.990  67.956  1.00  0.00    -0.319 C  
HETATM   11  C   UNL     1      -9.001  19.205  68.602  1.00  0.00    -0.369 C  
HETATM   12  C   UNL     1     -10.084  15.530  67.750  1.00  0.00    -0.232 A  
HETATM   13  O   UNL     1      -7.999  19.831  68.914  1.00  0.00    -0.291 OA 
HETATM   14  O   UNL     1     -10.208  19.798  68.476  1.00  0.00    -0.440 OA 
HETATM   15  O   UNL     1     -11.284  17.571  67.820  1.00  0.00    -0.112 OA 
HETATM   16  C   UNL     1     -11.214  14.811  67.378  1.00  0.00    -0.346 A  
HETATM   17  C   UNL     1     -11.119  13.438  67.217  1.00  0.00    -0.282 A  
HETATM   18  C   UNL     1      -9.919  12.718  67.426  1.00  0.00    -0.212 A  
HETATM   19  F   UNL     1     -12.259  12.791  66.919  1.00  0.00    -0.435 F  
ENDROOT
BRANCH  18  20
HETATM   20  N   UNL     1      -9.916  11.334  67.276  1.00  0.00    -0.182 NA 
HETATM   21  C   UNL     1     -10.087  10.675  65.977  1.00  0.00    -0.250 C  
HETATM   22  C   UNL     1      -9.199   9.409  65.905  1.00  0.00    -0.213 C  
HETATM   23  N   UNL     1      -9.336   8.455  67.028  1.00  0.00    -0.151 NA 
HETATM   24  C   UNL     1      -9.194   9.198  68.304  1.00  0.00    -0.132 C  
HETATM   25  C   UNL     1     -10.605   7.736  66.964  1.00  0.00    -0.326 C  
HETATM   26  C   UNL     1     -10.104  10.444  68.441  1.00  0.00    -0.163 C  
ENDBRANCH  18  20
TORSDOF 1
ENDMDL
MODEL       44
REMARK 921   NORMALIZED FREE ENERGY PREDICTED BY IDOCK:   -5.58 KCAL/MOL
REMARK 922        TOTAL FREE ENERGY PREDICTED BY IDOCK:   -6.31 KCAL/MOL
REMARK 923 INTER-LIGAND FREE ENERGY PREDICTED BY IDOCK:   -5.88 KCAL/MOL
REMARK 924 INTRA-LIGAND FREE ENERGY PREDICTED BY IDOCK:   -0.42 KCAL/MOL
REMARK 927      BINDING AFFINITY PREDICTED BY RF-SCORE:    0.00 PKD
ROOT
HETATM    1  C   UNL     1     -11.153   6.244  68.757  1.00  0.00    -0.424 C  
HETATM    2  C   UNL     1     -10.032   7.160  69.256  1.00  0.00    -0.168 C  
HETATM    3  C   UNL     1      -8.832   7.179  68.306  1.00  0.00    -0.127 C  
HETATM    4  O   UNL     1      -8.958   8.045  67.184  1.00  0.00    -0.131 OA 
HETATM    5  C   UNL     1      -9.423   9.311  67.469  1.00  0.00    -0.132 A  
HETATM    6  C   UNL     1     -10.254   9.526  68.598  1.00  0.00    -0.195 A  
HETATM    7  N   UNL     1     -10.553   8.504  69.530  1.00  0.00    -0.224 NA 
HETATM    8  C   UNL     1     -11.417   8.778  70.583  1.00  0.00    -0.231 C  
HETATM    9  C   UNL     1     -12.021   9.948  70.836  1.00  0.00    -0.434 C  
HETATM   10  C   UNL     1     -11.725  11.057  69.909  1.00  0.00    -0.346 C  
HETATM   11  C   UNL     1     -12.945  10.060  71.982  1.00  0.00    -0.416 C  
HETATM   12  C   UNL     1     -10.795  10.810  68.784  1.00  0.00    -0.262 A  
HETATM   13  O   UNL     1     -13.177   9.141  72.753  1.00  0.00    -0.394 OA 
HETATM   14  O   UNL     1     -13.534  11.270  72.108  1.00  0.00    -0.390 OA 
HETATM   15  O   UNL     1     -12.257  12.155  70.075  1.00  0.00    -0.269 OA 
HETATM   16  C   UNL     1     -10.511  11.854  67.912  1.00  0.00    -0.225 A  
HETATM   17  C   UNL     1      -9.671  11.624  66.834  1.00  0.00    -0.195 A  
HETATM   18  C   UNL     1      -9.089  10.363  66.565  1.00  0.00    -0.155 A  
HETATM   19  F   UNL     1      -9.485  12.655  65.990  1.00  0.00    -0.244 F  
ENDROOT
BRANCH  18  20
HETATM   20  N   UNL     1      -8.281  10.208  65.441  1.00  0.00    -0.145 NA 
HETATM   21  C   UNL     1      -6.852  10.538  65.437  1.00  0.00    -0.078 C  
HETATM   22  C   UNL     1      -6.077   9.522  64.563  1.00  0.00    -0.082 C  
HETATM   23  N   UNL     1      -6.597   9.313  63.194  1.00  0.00    -0.090 NA 
HETATM   24  C   UNL     1      -8.050   9.027  63.275  1.00  0.00    -0.170 C  
HETATM   25  C   UNL     1      -6.324  10.465  62.340  1.00  0.00    -0.134 C  
HETATM   26  C   UNL     1      -8.874  10.048  64.097  1.00  0.00    -0.221 C  
ENDBRANCH  18  20
TORSDOF 1
ENDMDL
MODEL       45
REMARK 921   NORMALIZED FREE ENERGY PREDICTED BY IDOCK:   -5.51 KCAL/MOL
REMARK 922        TOTAL FREE ENERGY PREDICTED BY IDOCK:   -6.23 KCAL/MOL
REMARK 923 INTER-LIGAND FREE ENERGY PREDICTED BY IDOCK:   -5.81 KCAL/MOL
REMARK 924 INTRA-LIGAND FREE ENERGY PREDICTED BY IDOCK:   -0.43 KCAL/MOL
REMARK 927      BINDING AFFINITY PREDICTED BY RF-SCORE:    0.00 PKD
ROOT
HETATM    1  C   UNL     1     -12.925  10.082  71.059  1.00  0.00    -0.445 C  
HETATM    2  C   UNL     1     -11.423  10.326  70.888  1.00  0.00    -0.339 C  
HETATM    3  C   UNL     1     -10.579   9.331  71.689  1.00  0.00    -0.290 C  
HETATM    4  O   UNL     1     -10.383   8.065  71.072  1.00  0.00    -0.200 OA 
HETATM    5  C   UNL     1     -10.022   8.108  69.743  1.00  0.00    -0.191 A  
HETATM    6  C   UNL     1     -10.406   9.210  68.938  1.00  0.00    -0.214 A  
HETATM    7  N   UNL     1     -11.067  10.346  69.464  1.00  0.00    -0.247 NA 
HETATM    8  C   UNL     1     -11.459  11.364  68.603  1.00  0.00    -0.296 C  
HETATM    9  C   UNL     1     -11.269  11.403  67.276  1.00  0.00    -0.370 C  
HETATM   10  C   UNL     1     -10.562  10.255  66.676  1.00  0.00    -0.162 C  
HETATM   11  C   UNL     1     -11.784  12.547  66.499  1.00  0.00    -0.391 C  
HETATM   12  C   UNL     1     -10.114   9.159  67.563  1.00  0.00    -0.284 A  
HETATM   13  O   UNL     1     -12.358  13.501  67.003  1.00  0.00    -0.335 OA 
HETATM   14  O   UNL     1     -11.581  12.454  65.166  1.00  0.00    -0.336 OA 
HETATM   15  O   UNL     1     -10.368  10.220  65.462  1.00  0.00    -0.258 OA 
HETATM   16  C   UNL     1      -9.444   8.078  67.002  1.00  0.00    -0.223 A  
HETATM   17  C   UNL     1      -9.051   7.028  67.817  1.00  0.00    -0.126 A  
HETATM   18  C   UNL     1      -9.311   6.993  69.207  1.00  0.00    -0.145 A  
HETATM   19  F   UNL     1      -8.465   5.984  67.206  1.00  0.00    -0.106 F  
ENDROOT
BRANCH  18  20
HETATM   20  N   UNL     1      -8.912   5.884  69.950  1.00  0.00    -0.138 NA 
HETATM   21  C   UNL     1      -7.552   5.728  70.476  1.00  0.00    -0.090 C  
HETATM   22  C   UNL     1      -7.598   5.050  71.868  1.00  0.00    -0.102 C  
HETATM   23  N   UNL     1      -8.369   3.790  71.951  1.00  0.00    -0.084 NA 
HETATM   24  C   UNL     1      -9.712   4.014  71.365  1.00  0.00    -0.183 C  
HETATM   25  C   UNL     1      -7.669   2.693  71.288  1.00  0.00    -0.044 C  
HETATM   26  C   UNL     1      -9.713   4.642  69.949  1.00  0.00    -0.209 C  
ENDBRANCH  18  20
TORSDOF 1
ENDMDL
MODEL       46
REMARK 921   NORMALIZED FREE ENERGY PREDICTED BY IDOCK:   -5.49 KCAL/MOL
REMARK 922        TOTAL FREE ENERGY PREDICTED BY IDOCK:   -6.21 KCAL/MOL
REMARK 923 INTER-LIGAND FREE ENERGY PREDICTED BY IDOCK:   -5.78 KCAL/MOL
REMARK 924 INTRA-LIGAND FREE ENERGY PREDICTED BY IDOCK:   -0.43 KCAL/MOL
REMARK 927      BINDING AFFINITY PREDICTED BY RF-SCORE:    0.00 PKD
ROOT
HETATM    1  C   UNL     1     -12.156  12.458  70.154  1.00  0.00    -0.366 C  
HETATM    2  C   UNL     1     -11.821  12.501  68.660  1.00  0.00    -0.297 C  
HETATM    3  C   UNL     1     -12.130  13.864  68.035  1.00  0.00    -0.283 C  
HETATM    4  O   UNL     1     -11.132  14.860  68.226  1.00  0.00    -0.260 OA 
HETATM    5  C   UNL     1      -9.839  14.452  67.981  1.00  0.00    -0.221 A  
HETATM    6  C   UNL     1      -9.483  13.089  68.137  1.00  0.00    -0.218 A  
HETATM    7  N   UNL     1     -10.432  12.082  68.435  1.00  0.00    -0.213 NA 
HETATM    8  C   UNL     1      -9.999  10.775  68.624  1.00  0.00    -0.182 C  
HETATM    9  C   UNL     1      -8.735  10.334  68.546  1.00  0.00    -0.130 C  
HETATM   10  C   UNL     1      -7.706  11.339  68.212  1.00  0.00    -0.122 C  
HETATM   11  C   UNL     1      -8.439   8.913  68.813  1.00  0.00    -0.131 C  
HETATM   12  C   UNL     1      -8.130  12.738  67.987  1.00  0.00    -0.162 A  
HETATM   13  O   UNL     1      -9.298   8.084  69.077  1.00  0.00    -0.148 OA 
HETATM   14  O   UNL     1      -7.127   8.596  68.757  1.00  0.00    -0.062 OA 
HETATM   15  O   UNL     1      -6.524  11.004  68.139  1.00  0.00    -0.056 OA 
HETATM   16  C   UNL     1      -7.163  13.685  67.669  1.00  0.00    -0.179 A  
HETATM   17  C   UNL     1      -7.543  15.006  67.492  1.00  0.00    -0.192 A  
HETATM   18  C   UNL     1      -8.880  15.448  67.631  1.00  0.00    -0.174 A  
HETATM   19  F   UNL     1      -6.555  15.885  67.250  1.00  0.00    -0.174 F  
ENDROOT
BRANCH  18  20
HETATM   20  N   UNL     1      -9.173  16.800  67.469  1.00  0.00    -0.214 NA 
HETATM   21  C   UNL     1      -9.348  17.423  66.152  1.00  0.00    -0.149 C  
HETATM   22  C   UNL     1     -10.463  18.496  66.219  1.00  0.00    -0.406 C  
HETATM   23  N   UNL     1     -10.329  19.506  67.292  1.00  0.00    -0.415 NA 
HETATM   24  C   UNL     1     -10.114  18.805  68.581  1.00  0.00    -0.380 C  
HETATM   25  C   UNL     1      -9.250  20.447  67.006  1.00  0.00    -0.352 C  
HETATM   26  C   UNL     1      -8.972  17.759  68.575  1.00  0.00    -0.287 C  
ENDBRANCH  18  20
TORSDOF 1
ENDMDL
MODEL       47
REMARK 921   NORMALIZED FREE ENERGY PREDICTED BY IDOCK:   -5.46 KCAL/MOL
REMARK 922        TOTAL FREE ENERGY PREDICTED BY IDOCK:   -6.18 KCAL/MOL
REMARK 923 INTER-LIGAND FREE ENERGY PREDICTED BY IDOCK:   -5.80 KCAL/MOL
REMARK 924 INTRA-LIGAND FREE ENERGY PREDICTED BY IDOCK:   -0.38 KCAL/MOL
REMARK 927      BINDING AFFINITY PREDICTED BY RF-SCORE:    0.00 PKD
ROOT
HETATM    1  C   UNL     1     -10.168  14.382  68.797  1.00  0.00    -0.239 C  
HETATM    2  C   UNL     1      -9.093  14.080  67.750  1.00  0.00    -0.192 C  
HETATM    3  C   UNL     1      -7.935  13.261  68.327  1.00  0.00    -0.144 C  
HETATM    4  O   UNL     1      -8.164  11.859  68.409  1.00  0.00    -0.156 OA 
HETATM    5  C   UNL     1      -8.700  11.284  67.278  1.00  0.00    -0.145 A  
HETATM    6  C   UNL     1      -9.499  12.058  66.398  1.00  0.00    -0.231 A  
HETATM    7  N   UNL     1      -9.692  13.449  66.568  1.00  0.00    -0.276 NA 
HETATM    8  C   UNL     1     -10.530  14.130  65.693  1.00  0.00    -0.321 C  
HETATM    9  C   UNL     1     -11.201  13.603  64.658  1.00  0.00    -0.383 C  
HETATM   10  C   UNL     1     -11.017  12.158  64.419  1.00  0.00    -0.326 C  
HETATM   11  C   UNL     1     -12.085  14.464  63.847  1.00  0.00    -0.154 C  
HETATM   12  C   UNL     1     -10.118  11.402  65.319  1.00  0.00    -0.315 A  
HETATM   13  O   UNL     1     -12.224  15.662  64.043  1.00  0.00    -0.618 OA 
HETATM   14  O   UNL     1     -12.748  13.814  62.865  1.00  0.00    -0.558 OA 
HETATM   15  O   UNL     1     -11.614  11.609  63.495  1.00  0.00    -0.428 OA 
HETATM   16  C   UNL     1      -9.939  10.042  65.094  1.00  0.00    -0.350 A  
HETATM   17  C   UNL     1      -9.128   9.316  65.951  1.00  0.00    -0.197 A  
HETATM   18  C   UNL     1      -8.474   9.891  67.065  1.00  0.00    -0.121 A  
HETATM   19  F   UNL     1      -9.046   7.994  65.719  1.00  0.00    -0.195 F  
ENDROOT
BRANCH  18  20
HETATM   20  N   UNL     1      -7.702   9.084  67.898  1.00  0.00    -0.096 NA 
HETATM   21  C   UNL     1      -8.229   8.473  69.123  1.00  0.00    -0.119 C  
HETATM   22  C   UNL     1      -7.622   7.061  69.313  1.00  0.00    -0.096 C  
HETATM   23  N   UNL     1      -6.146   6.975  69.246  1.00  0.00    -0.032 NA 
HETATM   24  C   UNL     1      -5.686   7.647  68.007  1.00  0.00    -0.032 C  
HETATM   25  C   UNL     1      -5.525   7.553  70.434  1.00  0.00    -0.023 C  
HETATM   26  C   UNL     1      -6.228   9.084  67.802  1.00  0.00    -0.051 C  
ENDBRANCH  18  20
TORSDOF 1
ENDMDL
MODEL       48
REMARK 921   NORMALIZED FREE ENERGY PREDICTED BY IDOCK:   -5.44 KCAL/MOL
REMARK 922        TOTAL FREE ENERGY PREDICTED BY IDOCK:   -6.16 KCAL/MOL
REMARK 923 INTER-LIGAND FREE ENERGY PREDICTED BY IDOCK:   -5.76 KCAL/MOL
REMARK 924 INTRA-LIGAND FREE ENERGY PREDICTED BY IDOCK:   -0.40 KCAL/MOL
REMARK 927      BINDING AFFINITY PREDICTED BY RF-SCORE:    0.00 PKD
ROOT
HETATM    1  C   UNL     1      -5.575  12.242  67.708  1.00  0.00    -0.092 C  
HETATM    2  C   UNL     1      -6.567  12.527  68.838  1.00  0.00    -0.095 C  
HETATM    3  C   UNL     1      -6.786  14.027  69.052  1.00  0.00    -0.111 C  
HETATM    4  O   UNL     1      -7.714  14.639  68.164  1.00  0.00    -0.110 OA 
HETATM    5  C   UNL     1      -8.898  13.956  67.989  1.00  0.00    -0.184 A  
HETATM    6  C   UNL     1      -8.938  12.548  68.158  1.00  0.00    -0.199 A  
HETATM    7  N   UNL     1      -7.823  11.803  68.612  1.00  0.00    -0.134 NA 
HETATM    8  C   UNL     1      -7.923  10.420  68.703  1.00  0.00    -0.115 C  
HETATM    9  C   UNL     1      -9.000   9.676  68.408  1.00  0.00    -0.123 C  
HETATM   10  C   UNL     1     -10.200  10.405  67.953  1.00  0.00    -0.179 C  
HETATM   11  C   UNL     1      -8.926   8.207  68.524  1.00  0.00    -0.137 C  
HETATM   12  C   UNL     1     -10.138  11.881  67.859  1.00  0.00    -0.199 A  
HETATM   13  O   UNL     1      -7.933   7.611  68.913  1.00  0.00    -0.120 OA 
HETATM   14  O   UNL     1     -10.053   7.561  68.151  1.00  0.00    -0.170 OA 
HETATM   15  O   UNL     1     -11.218   9.783  67.651  1.00  0.00    -0.178 OA 
HETATM   16  C   UNL     1     -11.268  12.570  67.434  1.00  0.00    -0.344 A  
HETATM   17  C   UNL     1     -11.211  13.949  67.307  1.00  0.00    -0.312 A  
HETATM   18  C   UNL     1     -10.044  14.700  67.579  1.00  0.00    -0.224 A  
HETATM   19  F   UNL     1     -12.315  14.551  66.832  1.00  0.00    -0.435 F  
ENDROOT
BRANCH  18  20
HETATM   20  N   UNL     1     -10.060  16.080  67.394  1.00  0.00    -0.253 NA 
HETATM   21  C   UNL     1     -10.772  16.995  68.293  1.00  0.00    -0.372 C  
HETATM   22  C   UNL     1      -9.967  18.306  68.461  1.00  0.00    -0.393 C  
HETATM   23  N   UNL     1      -9.552  18.978  67.209  1.00  0.00    -0.308 NA 
HETATM   24  C   UNL     1      -8.879  17.985  66.337  1.00  0.00    -0.231 C  
HETATM   25  C   UNL     1     -10.689  19.600  66.537  1.00  0.00    -0.434 C  
HETATM   26  C   UNL     1      -9.674  16.677  66.098  1.00  0.00    -0.303 C  
ENDBRANCH  18  20
TORSDOF 1
ENDMDL
MODEL       49
REMARK 921   NORMALIZED FREE ENERGY PREDICTED BY IDOCK:   -5.44 KCAL/MOL
REMARK 922        TOTAL FREE ENERGY PREDICTED BY IDOCK:   -6.15 KCAL/MOL
REMARK 923 INTER-LIGAND FREE ENERGY PREDICTED BY IDOCK:   -5.72 KCAL/MOL
REMARK 924 INTRA-LIGAND FREE ENERGY PREDICTED BY IDOCK:   -0.43 KCAL/MOL
REMARK 927      BINDING AFFINITY PREDICTED BY RF-SCORE:    0.00 PKD
ROOT
HETATM    1  C   UNL     1     -13.237  10.393  72.549  1.00  0.00     0.170 C  
HETATM    2  C   UNL     1     -12.855   9.481  71.380  1.00  0.00    -0.358 C  
HETATM    3  C   UNL     1     -13.219  10.093  70.025  1.00  0.00     0.531 C  
HETATM    4  O   UNL     1     -12.286  11.038  69.514  1.00  0.00    -0.324 OA 
HETATM    5  C   UNL     1     -10.965  10.653  69.578  1.00  0.00    -0.272 A  
HETATM    6  C   UNL     1     -10.538   9.739  70.575  1.00  0.00    -0.312 A  
HETATM    7  N   UNL     1     -11.439   9.106  71.464  1.00  0.00    -0.339 NA 
HETATM    8  C   UNL     1     -10.940   8.262  72.449  1.00  0.00    -0.368 C  
HETATM    9  C   UNL     1      -9.651   7.958  72.661  1.00  0.00    -0.290 C  
HETATM   10  C   UNL     1      -8.669   8.572  71.746  1.00  0.00    -0.201 C  
HETATM   11  C   UNL     1      -9.285   7.069  73.782  1.00  0.00    -0.201 C  
HETATM   12  C   UNL     1      -9.164   9.463  70.673  1.00  0.00    -0.303 A  
HETATM   13  O   UNL     1     -10.104   6.554  74.528  1.00  0.00    -0.344 OA 
HETATM   14  O   UNL     1      -7.956   6.875  73.929  1.00  0.00    -0.107 OA 
HETATM   15  O   UNL     1      -7.469   8.346  71.893  1.00  0.00    -0.092 OA 
HETATM   16  C   UNL     1      -8.241  10.040  69.807  1.00  0.00    -0.191 A  
HETATM   17  C   UNL     1      -8.689  10.905  68.821  1.00  0.00    -0.158 A  
HETATM   18  C   UNL     1     -10.052  11.245  68.655  1.00  0.00    -0.208 A  
HETATM   19  F   UNL     1      -7.744  11.479  68.057  1.00  0.00    -0.099 F  
ENDROOT
BRANCH  18  20
HETATM   20  N   UNL     1     -10.415  12.149  67.660  1.00  0.00    -0.203 NA 
HETATM   21  C   UNL     1     -10.566  11.764  66.253  1.00  0.00    -0.252 C  
HETATM   22  C   UNL     1     -11.742  12.542  65.615  1.00  0.00    -0.423 C  
HETATM   23  N   UNL     1     -11.715  14.013  65.783  1.00  0.00    -0.350 NA 
HETATM   24  C   UNL     1     -11.519  14.324  67.219  1.00  0.00    -0.352 C  
HETATM   25  C   UNL     1     -10.680  14.624  64.954  1.00  0.00    -0.427 C  
HETATM   26  C   UNL     1     -10.319  13.606  67.887  1.00  0.00    -0.249 C  
ENDBRANCH  18  20
TORSDOF 1
ENDMDL
MODEL       50
REMARK 921   NORMALIZED FREE ENERGY PREDICTED BY IDOCK:   -5.37 KCAL/MOL
REMARK 922        TOTAL FREE ENERGY PREDICTED BY IDOCK:   -6.08 KCAL/MOL
REMARK 923 INTER-LIGAND FREE ENERGY PREDICTED BY IDOCK:   -5.72 KCAL/MOL
REMARK 924 INTRA-LIGAND FREE ENERGY PREDICTED BY IDOCK:   -0.36 KCAL/MOL
REMARK 927      BINDING AFFINITY PREDICTED BY RF-SCORE:    0.00 PKD
ROOT
HETATM    1  C   UNL     1      -5.890  13.603  68.396  1.00  0.00    -0.098 C  
HETATM    2  C   UNL     1      -6.810  12.940  67.368  1.00  0.00    -0.128 C  
HETATM    3  C   UNL     1      -6.848  11.417  67.519  1.00  0.00    -0.086 C  
HETATM    4  O   UNL     1      -7.724  10.928  68.529  1.00  0.00    -0.104 OA 
HETATM    5  C   UNL     1      -8.983  11.488  68.536  1.00  0.00    -0.146 A  
HETATM    6  C   UNL     1      -9.181  12.799  68.034  1.00  0.00    -0.208 A  
HETATM    7  N   UNL     1      -8.148  13.543  67.415  1.00  0.00    -0.181 NA 
HETATM    8  C   UNL     1      -8.405  14.842  66.994  1.00  0.00    -0.216 C  
HETATM    9  C   UNL     1      -9.568  15.501  67.104  1.00  0.00    -0.228 C  
HETATM   10  C   UNL     1     -10.688  14.763  67.721  1.00  0.00    -0.268 C  
HETATM   11  C   UNL     1      -9.662  16.898  66.639  1.00  0.00    -0.271 C  
HETATM   12  C   UNL     1     -10.458  13.371  68.166  1.00  0.00    -0.250 A  
HETATM   13  O   UNL     1      -8.734  17.499  66.118  1.00  0.00    -0.438 OA 
HETATM   14  O   UNL     1     -10.866  17.476  66.847  1.00  0.00    -0.190 OA 
HETATM   15  O   UNL     1     -11.779  15.314  67.865  1.00  0.00    -0.328 OA 
HETATM   16  C   UNL     1     -11.512  12.673  68.743  1.00  0.00    -0.349 A  
HETATM   17  C   UNL     1     -11.300  11.381  69.197  1.00  0.00    -0.288 A  
HETATM   18  C   UNL     1     -10.046  10.731  69.113  1.00  0.00    -0.205 A  
HETATM   19  F   UNL     1     -12.339  10.781  69.803  1.00  0.00    -0.350 F  
ENDROOT
BRANCH  18  20
HETATM   20  N   UNL     1      -9.907   9.442  69.623  1.00  0.00    -0.182 NA 
HETATM   21  C   UNL     1      -9.258   9.162  70.908  1.00  0.00    -0.261 C  
HETATM   22  C   UNL     1      -9.984   7.997  71.624  1.00  0.00    -0.184 C  
HETATM   23  N   UNL     1     -10.180   6.766  70.827  1.00  0.00    -0.195 NA 
HETATM   24  C   UNL     1     -10.800   7.133  69.530  1.00  0.00    -0.225 C  
HETATM   25  C   UNL     1      -8.923   6.049  70.637  1.00  0.00    -0.146 C  
HETATM   26  C   UNL     1     -10.075   8.260  68.753  1.00  0.00    -0.200 C  
ENDBRANCH  18  20
TORSDOF 1
ENDMDL
MODEL       51
REMARK 921   NORMALIZED FREE ENERGY PREDICTED BY IDOCK:   -5.32 KCAL/MOL
REMARK 922        TOTAL FREE ENERGY PREDICTED BY IDOCK:   -6.03 KCAL/MOL
REMARK 923 INTER-LIGAND FREE ENERGY PREDICTED BY IDOCK:   -5.61 KCAL/MOL
REMARK 924 INTRA-LIGAND FREE ENERGY PREDICTED BY IDOCK:   -0.42 KCAL/MOL
REMARK 927      BINDING AFFINITY PREDICTED BY RF-SCORE:    0.00 PKD
ROOT
HETATM    1  C   UNL     1      -8.086   7.993  65.590  1.00  0.00    -0.121 C  
HETATM    2  C   UNL     1      -7.683   8.791  66.833  1.00  0.00    -0.094 C  
HETATM    3  C   UNL     1      -7.386  10.257  66.511  1.00  0.00    -0.113 C  
HETATM    4  O   UNL     1      -8.527  11.102  66.412  1.00  0.00    -0.160 OA 
HETATM    5  C   UNL     1      -9.449  10.964  67.426  1.00  0.00    -0.155 A  
HETATM    6  C   UNL     1      -9.567   9.732  68.117  1.00  0.00    -0.143 A  
HETATM    7  N   UNL     1      -8.695   8.641  67.886  1.00  0.00    -0.137 NA 
HETATM    8  C   UNL     1      -8.905   7.447  68.566  1.00  0.00    -0.126 C  
HETATM    9  C   UNL     1      -9.875   7.198  69.459  1.00  0.00    -0.162 C  
HETATM   10  C   UNL     1     -10.799   8.309  69.757  1.00  0.00    -0.185 C  
HETATM   11  C   UNL     1      -9.982   5.856  70.063  1.00  0.00    -0.183 C  
HETATM   12  C   UNL     1     -10.597   9.602  69.066  1.00  0.00    -0.237 A  
HETATM   13  O   UNL     1      -9.206   4.944  69.821  1.00  0.00    -0.108 OA 
HETATM   14  O   UNL     1     -11.026   5.706  70.908  1.00  0.00    -0.259 OA 
HETATM   15  O   UNL     1     -11.720   8.143  70.556  1.00  0.00    -0.201 OA 
HETATM   16  C   UNL     1     -11.463  10.652  69.348  1.00  0.00    -0.356 A  
HETATM   17  C   UNL     1     -11.306  11.856  68.680  1.00  0.00    -0.276 A  
HETATM   18  C   UNL     1     -10.304  12.072  67.706  1.00  0.00    -0.197 A  
HETATM   19  F   UNL     1     -12.214  12.811  68.949  1.00  0.00    -0.317 F  
ENDROOT
BRANCH  18  20
HETATM   20  N   UNL     1     -10.235  13.302  67.056  1.00  0.00    -0.242 NA 
HETATM   21  C   UNL     1      -9.509  14.452  67.607  1.00  0.00    -0.214 C  
HETATM   22  C   UNL     1      -8.831  15.246  66.465  1.00  0.00    -0.300 C  
HETATM   23  N   UNL     1      -9.706  15.637  65.336  1.00  0.00    -0.340 NA 
HETATM   24  C   UNL     1     -10.435  14.436  64.862  1.00  0.00    -0.423 C  
HETATM   25  C   UNL     1     -10.624  16.705  65.720  1.00  0.00    -0.268 C  
HETATM   26  C   UNL     1     -11.173  13.639  65.966  1.00  0.00    -0.296 C  
ENDBRANCH  18  20
TORSDOF 1
ENDMDL
MODEL       52
REMARK 921   NORMALIZED FREE ENERGY PREDICTED BY IDOCK:   -5.30 KCAL/MOL
REMARK 922        TOTAL FREE ENERGY PREDICTED BY IDOCK:   -6.01 KCAL/MOL
REMARK 923 INTER-LIGAND FREE ENERGY PREDICTED BY IDOCK:   -5.64 KCAL/MOL
REMARK 924 INTRA-LIGAND FREE ENERGY PREDICTED BY IDOCK:   -0.37 KCAL/MOL
REMARK 927      BINDING AFFINITY PREDICTED BY RF-SCORE:    0.00 PKD
ROOT
HETATM    1  C   UNL     1     -12.104  10.515  69.555  1.00  0.00    -0.208 C  
HETATM    2  C   UNL     1     -10.753  11.063  69.087  1.00  0.00    -0.234 C  
HETATM    3  C   UNL     1      -9.581  10.201  69.562  1.00  0.00    -0.221 C  
HETATM    4  O   UNL     1      -9.317   9.045  68.775  1.00  0.00    -0.139 OA 
HETATM    5  C   UNL     1      -9.296   9.254  67.414  1.00  0.00    -0.127 A  
HETATM    6  C   UNL     1     -10.049  10.313  66.845  1.00  0.00    -0.221 A  
HETATM    7  N   UNL     1     -10.755  11.254  67.631  1.00  0.00    -0.212 NA 
HETATM    8  C   UNL     1     -11.513  12.234  67.001  1.00  0.00    -0.354 C  
HETATM    9  C   UNL     1     -11.654  12.404  65.678  1.00  0.00    -0.441 C  
HETATM   10  C   UNL     1     -10.919  11.464  64.809  1.00  0.00    -0.234 C  
HETATM   11  C   UNL     1     -12.533  13.476  65.170  1.00  0.00    -0.451 C  
HETATM   12  C   UNL     1     -10.087  10.418  65.444  1.00  0.00    -0.354 A  
HETATM   13  O   UNL     1     -13.129  14.259  65.895  1.00  0.00    -0.310 OA 
HETATM   14  O   UNL     1     -12.639  13.520  63.824  1.00  0.00    -0.701 OA 
HETATM   15  O   UNL     1     -11.017  11.556  63.586  1.00  0.00    -0.386 OA 
HETATM   16  C   UNL     1      -9.391   9.534  64.628  1.00  0.00    -0.201 A  
HETATM   17  C   UNL     1      -8.637   8.527  65.210  1.00  0.00    -0.165 A  
HETATM   18  C   UNL     1      -8.548   8.342  66.610  1.00  0.00    -0.120 A  
HETATM   19  F   UNL     1      -8.039   7.666  64.369  1.00  0.00    -0.132 F  
ENDROOT
BRANCH  18  20
HETATM   20  N   UNL     1      -7.795   7.285  67.114  1.00  0.00    -0.108 NA 
HETATM   21  C   UNL     1      -6.389   7.426  67.507  1.00  0.00    -0.052 C  
HETATM   22  C   UNL     1      -6.099   6.558  68.756  1.00  0.00    -0.025 C  
HETATM   23  N   UNL     1      -6.506   5.138  68.668  1.00  0.00    -0.038 NA 
HETATM   24  C   UNL     1      -7.920   5.074  68.227  1.00  0.00    -0.086 C  
HETATM   25  C   UNL     1      -5.630   4.388  67.773  1.00  0.00    -0.017 C  
HETATM   26  C   UNL     1      -8.245   5.887  66.949  1.00  0.00    -0.105 C  
ENDBRANCH  18  20
TORSDOF 1
ENDMDL
MODEL       53
REMARK 921   NORMALIZED FREE ENERGY PREDICTED BY IDOCK:   -5.28 KCAL/MOL
REMARK 922        TOTAL FREE ENERGY PREDICTED BY IDOCK:   -5.99 KCAL/MOL
REMARK 923 INTER-LIGAND FREE ENERGY PREDICTED BY IDOCK:   -5.72 KCAL/MOL
REMARK 924 INTRA-LIGAND FREE ENERGY PREDICTED BY IDOCK:   -0.27 KCAL/MOL
REMARK 927      BINDING AFFINITY PREDICTED BY RF-SCORE:    0.00 PKD
ROOT
HETATM    1  C   UNL     1     -11.520   6.457  69.557  1.00  0.00    -0.412 C  
HETATM    2  C   UNL     1     -10.291   6.620  68.659  1.00  0.00    -0.188 C  
HETATM    3  C   UNL     1     -10.658   7.112  67.256  1.00  0.00    -0.327 C  
HETATM    4  O   UNL     1     -10.858   8.515  67.136  1.00  0.00    -0.216 OA 
HETATM    5  C   UNL     1      -9.892   9.299  67.730  1.00  0.00    -0.171 A  
HETATM    6  C   UNL     1      -9.157   8.803  68.837  1.00  0.00    -0.141 A  
HETATM    7  N   UNL     1      -9.291   7.476  69.310  1.00  0.00    -0.151 NA 
HETATM    8  C   UNL     1      -8.575   7.079  70.432  1.00  0.00    -0.142 C  
HETATM    9  C   UNL     1      -7.729   7.835  71.147  1.00  0.00    -0.084 C  
HETATM   10  C   UNL     1      -7.532   9.222  70.684  1.00  0.00    -0.136 C  
HETATM   11  C   UNL     1      -7.074   7.267  72.342  1.00  0.00    -0.067 C  
HETATM   12  C   UNL     1      -8.264   9.677  69.481  1.00  0.00    -0.136 A  
HETATM   13  O   UNL     1      -7.233   6.114  72.713  1.00  0.00    -0.083 OA 
HETATM   14  O   UNL     1      -6.285   8.136  73.011  1.00  0.00    -0.068 OA 
HETATM   15  O   UNL     1      -6.780   9.975  71.303  1.00  0.00    -0.328 OA 
HETATM   16  C   UNL     1      -8.077  10.982  69.041  1.00  0.00    -0.105 A  
HETATM   17  C   UNL     1      -8.785  11.432  67.937  1.00  0.00    -0.145 A  
HETATM   18  C   UNL     1      -9.710  10.624  67.234  1.00  0.00    -0.168 A  
HETATM   19  F   UNL     1      -8.610  12.721  67.598  1.00  0.00    -0.144 F  
ENDROOT
BRANCH  18  20
HETATM   20  N   UNL     1     -10.406  11.162  66.155  1.00  0.00    -0.244 NA 
HETATM   21  C   UNL     1     -11.569  12.041  66.318  1.00  0.00    -0.310 C  
HETATM   22  C   UNL     1     -11.562  13.136  65.223  1.00  0.00    -0.321 C  
HETATM   23  N   UNL     1     -11.423  12.660  63.829  1.00  0.00    -0.434 NA 
HETATM   24  C   UNL     1     -10.256  11.748  63.751  1.00  0.00    -0.399 C  
HETATM   25  C   UNL     1     -12.645  12.010  63.365  1.00  0.00    -0.469 C  
HETATM   26  C   UNL     1     -10.249  10.604  64.795  1.00  0.00    -0.331 C  
ENDBRANCH  18  20
TORSDOF 1
ENDMDL
MODEL       54
REMARK 921   NORMALIZED FREE ENERGY PREDICTED BY IDOCK:   -5.23 KCAL/MOL
REMARK 922        TOTAL FREE ENERGY PREDICTED BY IDOCK:   -5.93 KCAL/MOL
REMARK 923 INTER-LIGAND FREE ENERGY PREDICTED BY IDOCK:   -5.51 KCAL/MOL
REMARK 924 INTRA-LIGAND FREE ENERGY PREDICTED BY IDOCK:   -0.42 KCAL/MOL
REMARK 927      BINDING AFFINITY PREDICTED BY RF-SCORE:    0.00 PKD
ROOT
HETATM    1  C   UNL     1     -13.330   9.338  71.418  1.00  0.00    -0.390 C  
HETATM    2  C   UNL     1     -11.855   9.696  71.623  1.00  0.00    -0.384 C  
HETATM    3  C   UNL     1     -10.972   8.454  71.769  1.00  0.00    -0.291 C  
HETATM    4  O   UNL     1     -10.589   7.833  70.548  1.00  0.00    -0.218 OA 
HETATM    5  C   UNL     1     -10.132   8.691  69.571  1.00  0.00    -0.203 A  
HETATM    6  C   UNL     1     -10.571  10.038  69.546  1.00  0.00    -0.244 A  
HETATM    7  N   UNL     1     -11.393  10.592  70.557  1.00  0.00    -0.325 NA 
HETATM    8  C   UNL     1     -11.825  11.907  70.436  1.00  0.00    -0.239 C  
HETATM    9  C   UNL     1     -11.537  12.753  69.436  1.00  0.00    -0.361 C  
HETATM   10  C   UNL     1     -10.663  12.235  68.365  1.00  0.00    -0.234 C  
HETATM   11  C   UNL     1     -12.113  14.112  69.441  1.00  0.00    -0.328 C  
HETATM   12  C   UNL     1     -10.167  10.845  68.467  1.00  0.00    -0.197 A  
HETATM   13  O   UNL     1     -12.826  14.538  70.337  1.00  0.00    -0.349 OA 
HETATM   14  O   UNL     1     -11.796  14.856  68.359  1.00  0.00    -0.319 OA 
HETATM   15  O   UNL     1     -10.371  12.955  67.410  1.00  0.00    -0.230 OA 
HETATM   16  C   UNL     1      -9.340  10.356  67.462  1.00  0.00    -0.163 A  
HETATM   17  C   UNL     1      -8.900   9.044  67.527  1.00  0.00    -0.123 A  
HETATM   18  C   UNL     1      -9.262   8.160  68.571  1.00  0.00    -0.136 A  
HETATM   19  F   UNL     1      -8.156   8.611  66.495  1.00  0.00    -0.098 F  
ENDROOT
BRANCH  18  20
HETATM   20  N   UNL     1      -8.803   6.846  68.545  1.00  0.00    -0.124 NA 
HETATM   21  C   UNL     1      -7.419   6.481  68.864  1.00  0.00    -0.095 C  
HETATM   22  C   UNL     1      -7.389   5.133  69.625  1.00  0.00    -0.061 C  
HETATM   23  N   UNL     1      -8.122   4.013  68.991  1.00  0.00    -0.069 NA 
HETATM   24  C   UNL     1      -9.493   4.469  68.661  1.00  0.00    -0.158 C  
HETATM   25  C   UNL     1      -7.420   3.520  67.810  1.00  0.00    -0.062 C  
HETATM   26  C   UNL     1      -9.569   5.788  67.853  1.00  0.00    -0.115 C  
ENDBRANCH  18  20
TORSDOF 1
ENDMDL
MODEL       55
REMARK 921   NORMALIZED FREE ENERGY PREDICTED BY IDOCK:   -5.21 KCAL/MOL
REMARK 922        TOTAL FREE ENERGY PREDICTED BY IDOCK:   -5.92 KCAL/MOL
REMARK 923 INTER-LIGAND FREE ENERGY PREDICTED BY IDOCK:   -5.62 KCAL/MOL
REMARK 924 INTRA-LIGAND FREE ENERGY PREDICTED BY IDOCK:   -0.30 KCAL/MOL
REMARK 927      BINDING AFFINITY PREDICTED BY RF-SCORE:    0.00 PKD
ROOT
HETATM    1  C   UNL     1      -8.110  10.642  68.473  1.00  0.00    -0.125 C  
HETATM    2  C   UNL     1      -9.345   9.881  67.983  1.00  0.00    -0.130 C  
HETATM    3  C   UNL     1      -8.984   8.532  67.356  1.00  0.00    -0.134 C  
HETATM    4  O   UNL     1      -8.769   7.470  68.278  1.00  0.00    -0.124 OA 
HETATM    5  C   UNL     1      -9.721   7.351  69.268  1.00  0.00    -0.165 A  
HETATM    6  C   UNL     1     -10.452   8.489  69.691  1.00  0.00    -0.221 A  
HETATM    7  N   UNL     1     -10.329   9.752  69.064  1.00  0.00    -0.199 NA 
HETATM    8  C   UNL     1     -11.041  10.833  69.569  1.00  0.00    -0.278 C  
HETATM    9  C   UNL     1     -11.872  10.820  70.621  1.00  0.00    -0.460 C  
HETATM   10  C   UNL     1     -12.058   9.522  71.299  1.00  0.00    -0.360 C  
HETATM   11  C   UNL     1     -12.523  12.072  71.053  1.00  0.00    -0.276 C  
HETATM   12  C   UNL     1     -11.330   8.343  70.780  1.00  0.00    -0.290 A  
HETATM   13  O   UNL     1     -12.375  13.141  70.480  1.00  0.00    -0.344 OA 
HETATM   14  O   UNL     1     -13.297  11.948  72.154  1.00  0.00    -0.503 OA 
HETATM   15  O   UNL     1     -12.796   9.442  72.280  1.00  0.00    -0.392 OA 
HETATM   16  C   UNL     1     -11.506   7.118  71.414  1.00  0.00    -0.303 A  
HETATM   17  C   UNL     1     -10.802   6.014  70.960  1.00  0.00    -0.282 A  
HETATM   18  C   UNL     1      -9.893   6.072  69.877  1.00  0.00    -0.170 A  
HETATM   19  F   UNL     1     -10.966   4.874  71.653  1.00  0.00    -0.203 F  
ENDROOT
BRANCH  18  20
HETATM   20  N   UNL     1      -9.200   4.923  69.504  1.00  0.00    -0.111 NA 
HETATM   21  C   UNL     1      -7.998   4.457  70.204  1.00  0.00    -0.059 C  
HETATM   22  C   UNL     1      -7.984   2.910  70.260  1.00  0.00    -0.042 C  
HETATM   23  N   UNL     1      -8.174   2.212  68.968  1.00  0.00    -0.051 NA 
HETATM   24  C   UNL     1      -9.379   2.764  68.302  1.00  0.00    -0.200 C  
HETATM   25  C   UNL     1      -6.991   2.330  68.121  1.00  0.00    -0.047 C  
HETATM   26  C   UNL     1      -9.410   4.307  68.177  1.00  0.00    -0.152 C  
ENDBRANCH  18  20
TORSDOF 1
ENDMDL
MODEL       56
REMARK 921   NORMALIZED FREE ENERGY PREDICTED BY IDOCK:   -5.19 KCAL/MOL
REMARK 922        TOTAL FREE ENERGY PREDICTED BY IDOCK:   -5.90 KCAL/MOL
REMARK 923 INTER-LIGAND FREE ENERGY PREDICTED BY IDOCK:   -5.59 KCAL/MOL
REMARK 924 INTRA-LIGAND FREE ENERGY PREDICTED BY IDOCK:   -0.31 KCAL/MOL
REMARK 927      BINDING AFFINITY PREDICTED BY RF-SCORE:    0.00 PKD
ROOT
HETATM    1  C   UNL     1      -5.211  12.642  68.192  1.00  0.00    -0.073 C  
HETATM    2  C   UNL     1      -6.518  13.059  68.874  1.00  0.00    -0.094 C  
HETATM    3  C   UNL     1      -6.503  14.527  69.307  1.00  0.00    -0.123 C  
HETATM    4  O   UNL     1      -6.808  15.466  68.283  1.00  0.00    -0.107 OA 
HETATM    5  C   UNL     1      -7.906  15.158  67.511  1.00  0.00    -0.181 A  
HETATM    6  C   UNL     1      -8.297  13.806  67.339  1.00  0.00    -0.193 A  
HETATM    7  N   UNL     1      -7.666  12.737  68.019  1.00  0.00    -0.124 NA 
HETATM    8  C   UNL     1      -8.071  11.433  67.758  1.00  0.00    -0.121 C  
HETATM    9  C   UNL     1      -9.036  11.052  66.908  1.00  0.00    -0.162 C  
HETATM   10  C   UNL     1      -9.745  12.129  66.189  1.00  0.00    -0.240 C  
HETATM   11  C   UNL     1      -9.317   9.616  66.719  1.00  0.00    -0.152 C  
HETATM   12  C   UNL     1      -9.354  13.532  66.453  1.00  0.00    -0.191 A  
HETATM   13  O   UNL     1      -8.734   8.730  67.326  1.00  0.00    -0.127 OA 
HETATM   14  O   UNL     1     -10.272   9.350  65.801  1.00  0.00    -0.231 OA 
HETATM   15  O   UNL     1     -10.631  11.848  65.383  1.00  0.00    -0.253 OA 
HETATM   16  C   UNL     1     -10.023  14.548  65.780  1.00  0.00    -0.361 A  
HETATM   17  C   UNL     1      -9.641  15.864  65.991  1.00  0.00    -0.350 A  
HETATM   18  C   UNL     1      -8.585  16.230  66.858  1.00  0.00    -0.215 A  
HETATM   19  F   UNL     1     -10.282  16.796  65.265  1.00  0.00    -0.258 F  
ENDROOT
BRANCH  18  20
HETATM   20  N   UNL     1      -8.242  17.574  66.988  1.00  0.00    -0.211 NA 
HETATM   21  C   UNL     1      -7.381  18.271  66.027  1.00  0.00    -0.246 C  
HETATM   22  C   UNL     1      -7.870  19.729  65.841  1.00  0.00    -0.301 C  
HETATM   23  N   UNL     1      -8.059  20.514  67.081  1.00  0.00    -0.330 NA 
HETATM   24  C   UNL     1      -8.901  19.730  68.016  1.00  0.00    -0.302 C  
HETATM   25  C   UNL     1      -6.779  20.874  67.683  1.00  0.00    -0.349 C  
HETATM   26  C   UNL     1      -8.419  18.281  68.274  1.00  0.00    -0.295 C  
ENDBRANCH  18  20
TORSDOF 1
ENDMDL
MODEL       57
REMARK 921   NORMALIZED FREE ENERGY PREDICTED BY IDOCK:   -5.15 KCAL/MOL
REMARK 922        TOTAL FREE ENERGY PREDICTED BY IDOCK:   -5.85 KCAL/MOL
REMARK 923 INTER-LIGAND FREE ENERGY PREDICTED BY IDOCK:   -5.47 KCAL/MOL
REMARK 924 INTRA-LIGAND FREE ENERGY PREDICTED BY IDOCK:   -0.37 KCAL/MOL
REMARK 927      BINDING AFFINITY PREDICTED BY RF-SCORE:    0.00 PKD
ROOT
HETATM    1  C   UNL     1      -6.654  11.918  66.880  1.00  0.00    -0.083 C  
HETATM    2  C   UNL     1      -6.888  12.663  68.197  1.00  0.00    -0.090 C  
HETATM    3  C   UNL     1      -6.073  13.957  68.284  1.00  0.00    -0.112 C  
HETATM    4  O   UNL     1      -6.640  15.079  67.619  1.00  0.00    -0.160 OA 
HETATM    5  C   UNL     1      -7.981  15.286  67.856  1.00  0.00    -0.137 A  
HETATM    6  C   UNL     1      -8.821  14.195  68.195  1.00  0.00    -0.183 A  
HETATM    7  N   UNL     1      -8.322  12.888  68.410  1.00  0.00    -0.146 NA 
HETATM    8  C   UNL     1      -9.213  11.858  68.688  1.00  0.00    -0.061 C  
HETATM    9  C   UNL     1     -10.547  11.963  68.789  1.00  0.00    -0.234 C  
HETATM   10  C   UNL     1     -11.119  13.310  68.597  1.00  0.00    -0.268 C  
HETATM   11  C   UNL     1     -11.356  10.757  69.053  1.00  0.00    -0.284 C  
HETATM   12  C   UNL     1     -10.201  14.435  68.317  1.00  0.00    -0.241 A  
HETATM   13  O   UNL     1     -10.874   9.647  69.222  1.00  0.00    -0.224 OA 
HETATM   14  O   UNL     1     -12.689  10.974  69.082  1.00  0.00    -0.277 OA 
HETATM   15  O   UNL     1     -12.337  13.474  68.662  1.00  0.00    -0.232 OA 
HETATM   16  C   UNL     1     -10.737  15.706  68.140  1.00  0.00    -0.287 A  
HETATM   17  C   UNL     1      -9.890  16.761  67.840  1.00  0.00    -0.257 A  
HETATM   18  C   UNL     1      -8.492  16.609  67.691  1.00  0.00    -0.192 A  
HETATM   19  F   UNL     1     -10.474  17.951  67.618  1.00  0.00    -0.333 F  
ENDROOT
BRANCH  18  20
HETATM   20  N   UNL     1      -7.715  17.715  67.356  1.00  0.00    -0.197 NA 
HETATM   21  C   UNL     1      -7.403  18.077  65.969  1.00  0.00    -0.263 C  
HETATM   22  C   UNL     1      -7.390  19.618  65.815  1.00  0.00    -0.304 C  
HETATM   23  N   UNL     1      -6.549  20.360  66.780  1.00  0.00    -0.221 NA 
HETATM   24  C   UNL     1      -6.890  19.913  68.152  1.00  0.00    -0.293 C  
HETATM   25  C   UNL     1      -5.128  20.182  66.494  1.00  0.00    -0.157 C  
HETATM   26  C   UNL     1      -6.864  18.379  68.366  1.00  0.00    -0.241 C  
ENDBRANCH  18  20
TORSDOF 1
ENDMDL
MODEL       58
REMARK 921   NORMALIZED FREE ENERGY PREDICTED BY IDOCK:   -5.11 KCAL/MOL
REMARK 922        TOTAL FREE ENERGY PREDICTED BY IDOCK:   -5.81 KCAL/MOL
REMARK 923 INTER-LIGAND FREE ENERGY PREDICTED BY IDOCK:   -5.45 KCAL/MOL
REMARK 924 INTRA-LIGAND FREE ENERGY PREDICTED BY IDOCK:   -0.35 KCAL/MOL
REMARK 927      BINDING AFFINITY PREDICTED BY RF-SCORE:    0.00 PKD
ROOT
HETATM    1  C   UNL     1     -12.094   8.200  72.010  1.00  0.00    -0.388 C  
HETATM    2  C   UNL     1     -10.667   8.608  71.633  1.00  0.00    -0.303 C  
HETATM    3  C   UNL     1      -9.719   7.408  71.567  1.00  0.00    -0.159 C  
HETATM    4  O   UNL     1      -9.763   6.665  70.354  1.00  0.00    -0.174 OA 
HETATM    5  C   UNL     1      -9.736   7.419  69.202  1.00  0.00    -0.165 A  
HETATM    6  C   UNL     1     -10.233   8.746  69.209  1.00  0.00    -0.210 A  
HETATM    7  N   UNL     1     -10.670   9.391  70.391  1.00  0.00    -0.242 NA 
HETATM    8  C   UNL     1     -11.193  10.676  70.311  1.00  0.00    -0.285 C  
HETATM    9  C   UNL     1     -11.331  11.412  69.199  1.00  0.00    -0.353 C  
HETATM   10  C   UNL     1     -10.869  10.798  67.939  1.00  0.00    -0.264 C  
HETATM   11  C   UNL     1     -11.945  12.752  69.282  1.00  0.00    -0.246 C  
HETATM   12  C   UNL     1     -10.290   9.438  67.986  1.00  0.00    -0.267 A  
HETATM   13  O   UNL     1     -12.315  13.259  70.331  1.00  0.00    -0.333 OA 
HETATM   14  O   UNL     1     -12.080  13.379  68.093  1.00  0.00    -0.335 OA 
HETATM   15  O   UNL     1     -10.980  11.414  66.879  1.00  0.00    -0.275 OA 
HETATM   16  C   UNL     1      -9.849   8.859  66.801  1.00  0.00    -0.308 A  
HETATM   17  C   UNL     1      -9.339   7.570  66.827  1.00  0.00    -0.165 A  
HETATM   18  C   UNL     1      -9.252   6.800  68.010  1.00  0.00    -0.117 A  
HETATM   19  F   UNL     1      -8.989   7.042  65.642  1.00  0.00    -0.155 F  
ENDROOT
BRANCH  18  20
HETATM   20  N   UNL     1      -8.757   5.499  67.945  1.00  0.00    -0.107 NA 
HETATM   21  C   UNL     1      -7.352   5.170  68.208  1.00  0.00    -0.071 C  
HETATM   22  C   UNL     1      -7.256   3.811  68.944  1.00  0.00    -0.050 C  
HETATM   23  N   UNL     1      -7.979   2.681  68.317  1.00  0.00    -0.058 NA 
HETATM   24  C   UNL     1      -9.374   3.102  68.044  1.00  0.00    -0.194 C  
HETATM   25  C   UNL     1      -7.306   2.228  67.103  1.00  0.00    -0.056 C  
HETATM   26  C   UNL     1      -9.516   4.431  67.263  1.00  0.00    -0.171 C  
ENDBRANCH  18  20
TORSDOF 1
ENDMDL
MODEL       59
REMARK 921   NORMALIZED FREE ENERGY PREDICTED BY IDOCK:   -5.10 KCAL/MOL
REMARK 922        TOTAL FREE ENERGY PREDICTED BY IDOCK:   -5.80 KCAL/MOL
REMARK 923 INTER-LIGAND FREE ENERGY PREDICTED BY IDOCK:   -5.37 KCAL/MOL
REMARK 924 INTRA-LIGAND FREE ENERGY PREDICTED BY IDOCK:   -0.43 KCAL/MOL
REMARK 927      BINDING AFFINITY PREDICTED BY RF-SCORE:    0.00 PKD
ROOT
HETATM    1  C   UNL     1      -6.108   8.100  65.981  1.00  0.00    -0.041 C  
HETATM    2  C   UNL     1      -7.496   7.454  65.991  1.00  0.00    -0.083 C  
HETATM    3  C   UNL     1      -7.694   6.525  67.192  1.00  0.00    -0.100 C  
HETATM    4  O   UNL     1      -8.052   7.171  68.408  1.00  0.00    -0.121 OA 
HETATM    5  C   UNL     1      -9.053   8.111  68.301  1.00  0.00    -0.135 A  
HETATM    6  C   UNL     1      -9.258   8.795  67.076  1.00  0.00    -0.142 A  
HETATM    7  N   UNL     1      -8.540   8.481  65.898  1.00  0.00    -0.154 NA 
HETATM    8  C   UNL     1      -8.759   9.230  64.748  1.00  0.00    -0.188 C  
HETATM    9  C   UNL     1      -9.614  10.256  64.615  1.00  0.00    -0.374 C  
HETATM   10  C   UNL     1     -10.408  10.611  65.808  1.00  0.00    -0.219 C  
HETATM   11  C   UNL     1      -9.698  10.974  63.329  1.00  0.00    -0.364 C  
HETATM   12  C   UNL     1     -10.215   9.825  67.046  1.00  0.00    -0.292 A  
HETATM   13  O   UNL     1      -9.046  10.666  62.342  1.00  0.00    -0.249 OA 
HETATM   14  O   UNL     1     -10.554  12.019  63.328  1.00  0.00    -0.418 OA 
HETATM   15  O   UNL     1     -11.201  11.551  65.759  1.00  0.00    -0.265 OA 
HETATM   16  C   UNL     1     -10.965  10.155  68.169  1.00  0.00    -0.313 A  
HETATM   17  C   UNL     1     -10.767   9.449  69.346  1.00  0.00    -0.217 A  
HETATM   18  C   UNL     1      -9.820   8.405  69.468  1.00  0.00    -0.181 A  
HETATM   19  F   UNL     1     -11.475   9.857  70.413  1.00  0.00    -0.269 F  
ENDROOT
BRANCH  18  20
HETATM   20  N   UNL     1      -9.659   7.768  70.696  1.00  0.00    -0.167 NA 
HETATM   21  C   UNL     1     -10.542   6.690  71.154  1.00  0.00    -0.228 C  
HETATM   22  C   UNL     1      -9.725   5.633  71.937  1.00  0.00    -0.160 C  
HETATM   23  N   UNL     1      -8.874   6.151  73.032  1.00  0.00    -0.125 NA 
HETATM   24  C   UNL     1      -8.044   7.261  72.505  1.00  0.00    -0.099 C  
HETATM   25  C   UNL     1      -9.678   6.577  74.174  1.00  0.00    -0.270 C  
HETATM   26  C   UNL     1      -8.828   8.369  71.759  1.00  0.00    -0.195 C  
ENDBRANCH  18  20
TORSDOF 1
ENDMDL
MODEL       60
REMARK 921   NORMALIZED FREE ENERGY PREDICTED BY IDOCK:   -5.09 KCAL/MOL
REMARK 922        TOTAL FREE ENERGY PREDICTED BY IDOCK:   -5.79 KCAL/MOL
REMARK 923 INTER-LIGAND FREE ENERGY PREDICTED BY IDOCK:   -5.43 KCAL/MOL
REMARK 924 INTRA-LIGAND FREE ENERGY PREDICTED BY IDOCK:   -0.35 KCAL/MOL
REMARK 927      BINDING AFFINITY PREDICTED BY RF-SCORE:    0.00 PKD
ROOT
HETATM    1  C   UNL     1     -10.858   9.985  68.933  1.00  0.00    -0.250 C  
HETATM    2  C   UNL     1      -9.653  10.675  68.286  1.00  0.00    -0.162 C  
HETATM    3  C   UNL     1      -8.426   9.762  68.225  1.00  0.00    -0.114 C  
HETATM    4  O   UNL     1      -8.406   8.842  67.140  1.00  0.00    -0.103 OA 
HETATM    5  C   UNL     1      -8.724   9.376  65.911  1.00  0.00    -0.154 A  
HETATM    6  C   UNL     1      -9.563  10.516  65.826  1.00  0.00    -0.210 A  
HETATM    7  N   UNL     1     -10.018  11.214  66.970  1.00  0.00    -0.189 NA 
HETATM    8  C   UNL     1     -10.880  12.292  66.810  1.00  0.00    -0.253 C  
HETATM    9  C   UNL     1     -11.347  12.774  65.648  1.00  0.00    -0.354 C  
HETATM   10  C   UNL     1     -10.885  12.098  64.420  1.00  0.00    -0.328 C  
HETATM   11  C   UNL     1     -12.292  13.908  65.656  1.00  0.00    -0.482 C  
HETATM   12  C   UNL     1      -9.952  10.957  64.549  1.00  0.00    -0.376 A  
HETATM   13  O   UNL     1     -12.661  14.471  66.676  1.00  0.00    -0.179 OA 
HETATM   14  O   UNL     1     -12.734  14.274  64.433  1.00  0.00    -0.661 OA 
HETATM   15  O   UNL     1     -11.286  12.481  63.322  1.00  0.00    -0.452 OA 
HETATM   16  C   UNL     1      -9.512  10.321  63.394  1.00  0.00    -0.340 A  
HETATM   17  C   UNL     1      -8.667   9.228  63.504  1.00  0.00    -0.169 A  
HETATM   18  C   UNL     1      -8.232   8.712  64.747  1.00  0.00    -0.160 A  
HETATM   19  F   UNL     1      -8.327   8.618  62.355  1.00  0.00    -0.159 F  
ENDROOT
BRANCH  18  20
HETATM   20  N   UNL     1      -7.409   7.589  64.771  1.00  0.00    -0.075 NA 
HETATM   21  C   UNL     1      -7.934   6.219  64.774  1.00  0.00    -0.124 C  
HETATM   22  C   UNL     1      -7.017   5.300  63.930  1.00  0.00    -0.048 C  
HETATM   23  N   UNL     1      -5.575   5.338  64.263  1.00  0.00    -0.016 NA 
HETATM   24  C   UNL     1      -5.128   6.752  64.282  1.00  0.00    -0.027 C  
HETATM   25  C   UNL     1      -5.305   4.672  65.533  1.00  0.00    -0.013 C  
HETATM   26  C   UNL     1      -5.987   7.698  65.158  1.00  0.00    -0.038 C  
ENDBRANCH  18  20
TORSDOF 1
ENDMDL
MODEL       61
REMARK 921   NORMALIZED FREE ENERGY PREDICTED BY IDOCK:   -5.06 KCAL/MOL
REMARK 922        TOTAL FREE ENERGY PREDICTED BY IDOCK:   -5.76 KCAL/MOL
REMARK 923 INTER-LIGAND FREE ENERGY PREDICTED BY IDOCK:   -6.84 KCAL/MOL
REMARK 924 INTRA-LIGAND FREE ENERGY PREDICTED BY IDOCK:    1.08 KCAL/MOL
REMARK 927      BINDING AFFINITY PREDICTED BY RF-SCORE:    0.00 PKD
ROOT
HETATM    1  C   UNL     1     -10.032  11.915  65.606  1.00  0.00    -0.269 C  
HETATM    2  C   UNL     1      -9.273  11.791  66.930  1.00  0.00    -0.189 C  
HETATM    3  C   UNL     1      -9.511  12.991  67.850  1.00  0.00    -0.219 C  
HETATM    4  O   UNL     1     -10.715  12.949  68.606  1.00  0.00    -0.246 OA 
HETATM    5  C   UNL     1     -10.974  11.749  69.232  1.00  0.00    -0.175 A  
HETATM    6  C   UNL     1     -10.460  10.542  68.695  1.00  0.00    -0.191 A  
HETATM    7  N   UNL     1      -9.585  10.513  67.582  1.00  0.00    -0.156 NA 
HETATM    8  C   UNL     1      -9.164   9.288  67.080  1.00  0.00    -0.130 C  
HETATM    9  C   UNL     1      -9.495   8.076  67.551  1.00  0.00    -0.177 C  
HETATM   10  C   UNL     1     -10.386   8.047  68.728  1.00  0.00    -0.206 C  
HETATM   11  C   UNL     1      -8.989   6.866  66.875  1.00  0.00    -0.122 C  
HETATM   12  C   UNL     1     -10.843   9.332  69.301  1.00  0.00    -0.170 A  
HETATM   13  O   UNL     1      -8.242   6.898  65.908  1.00  0.00    -0.116 OA 
HETATM   14  O   UNL     1      -9.430   5.705  67.405  1.00  0.00    -0.112 OA 
HETATM   15  O   UNL     1     -10.741   6.968  69.201  1.00  0.00    -0.219 OA 
HETATM   16  C   UNL     1     -11.678   9.308  70.412  1.00  0.00    -0.157 A  
HETATM   17  C   UNL     1     -12.142  10.504  70.936  1.00  0.00    -0.383 A  
HETATM   18  C   UNL     1     -11.814  11.765  70.385  1.00  0.00    -0.271 A  
HETATM   19  F   UNL     1     -12.997  10.412  71.970  1.00  0.00    -0.485 F  
ENDROOT
BRANCH  18  20
HETATM   20  N   UNL     1     -12.349  12.919  70.952  1.00  0.00    -0.350 NA 
HETATM   21  C   UNL     1     -11.863  14.264  70.625  1.00  0.00    -0.281 C  
HETATM   22  C   UNL     1     -13.047  15.261  70.593  1.00  0.00    -0.358 C  
HETATM   23  N   UNL     1     -13.923  15.267  71.786  1.00  0.00    -0.499 NA 
HETATM   24  C   UNL     1     -14.339  13.874  72.079  1.00  0.00    -0.388 C  
HETATM   25  C   UNL     1     -13.258  15.881  72.932  1.00  0.00    -0.527 C  
HETATM   26  C   UNL     1     -13.180  12.851  72.172  1.00  0.00    -0.448 C  
ENDBRANCH  18  20
TORSDOF 1
ENDMDL
MODEL       62
REMARK 921   NORMALIZED FREE ENERGY PREDICTED BY IDOCK:   -5.06 KCAL/MOL
REMARK 922        TOTAL FREE ENERGY PREDICTED BY IDOCK:   -5.75 KCAL/MOL
REMARK 923 INTER-LIGAND FREE ENERGY PREDICTED BY IDOCK:   -5.37 KCAL/MOL
REMARK 924 INTRA-LIGAND FREE ENERGY PREDICTED BY IDOCK:   -0.38 KCAL/MOL
REMARK 927      BINDING AFFINITY PREDICTED BY RF-SCORE:    0.00 PKD
ROOT
HETATM    1  C   UNL     1      -7.074   9.123  64.471  1.00  0.00    -0.091 C  
HETATM    2  C   UNL     1      -8.381   8.379  64.761  1.00  0.00    -0.141 C  
HETATM    3  C   UNL     1      -8.157   7.117  65.598  1.00  0.00    -0.133 C  
HETATM    4  O   UNL     1      -8.037   7.331  67.000  1.00  0.00    -0.113 OA 
HETATM    5  C   UNL     1      -8.986   8.164  67.551  1.00  0.00    -0.137 A  
HETATM    6  C   UNL     1      -9.601   9.164  66.756  1.00  0.00    -0.195 A  
HETATM    7  N   UNL     1      -9.363   9.287  65.366  1.00  0.00    -0.242 NA 
HETATM    8  C   UNL     1      -9.963  10.325  64.663  1.00  0.00    -0.307 C  
HETATM    9  C   UNL     1     -10.782  11.260  65.167  1.00  0.00    -0.312 C  
HETATM   10  C   UNL     1     -11.085  11.165  66.609  1.00  0.00    -0.189 C  
HETATM   11  C   UNL     1     -11.306  12.322  64.286  1.00  0.00    -0.352 C  
HETATM   12  C   UNL     1     -10.478  10.063  67.387  1.00  0.00    -0.316 A  
HETATM   13  O   UNL     1     -11.061  12.388  63.091  1.00  0.00    -0.379 OA 
HETATM   14  O   UNL     1     -12.078  13.237  64.913  1.00  0.00    -0.358 OA 
HETATM   15  O   UNL     1     -11.818  12.000  67.137  1.00  0.00    -0.565 OA 
HETATM   16  C   UNL     1     -10.765   9.968  68.744  1.00  0.00    -0.250 A  
HETATM   17  C   UNL     1     -10.174   8.962  69.492  1.00  0.00    -0.204 A  
HETATM   18  C   UNL     1      -9.274   8.020  68.941  1.00  0.00    -0.147 A  
HETATM   19  F   UNL     1     -10.440   8.962  70.809  1.00  0.00    -0.218 F  
ENDROOT
BRANCH  18  20
HETATM   20  N   UNL     1      -8.697   7.060  69.768  1.00  0.00    -0.141 NA 
HETATM   21  C   UNL     1      -7.393   7.246  70.414  1.00  0.00    -0.078 C  
HETATM   22  C   UNL     1      -7.409   6.617  71.829  1.00  0.00    -0.086 C  
HETATM   23  N   UNL     1      -7.868   5.212  71.909  1.00  0.00    -0.108 NA 
HETATM   24  C   UNL     1      -9.165   5.093  71.202  1.00  0.00    -0.145 C  
HETATM   25  C   UNL     1      -6.872   4.295  71.362  1.00  0.00    -0.031 C  
HETATM   26  C   UNL     1      -9.181   5.663  69.762  1.00  0.00    -0.138 C  
ENDBRANCH  18  20
TORSDOF 1
ENDMDL
MODEL       63
REMARK 921   NORMALIZED FREE ENERGY PREDICTED BY IDOCK:   -5.06 KCAL/MOL
REMARK 922        TOTAL FREE ENERGY PREDICTED BY IDOCK:   -5.75 KCAL/MOL
REMARK 923 INTER-LIGAND FREE ENERGY PREDICTED BY IDOCK:   -5.34 KCAL/MOL
REMARK 924 INTRA-LIGAND FREE ENERGY PREDICTED BY IDOCK:   -0.41 KCAL/MOL
REMARK 927      BINDING AFFINITY PREDICTED BY RF-SCORE:    0.00 PKD
ROOT
HETATM    1  C   UNL     1     -12.254  11.035  69.287  1.00  0.00    -0.280 C  
HETATM    2  C   UNL     1     -10.725  10.993  69.227  1.00  0.00    -0.222 C  
HETATM    3  C   UNL     1     -10.130  10.029  70.257  1.00  0.00    -0.168 C  
HETATM    4  O   UNL     1     -10.123   8.658  69.873  1.00  0.00    -0.186 OA 
HETATM    5  C   UNL     1      -9.669   8.408  68.597  1.00  0.00    -0.164 A  
HETATM    6  C   UNL     1      -9.794   9.400  67.591  1.00  0.00    -0.174 A  
HETATM    7  N   UNL     1     -10.274  10.704  67.861  1.00  0.00    -0.171 NA 
HETATM    8  C   UNL     1     -10.416  11.605  66.813  1.00  0.00    -0.230 C  
HETATM    9  C   UNL     1     -10.132  11.379  65.522  1.00  0.00    -0.293 C  
HETATM   10  C   UNL     1      -9.603  10.042  65.187  1.00  0.00    -0.291 C  
HETATM   11  C   UNL     1     -10.378  12.439  64.524  1.00  0.00    -0.325 C  
HETATM   12  C   UNL     1      -9.421   9.060  66.278  1.00  0.00    -0.306 A  
HETATM   13  O   UNL     1     -10.805  13.547  64.810  1.00  0.00    -0.337 OA 
HETATM   14  O   UNL     1     -10.104  12.080  63.251  1.00  0.00    -0.430 OA 
HETATM   15  O   UNL     1      -9.336   9.764  64.019  1.00  0.00    -0.264 OA 
HETATM   16  C   UNL     1      -8.920   7.802  65.966  1.00  0.00    -0.185 A  
HETATM   17  C   UNL     1      -8.780   6.861  66.974  1.00  0.00    -0.119 A  
HETATM   18  C   UNL     1      -9.136   7.114  68.320  1.00  0.00    -0.134 A  
HETATM   19  F   UNL     1      -8.350   5.643  66.599  1.00  0.00    -0.110 F  
ENDROOT
BRANCH  18  20
HETATM   20  N   UNL     1      -8.995   6.102  69.267  1.00  0.00    -0.124 NA 
HETATM   21  C   UNL     1      -7.690   5.671  69.781  1.00  0.00    -0.079 C  
HETATM   22  C   UNL     1      -7.805   5.316  71.283  1.00  0.00    -0.107 C  
HETATM   23  N   UNL     1      -8.881   4.366  71.645  1.00  0.00    -0.117 NA 
HETATM   24  C   UNL     1     -10.156   4.844  71.058  1.00  0.00    -0.218 C  
HETATM   25  C   UNL     1      -8.563   3.010  71.207  1.00  0.00    -0.064 C  
HETATM   26  C   UNL     1     -10.101   5.162  69.543  1.00  0.00    -0.246 C  
ENDBRANCH  18  20
TORSDOF 1
ENDMDL
MODEL       64
REMARK 921   NORMALIZED FREE ENERGY PREDICTED BY IDOCK:   -5.02 KCAL/MOL
REMARK 922        TOTAL FREE ENERGY PREDICTED BY IDOCK:   -5.71 KCAL/MOL
REMARK 923 INTER-LIGAND FREE ENERGY PREDICTED BY IDOCK:   -6.35 KCAL/MOL
REMARK 924 INTRA-LIGAND FREE ENERGY PREDICTED BY IDOCK:    0.64 KCAL/MOL
REMARK 927      BINDING AFFINITY PREDICTED BY RF-SCORE:    0.00 PKD
ROOT
HETATM    1  C   UNL     1      -9.170   8.360  70.115  1.00  0.00    -0.159 C  
HETATM    2  C   UNL     1     -10.528   8.630  69.461  1.00  0.00    -0.220 C  
HETATM    3  C   UNL     1     -11.494   9.349  70.406  1.00  0.00    -0.223 C  
HETATM    4  O   UNL     1     -11.324  10.759  70.494  1.00  0.00    -0.307 OA 
HETATM    5  C   UNL     1     -11.188  11.410  69.288  1.00  0.00    -0.277 A  
HETATM    6  C   UNL     1     -10.658  10.725  68.165  1.00  0.00    -0.203 A  
HETATM    7  N   UNL     1     -10.351   9.343  68.190  1.00  0.00    -0.201 NA 
HETATM    8  C   UNL     1      -9.786   8.753  67.067  1.00  0.00    -0.198 C  
HETATM    9  C   UNL     1      -9.491   9.362  65.909  1.00  0.00    -0.315 C  
HETATM   10  C   UNL     1      -9.813  10.799  65.818  1.00  0.00    -0.240 C  
HETATM   11  C   UNL     1      -8.854   8.593  64.821  1.00  0.00     0.008 C  
HETATM   12  C   UNL     1     -10.432  11.460  66.989  1.00  0.00    -0.271 A  
HETATM   13  O   UNL     1      -8.601   7.400  64.898  1.00  0.00    -0.006 OA 
HETATM   14  O   UNL     1      -8.556   9.321  63.723  1.00  0.00    -0.197 OA 
HETATM   15  O   UNL     1      -9.555  11.422  64.789  1.00  0.00    -0.236 OA 
HETATM   16  C   UNL     1     -10.740  12.813  66.905  1.00  0.00    -0.272 A  
HETATM   17  C   UNL     1     -11.286  13.452  68.007  1.00  0.00    -0.268 A  
HETATM   18  C   UNL     1     -11.539  12.792  69.232  1.00  0.00    -0.314 A  
HETATM   19  F   UNL     1     -11.503  14.773  67.885  1.00  0.00    -0.290 F  
ENDROOT
BRANCH  18  20
HETATM   20  N   UNL     1     -12.059  13.515  70.303  1.00  0.00    -0.353 NA 
HETATM   21  C   UNL     1     -13.078  12.972  71.208  1.00  0.00    -0.179 C  
HETATM   22  C   UNL     1     -12.817  13.462  72.654  1.00  0.00     0.007 C  
HETATM   23  N   UNL     1     -12.652  14.923  72.824  1.00  0.00    -0.370 NA 
HETATM   24  C   UNL     1     -11.641  15.404  71.851  1.00  0.00    -0.442 C  
HETATM   25  C   UNL     1     -13.923  15.624  72.669  1.00  0.00    -0.525 C  
HETATM   26  C   UNL     1     -11.892  14.981  70.383  1.00  0.00    -0.297 C  
ENDBRANCH  18  20
TORSDOF 1
ENDMDL
MODEL       65
REMARK 921   NORMALIZED FREE ENERGY PREDICTED BY IDOCK:   -4.95 KCAL/MOL
REMARK 922        TOTAL FREE ENERGY PREDICTED BY IDOCK:   -5.64 KCAL/MOL
REMARK 923 INTER-LIGAND FREE ENERGY PREDICTED BY IDOCK:   -5.28 KCAL/MOL
REMARK 924 INTRA-LIGAND FREE ENERGY PREDICTED BY IDOCK:   -0.36 KCAL/MOL
REMARK 927      BINDING AFFINITY PREDICTED BY RF-SCORE:    0.00 PKD
ROOT
HETATM    1  C   UNL     1      -8.360   8.629  62.901  1.00  0.00    -0.164 C  
HETATM    2  C   UNL     1      -7.741   8.915  64.272  1.00  0.00    -0.122 C  
HETATM    3  C   UNL     1      -7.697  10.412  64.589  1.00  0.00    -0.063 C  
HETATM    4  O   UNL     1      -8.910  10.963  65.088  1.00  0.00    -0.197 OA 
HETATM    5  C   UNL     1      -9.520  10.234  66.085  1.00  0.00    -0.181 A  
HETATM    6  C   UNL     1      -9.322   8.832  66.163  1.00  0.00    -0.234 A  
HETATM    7  N   UNL     1      -8.426   8.140  65.314  1.00  0.00    -0.157 NA 
HETATM    8  C   UNL     1      -8.324   6.758  65.415  1.00  0.00    -0.122 C  
HETATM    9  C   UNL     1      -8.999   5.969  66.265  1.00  0.00    -0.156 C  
HETATM   10  C   UNL     1      -9.930   6.641  67.191  1.00  0.00    -0.160 C  
HETATM   11  C   UNL     1      -8.801   4.507  66.216  1.00  0.00    -0.113 C  
HETATM   12  C   UNL     1     -10.053   8.114  67.125  1.00  0.00    -0.334 A  
HETATM   13  O   UNL     1      -8.019   3.958  65.454  1.00  0.00    -0.092 OA 
HETATM   14  O   UNL     1      -9.570   3.810  67.081  1.00  0.00    -0.207 OA 
HETATM   15  O   UNL     1     -10.591   5.974  67.987  1.00  0.00    -0.211 OA 
HETATM   16  C   UNL     1     -10.927   8.750  68.000  1.00  0.00     0.066 A  
HETATM   17  C   UNL     1     -11.078  10.125  67.923  1.00  0.00    -0.238 A  
HETATM   18  C   UNL     1     -10.389  10.925  66.981  1.00  0.00    -0.231 A  
HETATM   19  F   UNL     1     -11.984  10.674  68.751  1.00  0.00    -0.345 F  
ENDROOT
BRANCH  18  20
HETATM   20  N   UNL     1     -10.623  12.298  66.948  1.00  0.00    -0.221 NA 
HETATM   21  C   UNL     1     -11.484  12.933  65.944  1.00  0.00    -0.346 C  
HETATM   22  C   UNL     1     -12.271  14.102  66.587  1.00  0.00    -0.418 C  
HETATM   23  N   UNL     1     -11.466  15.096  67.331  1.00  0.00    -0.315 NA 
HETATM   24  C   UNL     1     -10.595  14.379  68.293  1.00  0.00    -0.243 C  
HETATM   25  C   UNL     1     -10.689  15.936  66.425  1.00  0.00    -0.256 C  
HETATM   26  C   UNL     1      -9.748  13.235  67.683  1.00  0.00    -0.219 C  
ENDBRANCH  18  20
TORSDOF 1
ENDMDL
MODEL       66
REMARK 921   NORMALIZED FREE ENERGY PREDICTED BY IDOCK:   -4.93 KCAL/MOL
REMARK 922        TOTAL FREE ENERGY PREDICTED BY IDOCK:   -5.62 KCAL/MOL
REMARK 923 INTER-LIGAND FREE ENERGY PREDICTED BY IDOCK:   -6.20 KCAL/MOL
REMARK 924 INTRA-LIGAND FREE ENERGY PREDICTED BY IDOCK:    0.59 KCAL/MOL
REMARK 927      BINDING AFFINITY PREDICTED BY RF-SCORE:    0.00 PKD
ROOT
HETATM    1  C   UNL     1     -12.499   9.613  69.985  1.00  0.00     0.403 C  
HETATM    2  C   UNL     1     -11.171  10.375  70.004  1.00  0.00    -0.316 C  
HETATM    3  C   UNL     1     -10.170   9.823  68.986  1.00  0.00    -0.203 C  
HETATM    4  O   UNL     1     -10.345  10.283  67.651  1.00  0.00    -0.192 OA 
HETATM    5  C   UNL     1     -10.535  11.641  67.517  1.00  0.00    -0.200 A  
HETATM    6  C   UNL     1     -11.107  12.387  68.579  1.00  0.00    -0.258 A  
HETATM    7  N   UNL     1     -11.405  11.815  69.839  1.00  0.00    -0.183 NA 
HETATM    8  C   UNL     1     -12.013  12.596  70.814  1.00  0.00     0.013 C  
HETATM    9  C   UNL     1     -12.359  13.887  70.699  1.00  0.00    -0.451 C  
HETATM   10  C   UNL     1     -12.049  14.542  69.413  1.00  0.00    -0.290 C  
HETATM   11  C   UNL     1     -13.036  14.564  71.823  1.00  0.00    -0.341 C  
HETATM   12  C   UNL     1     -11.386  13.747  68.356  1.00  0.00    -0.326 A  
HETATM   13  O   UNL     1     -13.278  14.019  72.889  1.00  0.00    -0.530 OA 
HETATM   14  O   UNL     1     -13.383  15.846  71.575  1.00  0.00    -0.455 OA 
HETATM   15  O   UNL     1     -12.353  15.721  69.236  1.00  0.00    -0.227 OA 
HETATM   16  C   UNL     1     -11.089  14.362  67.145  1.00  0.00    -0.318 A  
HETATM   17  C   UNL     1     -10.501  13.617  66.135  1.00  0.00    -0.297 A  
HETATM   18  C   UNL     1     -10.194  12.243  66.269  1.00  0.00    -0.229 A  
HETATM   19  F   UNL     1     -10.297  14.251  64.967  1.00  0.00    -0.355 F  
ENDROOT
BRANCH  18  20
HETATM   20  N   UNL     1      -9.633  11.559  65.193  1.00  0.00    -0.230 NA 
HETATM   21  C   UNL     1      -8.545  10.588  65.348  1.00  0.00    -0.180 C  
HETATM   22  C   UNL     1      -8.734   9.418  64.352  1.00  0.00    -0.199 C  
HETATM   23  N   UNL     1      -8.936   9.797  62.936  1.00  0.00    -0.246 NA 
HETATM   24  C   UNL     1     -10.019  10.808  62.863  1.00  0.00    -0.185 C  
HETATM   25  C   UNL     1      -7.700  10.289  62.336  1.00  0.00    -0.143 C  
HETATM   26  C   UNL     1      -9.843  12.024  63.806  1.00  0.00    -0.269 C  
ENDBRANCH  18  20
TORSDOF 1
ENDMDL
MODEL       67
REMARK 921   NORMALIZED FREE ENERGY PREDICTED BY IDOCK:   -4.93 KCAL/MOL
REMARK 922        TOTAL FREE ENERGY PREDICTED BY IDOCK:   -5.61 KCAL/MOL
REMARK 923 INTER-LIGAND FREE ENERGY PREDICTED BY IDOCK:   -5.19 KCAL/MOL
REMARK 924 INTRA-LIGAND FREE ENERGY PREDICTED BY IDOCK:   -0.43 KCAL/MOL
REMARK 927      BINDING AFFINITY PREDICTED BY RF-SCORE:    0.00 PKD
ROOT
HETATM    1  C   UNL     1     -11.905  12.307  67.450  1.00  0.00    -0.327 C  
HETATM    2  C   UNL     1     -10.433  12.053  67.789  1.00  0.00    -0.203 C  
HETATM    3  C   UNL     1     -10.228  11.715  69.268  1.00  0.00     0.129 C  
HETATM    4  O   UNL     1     -10.482  10.361  69.624  1.00  0.00    -0.231 OA 
HETATM    5  C   UNL     1      -9.922   9.420  68.788  1.00  0.00    -0.179 A  
HETATM    6  C   UNL     1      -9.670   9.735  67.429  1.00  0.00    -0.163 A  
HETATM    7  N   UNL     1      -9.872  11.031  66.897  1.00  0.00    -0.188 NA 
HETATM    8  C   UNL     1      -9.653  11.251  65.543  1.00  0.00    -0.228 C  
HETATM    9  C   UNL     1      -9.248  10.343  64.642  1.00  0.00    -0.282 C  
HETATM   10  C   UNL     1      -8.999   8.979  65.148  1.00  0.00    -0.165 C  
HETATM   11  C   UNL     1      -9.100  10.734  63.227  1.00  0.00    -0.252 C  
HETATM   12  C   UNL     1      -9.204   8.710  66.588  1.00  0.00    -0.227 A  
HETATM   13  O   UNL     1      -9.296  11.869  62.817  1.00  0.00    -0.296 OA 
HETATM   14  O   UNL     1      -8.738   9.726  62.404  1.00  0.00    -0.179 OA 
HETATM   15  O   UNL     1      -8.639   8.094  64.372  1.00  0.00    -0.033 OA 
HETATM   16  C   UNL     1      -8.966   7.427  67.067  1.00  0.00    -0.142 A  
HETATM   17  C   UNL     1      -9.190   7.153  68.407  1.00  0.00    -0.133 A  
HETATM   18  C   UNL     1      -9.666   8.121  69.322  1.00  0.00    -0.170 A  
HETATM   19  F   UNL     1      -9.003   5.880  68.797  1.00  0.00    -0.116 F  
ENDROOT
BRANCH  18  20
HETATM   20  N   UNL     1      -9.897   7.756  70.646  1.00  0.00    -0.182 NA 
HETATM   21  C   UNL     1      -8.818   7.594  71.626  1.00  0.00    -0.116 C  
HETATM   22  C   UNL     1      -9.285   8.091  73.016  1.00  0.00    -0.270 C  
HETATM   23  N   UNL     1     -10.565   7.533  73.509  1.00  0.00    -0.354 NA 
HETATM   24  C   UNL     1     -11.593   7.695  72.452  1.00  0.00    -0.336 C  
HETATM   25  C   UNL     1     -10.417   6.136  73.905  1.00  0.00    -0.275 C  
HETATM   26  C   UNL     1     -11.187   7.162  71.056  1.00  0.00    -0.269 C  
ENDBRANCH  18  20
TORSDOF 1
ENDMDL
MODEL       68
REMARK 921   NORMALIZED FREE ENERGY PREDICTED BY IDOCK:   -4.92 KCAL/MOL
REMARK 922        TOTAL FREE ENERGY PREDICTED BY IDOCK:   -5.61 KCAL/MOL
REMARK 923 INTER-LIGAND FREE ENERGY PREDICTED BY IDOCK:   -5.35 KCAL/MOL
REMARK 924 INTRA-LIGAND FREE ENERGY PREDICTED BY IDOCK:   -0.26 KCAL/MOL
REMARK 927      BINDING AFFINITY PREDICTED BY RF-SCORE:    0.00 PKD
ROOT
HETATM    1  C   UNL     1     -11.974  15.337  71.882  1.00  0.00    -0.472 C  
HETATM    2  C   UNL     1     -12.258  15.102  70.396  1.00  0.00    -0.344 C  
HETATM    3  C   UNL     1     -11.717  16.231  69.516  1.00  0.00    -0.093 C  
HETATM    4  O   UNL     1     -10.331  16.147  69.203  1.00  0.00    -0.226 OA 
HETATM    5  C   UNL     1      -9.896  14.907  68.790  1.00  0.00    -0.225 A  
HETATM    6  C   UNL     1     -10.573  13.737  69.220  1.00  0.00     0.001 A  
HETATM    7  N   UNL     1     -11.764  13.782  69.983  1.00  0.00    -0.277 NA 
HETATM    8  C   UNL     1     -12.342  12.593  70.411  1.00  0.00    -0.237 C  
HETATM    9  C   UNL     1     -11.889  11.354  70.170  1.00  0.00    -0.440 C  
HETATM   10  C   UNL     1     -10.662  11.247  69.356  1.00  0.00    -0.141 C  
HETATM   11  C   UNL     1     -12.605  10.193  70.733  1.00  0.00    -0.317 C  
HETATM   12  C   UNL     1     -10.027  12.491  68.867  1.00  0.00     0.080 A  
HETATM   13  O   UNL     1     -13.627  10.288  71.396  1.00  0.00    -0.254 OA 
HETATM   14  O   UNL     1     -12.029   9.000  70.468  1.00  0.00    -0.167 OA 
HETATM   15  O   UNL     1     -10.185  10.140  69.110  1.00  0.00    -0.189 OA 
HETATM   16  C   UNL     1      -8.874  12.393  68.098  1.00  0.00    -0.191 A  
HETATM   17  C   UNL     1      -8.249  13.551  67.665  1.00  0.00    -0.178 A  
HETATM   18  C   UNL     1      -8.724  14.846  67.979  1.00  0.00    -0.165 A  
HETATM   19  F   UNL     1      -7.104  13.392  66.979  1.00  0.00    -0.121 F  
ENDROOT
BRANCH  18  20
HETATM   20  N   UNL     1      -8.018  15.961  67.532  1.00  0.00    -0.135 NA 
HETATM   21  C   UNL     1      -8.445  16.762  66.379  1.00  0.00    -0.303 C  
HETATM   22  C   UNL     1      -8.144  18.259  66.636  1.00  0.00    -0.260 C  
HETATM   23  N   UNL     1      -6.760  18.582  67.049  1.00  0.00    -0.191 NA 
HETATM   24  C   UNL     1      -6.387  17.707  68.186  1.00  0.00    -0.172 C  
HETATM   25  C   UNL     1      -5.827  18.443  65.935  1.00  0.00    -0.193 C  
HETATM   26  C   UNL     1      -6.622  16.194  67.954  1.00  0.00    -0.139 C  
ENDBRANCH  18  20
TORSDOF 1
ENDMDL
MODEL       69
REMARK 921   NORMALIZED FREE ENERGY PREDICTED BY IDOCK:   -4.86 KCAL/MOL
REMARK 922        TOTAL FREE ENERGY PREDICTED BY IDOCK:   -5.55 KCAL/MOL
REMARK 923 INTER-LIGAND FREE ENERGY PREDICTED BY IDOCK:   -5.17 KCAL/MOL
REMARK 924 INTRA-LIGAND FREE ENERGY PREDICTED BY IDOCK:   -0.38 KCAL/MOL
REMARK 927      BINDING AFFINITY PREDICTED BY RF-SCORE:    0.00 PKD
ROOT
HETATM    1  C   UNL     1     -11.424  11.593  65.244  1.00  0.00    -0.173 C  
HETATM    2  C   UNL     1     -11.429  12.079  66.696  1.00  0.00    -0.346 C  
HETATM    3  C   UNL     1     -11.399  10.920  67.696  1.00  0.00    -0.270 C  
HETATM    4  O   UNL     1     -10.113  10.367  67.948  1.00  0.00    -0.162 OA 
HETATM    5  C   UNL     1      -9.114  11.287  68.181  1.00  0.00    -0.166 A  
HETATM    6  C   UNL     1      -9.203  12.589  67.627  1.00  0.00    -0.190 A  
HETATM    7  N   UNL     1     -10.341  13.040  66.917  1.00  0.00    -0.244 NA 
HETATM    8  C   UNL     1     -10.334  14.312  66.359  1.00  0.00    -0.286 C  
HETATM    9  C   UNL     1      -9.335  15.205  66.422  1.00  0.00    -0.332 C  
HETATM   10  C   UNL     1      -8.132  14.796  67.173  1.00  0.00    -0.197 C  
HETATM   11  C   UNL     1      -9.474  16.505  65.738  1.00  0.00    -0.114 C  
HETATM   12  C   UNL     1      -8.109  13.455  67.796  1.00  0.00    -0.173 A  
HETATM   13  O   UNL     1     -10.479  16.842  65.129  1.00  0.00    -0.658 OA 
HETATM   14  O   UNL     1      -8.387  17.302  65.827  1.00  0.00    -0.535 OA 
HETATM   15  O   UNL     1      -7.172  15.563  67.257  1.00  0.00    -0.197 OA 
HETATM   16  C   UNL     1      -6.978  13.069  68.507  1.00  0.00    -0.102 A  
HETATM   17  C   UNL     1      -6.929  11.802  69.065  1.00  0.00    -0.107 A  
HETATM   18  C   UNL     1      -7.980  10.863  68.937  1.00  0.00    -0.146 A  
HETATM   19  F   UNL     1      -5.785  11.464  69.684  1.00  0.00    -0.053 F  
ENDROOT
BRANCH  18  20
HETATM   20  N   UNL     1      -7.839   9.597  69.500  1.00  0.00    -0.104 NA 
HETATM   21  C   UNL     1      -7.384   8.432  68.733  1.00  0.00    -0.087 C  
HETATM   22  C   UNL     1      -6.490   7.531  69.620  1.00  0.00    -0.035 C  
HETATM   23  N   UNL     1      -7.058   7.140  70.930  1.00  0.00    -0.068 NA 
HETATM   24  C   UNL     1      -7.532   8.361  71.626  1.00  0.00    -0.101 C  
HETATM   25  C   UNL     1      -8.129   6.160  70.773  1.00  0.00    -0.124 C  
HETATM   26  C   UNL     1      -8.474   9.266  70.793  1.00  0.00    -0.195 C  
ENDBRANCH  18  20
TORSDOF 1
ENDMDL
MODEL       70
REMARK 921   NORMALIZED FREE ENERGY PREDICTED BY IDOCK:   -4.84 KCAL/MOL
REMARK 922        TOTAL FREE ENERGY PREDICTED BY IDOCK:   -5.53 KCAL/MOL
REMARK 923 INTER-LIGAND FREE ENERGY PREDICTED BY IDOCK:   -5.18 KCAL/MOL
REMARK 924 INTRA-LIGAND FREE ENERGY PREDICTED BY IDOCK:   -0.34 KCAL/MOL
REMARK 927      BINDING AFFINITY PREDICTED BY RF-SCORE:    0.00 PKD
ROOT
HETATM    1  C   UNL     1      -6.227   9.921  67.648  1.00  0.00    -0.059 C  
HETATM    2  C   UNL     1      -6.685  10.689  68.891  1.00  0.00    -0.062 C  
HETATM    3  C   UNL     1      -6.615  12.206  68.694  1.00  0.00    -0.077 C  
HETATM    4  O   UNL     1      -7.719  12.781  68.006  1.00  0.00    -0.113 OA 
HETATM    5  C   UNL     1      -8.960  12.365  68.435  1.00  0.00    -0.133 A  
HETATM    6  C   UNL     1      -9.115  11.087  69.030  1.00  0.00    -0.063 A  
HETATM    7  N   UNL     1      -8.017  10.238  69.310  1.00  0.00    -0.136 NA 
HETATM    8  C   UNL     1      -8.252   8.978  69.847  1.00  0.00    -0.124 C  
HETATM    9  C   UNL     1      -9.448   8.452  70.152  1.00  0.00    -0.165 C  
HETATM   10  C   UNL     1     -10.627   9.304  69.904  1.00  0.00    -0.226 C  
HETATM   11  C   UNL     1      -9.525   7.077  70.683  1.00  0.00    -0.165 C  
HETATM   12  C   UNL     1     -10.416  10.659  69.349  1.00  0.00    -0.252 A  
HETATM   13  O   UNL     1      -8.544   6.381  70.898  1.00  0.00    -0.133 OA 
HETATM   14  O   UNL     1     -10.783   6.634  70.905  1.00  0.00    -0.222 OA 
HETATM   15  O   UNL     1     -11.755   8.877  70.148  1.00  0.00    -0.062 OA 
HETATM   16  C   UNL     1     -11.524  11.466  69.117  1.00  0.00    -0.365 A  
HETATM   17  C   UNL     1     -11.342  12.723  68.563  1.00  0.00    -0.291 A  
HETATM   18  C   UNL     1     -10.071  13.230  68.205  1.00  0.00    -0.250 A  
HETATM   19  F   UNL     1     -12.456  13.429  68.305  1.00  0.00    -0.291 F  
ENDROOT
BRANCH  18  20
HETATM   20  N   UNL     1      -9.977  14.492  67.622  1.00  0.00    -0.223 NA 
HETATM   21  C   UNL     1      -9.728  14.689  66.190  1.00  0.00    -0.319 C  
HETATM   22  C   UNL     1     -10.528  15.911  65.677  1.00  0.00    -0.392 C  
HETATM   23  N   UNL     1     -10.358  17.166  66.444  1.00  0.00    -0.323 NA 
HETATM   24  C   UNL     1     -10.584  16.880  67.881  1.00  0.00    -0.361 C  
HETATM   25  C   UNL     1      -9.043  17.756  66.214  1.00  0.00    -0.175 C  
HETATM   26  C   UNL     1      -9.764  15.697  68.450  1.00  0.00    -0.202 C  
ENDBRANCH  18  20
TORSDOF 1
ENDMDL
MODEL       71
REMARK 921   NORMALIZED FREE ENERGY PREDICTED BY IDOCK:   -4.79 KCAL/MOL
REMARK 922        TOTAL FREE ENERGY PREDICTED BY IDOCK:   -5.47 KCAL/MOL
REMARK 923 INTER-LIGAND FREE ENERGY PREDICTED BY IDOCK:   -5.14 KCAL/MOL
REMARK 924 INTRA-LIGAND FREE ENERGY PREDICTED BY IDOCK:   -0.33 KCAL/MOL
REMARK 927      BINDING AFFINITY PREDICTED BY RF-SCORE:    0.00 PKD
ROOT
HETATM    1  C   UNL     1     -13.286  15.565  69.901  1.00  0.00     0.520 C  
HETATM    2  C   UNL     1     -11.813  15.366  70.269  1.00  0.00    -0.338 C  
HETATM    3  C   UNL     1     -11.522  13.943  70.752  1.00  0.00     0.258 C  
HETATM    4  O   UNL     1     -11.333  12.979  69.723  1.00  0.00    -0.174 OA 
HETATM    5  C   UNL     1     -10.495  13.367  68.701  1.00  0.00    -0.225 A  
HETATM    6  C   UNL     1     -10.347  14.742  68.387  1.00  0.00    -0.233 A  
HETATM    7  N   UNL     1     -10.948  15.769  69.154  1.00  0.00    -0.245 NA 
HETATM    8  C   UNL     1     -10.800  17.091  68.753  1.00  0.00    -0.258 C  
HETATM    9  C   UNL     1     -10.119  17.529  67.684  1.00  0.00    -0.328 C  
HETATM   10  C   UNL     1      -9.451  16.502  66.861  1.00  0.00    -0.237 C  
HETATM   11  C   UNL     1     -10.093  18.972  67.376  1.00  0.00    -0.370 C  
HETATM   12  C   UNL     1      -9.571  15.084  67.265  1.00  0.00    -0.208 A  
HETATM   13  O   UNL     1     -10.639  19.819  68.069  1.00  0.00    -0.418 OA 
HETATM   14  O   UNL     1      -9.422  19.291  66.248  1.00  0.00    -0.342 OA 
HETATM   15  O   UNL     1      -8.822  16.834  65.857  1.00  0.00    -0.499 OA 
HETATM   16  C   UNL     1      -8.940  14.115  66.494  1.00  0.00    -0.140 A  
HETATM   17  C   UNL     1      -9.075  12.780  66.841  1.00  0.00    -0.221 A  
HETATM   18  C   UNL     1      -9.842  12.346  67.948  1.00  0.00    -0.202 A  
HETATM   19  F   UNL     1      -8.494  11.887  66.021  1.00  0.00    -0.115 F  
ENDROOT
BRANCH  18  20
HETATM   20  N   UNL     1      -9.954  10.982  68.210  1.00  0.00    -0.173 NA 
HETATM   21  C   UNL     1     -10.938  10.123  67.542  1.00  0.00    -0.255 C  
HETATM   22  C   UNL     1     -10.327   8.726  67.276  1.00  0.00    -0.290 C  
HETATM   23  N   UNL     1      -9.710   8.054  68.442  1.00  0.00    -0.154 NA 
HETATM   24  C   UNL     1      -8.762   8.995  69.087  1.00  0.00    -0.135 C  
HETATM   25  C   UNL     1     -10.723   7.584  69.381  1.00  0.00    -0.193 C  
HETATM   26  C   UNL     1      -9.348  10.389  69.420  1.00  0.00    -0.167 C  
ENDBRANCH  18  20
TORSDOF 1
ENDMDL
MODEL       72
REMARK 921   NORMALIZED FREE ENERGY PREDICTED BY IDOCK:   -4.74 KCAL/MOL
REMARK 922        TOTAL FREE ENERGY PREDICTED BY IDOCK:   -5.42 KCAL/MOL
REMARK 923 INTER-LIGAND FREE ENERGY PREDICTED BY IDOCK:   -4.99 KCAL/MOL
REMARK 924 INTRA-LIGAND FREE ENERGY PREDICTED BY IDOCK:   -0.43 KCAL/MOL
REMARK 927      BINDING AFFINITY PREDICTED BY RF-SCORE:    0.00 PKD
ROOT
HETATM    1  C   UNL     1      -7.042   8.960  68.891  1.00  0.00    -0.066 C  
HETATM    2  C   UNL     1      -8.525   8.951  68.510  1.00  0.00    -0.129 C  
HETATM    3  C   UNL     1      -9.313  10.054  69.221  1.00  0.00    -0.214 C  
HETATM    4  O   UNL     1      -9.229  11.343  68.624  1.00  0.00    -0.183 OA 
HETATM    5  C   UNL     1      -9.405  11.370  67.258  1.00  0.00    -0.167 A  
HETATM    6  C   UNL     1      -9.083  10.232  66.477  1.00  0.00    -0.148 A  
HETATM    7  N   UNL     1      -8.679   9.002  67.051  1.00  0.00    -0.116 NA 
HETATM    8  C   UNL     1      -8.329   7.946  66.218  1.00  0.00    -0.126 C  
HETATM    9  C   UNL     1      -8.336   7.952  64.877  1.00  0.00    -0.087 C  
HETATM   10  C   UNL     1      -8.773   9.202  64.225  1.00  0.00    -0.150 C  
HETATM   11  C   UNL     1      -7.896   6.751  64.140  1.00  0.00    -0.106 C  
HETATM   12  C   UNL     1      -9.171  10.343  65.078  1.00  0.00    -0.256 A  
HETATM   13  O   UNL     1      -7.547   5.715  64.686  1.00  0.00    -0.075 OA 
HETATM   14  O   UNL     1      -7.897   6.890  62.796  1.00  0.00    -0.107 OA 
HETATM   15  O   UNL     1      -8.790   9.279  62.997  1.00  0.00    -0.225 OA 
HETATM   16  C   UNL     1      -9.586  11.520  64.467  1.00  0.00    -0.177 A  
HETATM   17  C   UNL     1      -9.926  12.609  65.255  1.00  0.00    -0.197 A  
HETATM   18  C   UNL     1      -9.859  12.587  66.668  1.00  0.00    -0.241 A  
HETATM   19  F   UNL     1     -10.258  13.737  64.604  1.00  0.00    -0.408 F  
ENDROOT
BRANCH  18  20
HETATM   20  N   UNL     1     -10.186  13.735  67.385  1.00  0.00    -0.250 NA 
HETATM   21  C   UNL     1     -11.571  14.164  67.612  1.00  0.00    -0.365 C  
HETATM   22  C   UNL     1     -11.709  14.779  69.026  1.00  0.00    -0.312 C  
HETATM   23  N   UNL     1     -10.740  15.844  69.369  1.00  0.00    -0.248 NA 
HETATM   24  C   UNL     1      -9.372  15.355  69.075  1.00  0.00    -0.232 C  
HETATM   25  C   UNL     1     -11.035  17.081  68.652  1.00  0.00    -0.217 C  
HETATM   26  C   UNL     1      -9.174  14.778  67.651  1.00  0.00    -0.191 C  
ENDBRANCH  18  20
TORSDOF 1
ENDMDL
MODEL       73
REMARK 921   NORMALIZED FREE ENERGY PREDICTED BY IDOCK:   -4.73 KCAL/MOL
REMARK 922        TOTAL FREE ENERGY PREDICTED BY IDOCK:   -5.41 KCAL/MOL
REMARK 923 INTER-LIGAND FREE ENERGY PREDICTED BY IDOCK:   -5.14 KCAL/MOL
REMARK 924 INTRA-LIGAND FREE ENERGY PREDICTED BY IDOCK:   -0.26 KCAL/MOL
REMARK 927      BINDING AFFINITY PREDICTED BY RF-SCORE:    0.00 PKD
ROOT
HETATM    1  C   UNL     1      -6.748   8.150  66.652  1.00  0.00    -0.063 C  
HETATM    2  C   UNL     1      -8.124   7.481  66.588  1.00  0.00    -0.123 C  
HETATM    3  C   UNL     1      -8.237   6.295  67.549  1.00  0.00    -0.113 C  
HETATM    4  O   UNL     1      -8.530   6.632  68.900  1.00  0.00    -0.122 OA 
HETATM    5  C   UNL     1      -9.549   7.544  69.070  1.00  0.00    -0.153 A  
HETATM    6  C   UNL     1      -9.836   8.487  68.050  1.00  0.00    -0.169 A  
HETATM    7  N   UNL     1      -9.185   8.473  66.793  1.00  0.00    -0.161 NA 
HETATM    8  C   UNL     1      -9.483   9.462  65.863  1.00  0.00    -0.251 C  
HETATM    9  C   UNL     1     -10.358  10.466  66.020  1.00  0.00    -0.262 C  
HETATM   10  C   UNL     1     -11.084  10.515  67.304  1.00  0.00    -0.213 C  
HETATM   11  C   UNL     1     -10.529  11.460  64.941  1.00  0.00    -0.305 C  
HETATM   12  C   UNL     1     -10.807   9.469  68.313  1.00  0.00    -0.194 A  
HETATM   13  O   UNL     1      -9.933  11.407  63.876  1.00  0.00    -0.259 OA 
HETATM   14  O   UNL     1     -11.397  12.454  65.231  1.00  0.00    -0.310 OA 
HETATM   15  O   UNL     1     -11.891  11.419  67.518  1.00  0.00    -0.614 OA 
HETATM   16  C   UNL     1     -11.493   9.510  69.521  1.00  0.00     0.064 A  
HETATM   17  C   UNL     1     -11.215   8.558  70.489  1.00  0.00    -0.242 A  
HETATM   18  C   UNL     1     -10.249   7.539  70.313  1.00  0.00    -0.204 A  
HETATM   19  F   UNL     1     -11.864   8.688  71.659  1.00  0.00    -0.302 F  
ENDROOT
BRANCH  18  20
HETATM   20  N   UNL     1     -10.006   6.640  71.349  1.00  0.00    -0.183 NA 
HETATM   21  C   UNL     1      -8.735   6.593  72.079  1.00  0.00    -0.127 C  
HETATM   22  C   UNL     1      -8.994   6.280  73.573  1.00  0.00    -0.124 C  
HETATM   23  N   UNL     1      -9.833   5.092  73.851  1.00  0.00    -0.152 NA 
HETATM   24  C   UNL     1     -11.076   5.190  73.049  1.00  0.00    -0.314 C  
HETATM   25  C   UNL     1      -9.110   3.854  73.574  1.00  0.00    -0.098 C  
HETATM   26  C   UNL     1     -10.862   5.451  71.537  1.00  0.00    -0.148 C  
ENDBRANCH  18  20
TORSDOF 1
ENDMDL
MODEL       74
REMARK 921   NORMALIZED FREE ENERGY PREDICTED BY IDOCK:   -4.70 KCAL/MOL
REMARK 922        TOTAL FREE ENERGY PREDICTED BY IDOCK:   -5.37 KCAL/MOL
REMARK 923 INTER-LIGAND FREE ENERGY PREDICTED BY IDOCK:   -5.02 KCAL/MOL
REMARK 924 INTRA-LIGAND FREE ENERGY PREDICTED BY IDOCK:   -0.36 KCAL/MOL
REMARK 927      BINDING AFFINITY PREDICTED BY RF-SCORE:    0.00 PKD
ROOT
HETATM    1  C   UNL     1      -6.827   8.303  68.595  1.00  0.00    -0.063 C  
HETATM    2  C   UNL     1      -8.245   8.067  68.067  1.00  0.00    -0.129 C  
HETATM    3  C   UNL     1      -9.230   9.131  68.558  1.00  0.00    -0.136 C  
HETATM    4  O   UNL     1      -9.224  10.350  67.825  1.00  0.00    -0.141 OA 
HETATM    5  C   UNL     1      -9.241  10.212  66.454  1.00  0.00    -0.158 A  
HETATM    6  C   UNL     1      -8.703   9.047  65.850  1.00  0.00    -0.166 A  
HETATM    7  N   UNL     1      -8.232   7.945  66.604  1.00  0.00    -0.116 NA 
HETATM    8  C   UNL     1      -7.671   6.860  65.943  1.00  0.00    -0.098 C  
HETATM    9  C   UNL     1      -7.522   6.723  64.617  1.00  0.00    -0.097 C  
HETATM   10  C   UNL     1      -8.019   7.833  63.780  1.00  0.00    -0.101 C  
HETATM   11  C   UNL     1      -6.866   5.517  64.076  1.00  0.00    -0.046 C  
HETATM   12  C   UNL     1      -8.640   8.999  64.447  1.00  0.00    -0.174 A  
HETATM   13  O   UNL     1      -6.468   4.596  64.775  1.00  0.00    -0.037 OA 
HETATM   14  O   UNL     1      -6.726   5.512  62.733  1.00  0.00    -0.025 OA 
HETATM   15  O   UNL     1      -7.901   7.778  62.556  1.00  0.00    -0.120 OA 
HETATM   16  C   UNL     1      -9.112  10.044  63.661  1.00  0.00    -0.301 A  
HETATM   17  C   UNL     1      -9.662  11.157  64.275  1.00  0.00    -0.271 A  
HETATM   18  C   UNL     1      -9.758  11.293  65.680  1.00  0.00    -0.230 A  
HETATM   19  F   UNL     1     -10.042  12.160  63.465  1.00  0.00    -0.361 F  
ENDROOT
BRANCH  18  20
HETATM   20  N   UNL     1     -10.294  12.460  66.219  1.00  0.00    -0.240 NA 
HETATM   21  C   UNL     1      -9.465  13.519  66.805  1.00  0.00    -0.269 C  
HETATM   22  C   UNL     1     -10.070  14.906  66.478  1.00  0.00    -0.271 C  
HETATM   23  N   UNL     1     -11.502  15.084  66.804  1.00  0.00    -0.300 NA 
HETATM   24  C   UNL     1     -12.268  13.959  66.216  1.00  0.00    -0.461 C  
HETATM   25  C   UNL     1     -11.711  15.181  68.246  1.00  0.00    -0.314 C  
HETATM   26  C   UNL     1     -11.729  12.548  66.562  1.00  0.00    -0.391 C  
ENDBRANCH  18  20
TORSDOF 1
ENDMDL
MODEL       75
REMARK 921   NORMALIZED FREE ENERGY PREDICTED BY IDOCK:   -4.57 KCAL/MOL
REMARK 922        TOTAL FREE ENERGY PREDICTED BY IDOCK:   -5.24 KCAL/MOL
REMARK 923 INTER-LIGAND FREE ENERGY PREDICTED BY IDOCK:   -4.86 KCAL/MOL
REMARK 924 INTRA-LIGAND FREE ENERGY PREDICTED BY IDOCK:   -0.38 KCAL/MOL
REMARK 927      BINDING AFFINITY PREDICTED BY RF-SCORE:    0.00 PKD
ROOT
HETATM    1  C   UNL     1      -7.478   8.715  70.837  1.00  0.00    -0.083 C  
HETATM    2  C   UNL     1      -8.826   8.398  70.184  1.00  0.00    -0.141 C  
HETATM    3  C   UNL     1      -9.769   9.604  70.183  1.00  0.00    -0.254 C  
HETATM    4  O   UNL     1      -9.552  10.545  69.137  1.00  0.00    -0.198 OA 
HETATM    5  C   UNL     1      -9.394  10.001  67.881  1.00  0.00    -0.140 A  
HETATM    6  C   UNL     1      -8.887   8.685  67.735  1.00  0.00    -0.136 A  
HETATM    7  N   UNL     1      -8.626   7.841  68.841  1.00  0.00    -0.132 NA 
HETATM    8  C   UNL     1      -8.080   6.582  68.620  1.00  0.00    -0.118 C  
HETATM    9  C   UNL     1      -7.765   6.046  67.432  1.00  0.00    -0.097 C  
HETATM   10  C   UNL     1      -8.040   6.875  66.241  1.00  0.00    -0.112 C  
HETATM   11  C   UNL     1      -7.153   4.704  67.375  1.00  0.00    -0.065 C  
HETATM   12  C   UNL     1      -8.637   8.214  66.434  1.00  0.00    -0.150 A  
HETATM   13  O   UNL     1      -6.940   4.019  68.364  1.00  0.00    -0.047 OA 
HETATM   14  O   UNL     1      -6.832   4.289  66.130  1.00  0.00    -0.055 OA 
HETATM   15  O   UNL     1      -7.761   6.449  65.121  1.00  0.00    -0.087 OA 
HETATM   16  C   UNL     1      -8.900   8.995  65.314  1.00  0.00    -0.234 A  
HETATM   17  C   UNL     1      -9.426  10.266  65.484  1.00  0.00    -0.223 A  
HETATM   18  C   UNL     1      -9.700  10.822  66.755  1.00  0.00    -0.187 A  
HETATM   19  F   UNL     1      -9.599  10.995  64.368  1.00  0.00    -0.225 F  
ENDROOT
BRANCH  18  20
HETATM   20  N   UNL     1     -10.197  12.121  66.841  1.00  0.00    -0.208 NA 
HETATM   21  C   UNL     1      -9.334  13.290  67.038  1.00  0.00    -0.242 C  
HETATM   22  C   UNL     1      -9.882  14.494  66.233  1.00  0.00    -0.304 C  
HETATM   23  N   UNL     1     -11.310  14.821  66.446  1.00  0.00    -0.348 NA 
HETATM   24  C   UNL     1     -12.112  13.586  66.271  1.00  0.00    -0.428 C  
HETATM   25  C   UNL     1     -11.528  15.423  67.758  1.00  0.00    -0.278 C  
HETATM   26  C   UNL     1     -11.630  12.370  67.099  1.00  0.00    -0.365 C  
ENDBRANCH  18  20
TORSDOF 1
ENDMDL
MODEL       76
REMARK 921   NORMALIZED FREE ENERGY PREDICTED BY IDOCK:   -4.53 KCAL/MOL
REMARK 922        TOTAL FREE ENERGY PREDICTED BY IDOCK:   -5.19 KCAL/MOL
REMARK 923 INTER-LIGAND FREE ENERGY PREDICTED BY IDOCK:   -4.77 KCAL/MOL
REMARK 924 INTRA-LIGAND FREE ENERGY PREDICTED BY IDOCK:   -0.42 KCAL/MOL
REMARK 927      BINDING AFFINITY PREDICTED BY RF-SCORE:    0.00 PKD
ROOT
HETATM    1  C   UNL     1      -7.378   7.321  71.779  1.00  0.00    -0.080 C  
HETATM    2  C   UNL     1      -8.858   7.532  71.447  1.00  0.00    -0.132 C  
HETATM    3  C   UNL     1      -9.219   9.014  71.322  1.00  0.00    -0.244 C  
HETATM    4  O   UNL     1      -8.915   9.610  70.067  1.00  0.00    -0.207 OA 
HETATM    5  C   UNL     1      -9.298   8.881  68.962  1.00  0.00    -0.144 A  
HETATM    6  C   UNL     1      -9.402   7.469  69.043  1.00  0.00    -0.146 A  
HETATM    7  N   UNL     1      -9.229   6.760  70.255  1.00  0.00    -0.156 NA 
HETATM    8  C   UNL     1      -9.294   5.372  70.245  1.00  0.00    -0.154 C  
HETATM    9  C   UNL     1      -9.518   4.592  69.178  1.00  0.00    -0.233 C  
HETATM   10  C   UNL     1      -9.730   5.281  67.890  1.00  0.00    -0.141 C  
HETATM   11  C   UNL     1      -9.518   3.124  69.334  1.00  0.00    -0.119 C  
HETATM   12  C   UNL     1      -9.685   6.759  67.863  1.00  0.00    -0.138 A  
HETATM   13  O   UNL     1      -9.354   2.560  70.405  1.00  0.00    -0.124 OA 
HETATM   14  O   UNL     1      -9.702   2.440  68.183  1.00  0.00    -0.139 OA 
HETATM   15  O   UNL     1      -9.926   4.624  66.868  1.00  0.00    -0.199 OA 
HETATM   16  C   UNL     1      -9.888   7.411  66.652  1.00  0.00    -0.263 A  
HETATM   17  C   UNL     1      -9.812   8.794  66.607  1.00  0.00    -0.265 A  
HETATM   18  C   UNL     1      -9.524   9.587  67.743  1.00  0.00    -0.131 A  
HETATM   19  F   UNL     1      -9.954   9.361  65.397  1.00  0.00    -0.371 F  
ENDROOT
BRANCH  18  20
HETATM   20  N   UNL     1      -9.433  10.970  67.606  1.00  0.00    -0.163 NA 
HETATM   21  C   UNL     1     -10.611  11.834  67.469  1.00  0.00    -0.214 C  
HETATM   22  C   UNL     1     -10.376  13.170  68.216  1.00  0.00    -0.252 C  
HETATM   23  N   UNL     1      -9.125  13.888  67.886  1.00  0.00    -0.186 NA 
HETATM   24  C   UNL     1      -7.988  12.943  68.006  1.00  0.00    -0.158 C  
HETATM   25  C   UNL     1      -9.189  14.485  66.556  1.00  0.00    -0.255 C  
HETATM   26  C   UNL     1      -8.157  11.613  67.230  1.00  0.00    -0.160 C  
ENDBRANCH  18  20
TORSDOF 1
ENDMDL
MODEL       77
REMARK 921   NORMALIZED FREE ENERGY PREDICTED BY IDOCK:   -4.48 KCAL/MOL
REMARK 922        TOTAL FREE ENERGY PREDICTED BY IDOCK:   -5.14 KCAL/MOL
REMARK 923 INTER-LIGAND FREE ENERGY PREDICTED BY IDOCK:   -4.85 KCAL/MOL
REMARK 924 INTRA-LIGAND FREE ENERGY PREDICTED BY IDOCK:   -0.30 KCAL/MOL
REMARK 927      BINDING AFFINITY PREDICTED BY RF-SCORE:    0.00 PKD
ROOT
HETATM    1  C   UNL     1      -7.007   8.075  64.074  1.00  0.00    -0.067 C  
HETATM    2  C   UNL     1      -6.778   9.042  65.239  1.00  0.00    -0.068 C  
HETATM    3  C   UNL     1      -7.246  10.463  64.915  1.00  0.00    -0.051 C  
HETATM    4  O   UNL     1      -8.641  10.695  65.075  1.00  0.00    -0.184 OA 
HETATM    5  C   UNL     1      -9.184  10.218  66.248  1.00  0.00    -0.159 A  
HETATM    6  C   UNL     1      -8.595   9.109  66.906  1.00  0.00    -0.123 A  
HETATM    7  N   UNL     1      -7.386   8.516  66.467  1.00  0.00    -0.083 NA 
HETATM    8  C   UNL     1      -6.897   7.399  67.133  1.00  0.00    -0.074 C  
HETATM    9  C   UNL     1      -7.454   6.794  68.192  1.00  0.00    -0.099 C  
HETATM   10  C   UNL     1      -8.705   7.385  68.707  1.00  0.00    -0.128 C  
HETATM   11  C   UNL     1      -6.822   5.587  68.759  1.00  0.00    -0.059 C  
HETATM   12  C   UNL     1      -9.248   8.586  68.036  1.00  0.00    -0.143 A  
HETATM   13  O   UNL     1      -5.780   5.110  68.335  1.00  0.00    -0.015 OA 
HETATM   14  O   UNL     1      -7.499   5.034  69.790  1.00  0.00    -0.055 OA 
HETATM   15  O   UNL     1      -9.276   6.871  69.668  1.00  0.00    -0.146 OA 
HETATM   16  C   UNL     1     -10.424   9.148  68.521  1.00  0.00    -0.238 A  
HETATM   17  C   UNL     1     -10.962  10.251  67.878  1.00  0.00    -0.292 A  
HETATM   18  C   UNL     1     -10.376  10.836  66.731  1.00  0.00    -0.243 A  
HETATM   19  F   UNL     1     -12.132  10.709  68.355  1.00  0.00    -0.291 F  
ENDROOT
BRANCH  18  20
HETATM   20  N   UNL     1     -11.000  11.924  66.124  1.00  0.00    -0.297 NA 
HETATM   21  C   UNL     1     -11.658  11.835  64.816  1.00  0.00    -0.172 C  
HETATM   22  C   UNL     1     -12.926  12.724  64.801  1.00  0.00    -0.143 C  
HETATM   23  N   UNL     1     -12.739  14.128  65.229  1.00  0.00    -0.650 NA 
HETATM   24  C   UNL     1     -12.033  14.139  66.532  1.00  0.00    -0.442 C  
HETATM   25  C   UNL     1     -12.018  14.900  64.221  1.00  0.00    -0.338 C  
HETATM   26  C   UNL     1     -10.729  13.304  66.578  1.00  0.00    -0.285 C  
ENDBRANCH  18  20
TORSDOF 1
ENDMDL
MODEL       78
REMARK 921   NORMALIZED FREE ENERGY PREDICTED BY IDOCK:   -4.48 KCAL/MOL
REMARK 922        TOTAL FREE ENERGY PREDICTED BY IDOCK:   -5.14 KCAL/MOL
REMARK 923 INTER-LIGAND FREE ENERGY PREDICTED BY IDOCK:   -4.78 KCAL/MOL
REMARK 924 INTRA-LIGAND FREE ENERGY PREDICTED BY IDOCK:   -0.36 KCAL/MOL
REMARK 927      BINDING AFFINITY PREDICTED BY RF-SCORE:    0.00 PKD
ROOT
HETATM    1  C   UNL     1      -6.438  12.092  69.241  1.00  0.00    -0.111 C  
HETATM    2  C   UNL     1      -6.653  11.710  67.774  1.00  0.00    -0.071 C  
HETATM    3  C   UNL     1      -6.042  10.348  67.434  1.00  0.00    -0.053 C  
HETATM    4  O   UNL     1      -6.838   9.221  67.780  1.00  0.00    -0.077 OA 
HETATM    5  C   UNL     1      -8.165   9.306  67.420  1.00  0.00    -0.117 A  
HETATM    6  C   UNL     1      -8.789  10.574  67.297  1.00  0.00    -0.136 A  
HETATM    7  N   UNL     1      -8.076  11.790  67.427  1.00  0.00    -0.152 NA 
HETATM    8  C   UNL     1      -8.766  12.993  67.345  1.00  0.00    -0.205 C  
HETATM    9  C   UNL     1     -10.084  13.145  67.142  1.00  0.00    -0.242 C  
HETATM   10  C   UNL     1     -10.872  11.909  66.976  1.00  0.00    -0.259 C  
HETATM   11  C   UNL     1     -10.667  14.501  67.121  1.00  0.00    -0.286 C  
HETATM   12  C   UNL     1     -10.170  10.608  67.039  1.00  0.00    -0.267 A  
HETATM   13  O   UNL     1     -10.006  15.521  67.248  1.00  0.00    -0.234 OA 
HETATM   14  O   UNL     1     -12.008  14.529  66.961  1.00  0.00    -0.404 OA 
HETATM   15  O   UNL     1     -12.089  11.977  66.801  1.00  0.00    -0.613 OA 
HETATM   16  C   UNL     1     -10.910   9.443  66.878  1.00  0.00    -0.055 A  
HETATM   17  C   UNL     1     -10.270   8.217  66.971  1.00  0.00    -0.310 A  
HETATM   18  C   UNL     1      -8.886   8.089  67.237  1.00  0.00    -0.131 A  
HETATM   19  F   UNL     1     -11.049   7.126  66.871  1.00  0.00    -0.434 F  
ENDROOT
BRANCH  18  20
HETATM   20  N   UNL     1      -8.326   6.818  67.348  1.00  0.00    -0.121 NA 
HETATM   21  C   UNL     1      -8.013   6.198  68.640  1.00  0.00    -0.101 C  
HETATM   22  C   UNL     1      -8.296   4.678  68.579  1.00  0.00    -0.086 C  
HETATM   23  N   UNL     1      -7.676   3.945  67.452  1.00  0.00    -0.079 NA 
HETATM   24  C   UNL     1      -8.000   4.652  66.190  1.00  0.00    -0.103 C  
HETATM   25  C   UNL     1      -6.234   3.809  67.637  1.00  0.00    -0.036 C  
HETATM   26  C   UNL     1      -7.683   6.168  66.187  1.00  0.00    -0.099 C  
ENDBRANCH  18  20
TORSDOF 1
ENDMDL
MODEL       79
REMARK 921   NORMALIZED FREE ENERGY PREDICTED BY IDOCK:   -4.44 KCAL/MOL
REMARK 922        TOTAL FREE ENERGY PREDICTED BY IDOCK:   -5.10 KCAL/MOL
REMARK 923 INTER-LIGAND FREE ENERGY PREDICTED BY IDOCK:   -4.88 KCAL/MOL
REMARK 924 INTRA-LIGAND FREE ENERGY PREDICTED BY IDOCK:   -0.22 KCAL/MOL
REMARK 927      BINDING AFFINITY PREDICTED BY RF-SCORE:    0.00 PKD
ROOT
HETATM    1  C   UNL     1     -10.329   5.178  70.197  1.00  0.00    -0.340 C  
HETATM    2  C   UNL     1      -9.305   6.314  70.141  1.00  0.00    -0.156 C  
HETATM    3  C   UNL     1      -8.134   5.995  69.208  1.00  0.00    -0.108 C  
HETATM    4  O   UNL     1      -8.378   6.227  67.825  1.00  0.00    -0.116 OA 
HETATM    5  C   UNL     1      -8.971   7.435  67.528  1.00  0.00    -0.126 A  
HETATM    6  C   UNL     1      -9.797   8.076  68.486  1.00  0.00    -0.174 A  
HETATM    7  N   UNL     1      -9.964   7.581  69.802  1.00  0.00    -0.184 NA 
HETATM    8  C   UNL     1     -10.830   8.236  70.669  1.00  0.00    -0.236 C  
HETATM    9  C   UNL     1     -11.553   9.333  70.397  1.00  0.00    -0.215 C  
HETATM   10  C   UNL     1     -11.398   9.906  69.045  1.00  0.00    -0.023 C  
HETATM   11  C   UNL     1     -12.459   9.883  71.423  1.00  0.00    -0.398 C  
HETATM   12  C   UNL     1     -10.471   9.247  68.099  1.00  0.00    -0.263 A  
HETATM   13  O   UNL     1     -12.573   9.410  72.545  1.00  0.00    -0.285 OA 
HETATM   14  O   UNL     1     -13.173  10.957  71.020  1.00  0.00    -0.270 OA 
HETATM   15  O   UNL     1     -12.043  10.904  68.725  1.00  0.00    -0.496 OA 
HETATM   16  C   UNL     1     -10.321   9.787  66.827  1.00  0.00    -0.289 A  
HETATM   17  C   UNL     1      -9.483   9.158  65.920  1.00  0.00    -0.259 A  
HETATM   18  C   UNL     1      -8.773   7.972  66.221  1.00  0.00    -0.153 A  
HETATM   19  F   UNL     1      -9.429   9.692  64.687  1.00  0.00    -0.301 F  
ENDROOT
BRANCH  18  20
HETATM   20  N   UNL     1      -7.977   7.384  65.241  1.00  0.00    -0.121 NA 
HETATM   21  C   UNL     1      -8.249   6.052  64.691  1.00  0.00    -0.108 C  
HETATM   22  C   UNL     1      -7.909   6.024  63.181  1.00  0.00    -0.100 C  
HETATM   23  N   UNL     1      -6.561   6.509  62.809  1.00  0.00    -0.034 NA 
HETATM   24  C   UNL     1      -6.344   7.836  63.434  1.00  0.00    -0.063 C  
HETATM   25  C   UNL     1      -5.527   5.556  63.199  1.00  0.00    -0.014 C  
HETATM   26  C   UNL     1      -6.621   7.897  64.956  1.00  0.00    -0.051 C  
ENDBRANCH  18  20
TORSDOF 1
ENDMDL
MODEL       80
REMARK 921   NORMALIZED FREE ENERGY PREDICTED BY IDOCK:   -4.43 KCAL/MOL
REMARK 922        TOTAL FREE ENERGY PREDICTED BY IDOCK:   -5.09 KCAL/MOL
REMARK 923 INTER-LIGAND FREE ENERGY PREDICTED BY IDOCK:   -4.66 KCAL/MOL
REMARK 924 INTRA-LIGAND FREE ENERGY PREDICTED BY IDOCK:   -0.43 KCAL/MOL
REMARK 927      BINDING AFFINITY PREDICTED BY RF-SCORE:    0.00 PKD
ROOT
HETATM    1  C   UNL     1     -11.213   7.364  70.402  1.00  0.00    -0.284 C  
HETATM    2  C   UNL     1      -9.891   8.089  70.132  1.00  0.00    -0.184 C  
HETATM    3  C   UNL     1      -8.799   7.137  69.637  1.00  0.00    -0.141 C  
HETATM    4  O   UNL     1      -8.844   6.830  68.249  1.00  0.00    -0.126 OA 
HETATM    5  C   UNL     1      -9.017   7.911  67.412  1.00  0.00    -0.127 A  
HETATM    6  C   UNL     1      -9.686   9.070  67.879  1.00  0.00    -0.155 A  
HETATM    7  N   UNL     1     -10.105   9.221  69.223  1.00  0.00    -0.192 NA 
HETATM    8  C   UNL     1     -10.801  10.365  69.593  1.00  0.00    -0.277 C  
HETATM    9  C   UNL     1     -11.132  11.391  68.795  1.00  0.00    -0.290 C  
HETATM   10  C   UNL     1     -10.698  11.298  67.387  1.00  0.00    -0.242 C  
HETATM   11  C   UNL     1     -11.912  12.518  69.342  1.00  0.00    -0.256 C  
HETATM   12  C   UNL     1      -9.939  10.103  66.959  1.00  0.00    -0.249 A  
HETATM   13  O   UNL     1     -12.257  12.595  70.512  1.00  0.00    -0.365 OA 
HETATM   14  O   UNL     1     -12.231  13.468  68.435  1.00  0.00    -0.315 OA 
HETATM   15  O   UNL     1     -10.982  12.198  66.598  1.00  0.00    -0.256 OA 
HETATM   16  C   UNL     1      -9.526  10.014  65.634  1.00  0.00    -0.278 A  
HETATM   17  C   UNL     1      -8.846   8.883  65.212  1.00  0.00    -0.184 A  
HETATM   18  C   UNL     1      -8.556   7.794  66.067  1.00  0.00    -0.151 A  
HETATM   19  F   UNL     1      -8.530   8.829  63.906  1.00  0.00    -0.168 F  
ENDROOT
BRANCH  18  20
HETATM   20  N   UNL     1      -7.897   6.679  65.555  1.00  0.00    -0.101 NA 
HETATM   21  C   UNL     1      -6.445   6.638  65.353  1.00  0.00    -0.046 C  
HETATM   22  C   UNL     1      -5.906   5.223  65.678  1.00  0.00    -0.018 C  
HETATM   23  N   UNL     1      -6.588   4.097  65.002  1.00  0.00    -0.046 NA 
HETATM   24  C   UNL     1      -8.049   4.230  65.215  1.00  0.00    -0.101 C  
HETATM   25  C   UNL     1      -6.254   4.048  63.582  1.00  0.00    -0.018 C  
HETATM   26  C   UNL     1      -8.641   5.614  64.852  1.00  0.00    -0.085 C  
ENDBRANCH  18  20
TORSDOF 1
ENDMDL
MODEL       81
REMARK 921   NORMALIZED FREE ENERGY PREDICTED BY IDOCK:   -4.25 KCAL/MOL
REMARK 922        TOTAL FREE ENERGY PREDICTED BY IDOCK:   -4.90 KCAL/MOL
REMARK 923 INTER-LIGAND FREE ENERGY PREDICTED BY IDOCK:   -4.53 KCAL/MOL
REMARK 924 INTRA-LIGAND FREE ENERGY PREDICTED BY IDOCK:   -0.37 KCAL/MOL
REMARK 927      BINDING AFFINITY PREDICTED BY RF-SCORE:    0.00 PKD
ROOT
HETATM    1  C   UNL     1     -11.261  16.920  67.484  1.00  0.00     0.109 C  
HETATM    2  C   UNL     1     -10.447  16.428  68.684  1.00  0.00    -0.293 C  
HETATM    3  C   UNL     1     -10.920  15.060  69.184  1.00  0.00    -0.261 C  
HETATM    4  O   UNL     1     -10.418  13.942  68.462  1.00  0.00    -0.240 OA 
HETATM    5  C   UNL     1      -9.065  13.968  68.206  1.00  0.00    -0.191 A  
HETATM    6  C   UNL     1      -8.383  15.207  68.109  1.00  0.00    -0.147 A  
HETATM    7  N   UNL     1      -9.013  16.447  68.373  1.00  0.00    -0.207 NA 
HETATM    8  C   UNL     1      -8.293  17.624  68.207  1.00  0.00    -0.274 C  
HETATM    9  C   UNL     1      -7.014  17.728  67.818  1.00  0.00    -0.191 C  
HETATM   10  C   UNL     1      -6.300  16.463  67.553  1.00  0.00    -0.164 C  
HETATM   11  C   UNL     1      -6.407  19.063  67.653  1.00  0.00    -0.204 C  
HETATM   12  C   UNL     1      -7.028  15.188  67.735  1.00  0.00    -0.190 A  
HETATM   13  O   UNL     1      -7.001  20.106  67.886  1.00  0.00    -0.262 OA 
HETATM   14  O   UNL     1      -5.132  19.046  67.208  1.00  0.00    -0.156 OA 
HETATM   15  O   UNL     1      -5.128  16.488  67.178  1.00  0.00    -0.193 OA 
HETATM   16  C   UNL     1      -6.357  13.996  67.490  1.00  0.00    -0.036 A  
HETATM   17  C   UNL     1      -7.039  12.797  67.622  1.00  0.00    -0.145 A  
HETATM   18  C   UNL     1      -8.404  12.722  67.986  1.00  0.00    -0.173 A  
HETATM   19  F   UNL     1      -6.354  11.683  67.310  1.00  0.00    -0.069 F  
ENDROOT
BRANCH  18  20
HETATM   20  N   UNL     1      -9.024  11.478  68.064  1.00  0.00    -0.163 NA 
HETATM   21  C   UNL     1      -8.710  10.497  69.109  1.00  0.00    -0.147 C  
HETATM   22  C   UNL     1      -9.996   9.746  69.532  1.00  0.00    -0.214 C  
HETATM   23  N   UNL     1     -10.789   9.147  68.435  1.00  0.00    -0.111 NA 
HETATM   24  C   UNL     1     -11.030  10.182  67.402  1.00  0.00    -0.229 C  
HETATM   25  C   UNL     1     -10.122   7.974  67.877  1.00  0.00    -0.194 C  
HETATM   26  C   UNL     1      -9.762  10.924  66.910  1.00  0.00    -0.181 C  
ENDBRANCH  18  20
TORSDOF 1
ENDMDL
MODEL       82
REMARK 921   NORMALIZED FREE ENERGY PREDICTED BY IDOCK:   -4.22 KCAL/MOL
REMARK 922        TOTAL FREE ENERGY PREDICTED BY IDOCK:   -4.86 KCAL/MOL
REMARK 923 INTER-LIGAND FREE ENERGY PREDICTED BY IDOCK:   -5.53 KCAL/MOL
REMARK 924 INTRA-LIGAND FREE ENERGY PREDICTED BY IDOCK:    0.66 KCAL/MOL
REMARK 927      BINDING AFFINITY PREDICTED BY RF-SCORE:    0.00 PKD
ROOT
HETATM    1  C   UNL     1      -9.129   7.666  67.009  1.00  0.00    -0.157 C  
HETATM    2  C   UNL     1      -8.572   8.394  68.236  1.00  0.00    -0.139 C  
HETATM    3  C   UNL     1      -8.439   9.901  68.006  1.00  0.00    -0.117 C  
HETATM    4  O   UNL     1      -9.635  10.651  68.179  1.00  0.00    -0.151 OA 
HETATM    5  C   UNL     1     -10.354  10.356  69.316  1.00  0.00    -0.230 A  
HETATM    6  C   UNL     1     -10.264   9.067  69.900  1.00  0.00    -0.202 A  
HETATM    7  N   UNL     1      -9.371   8.076  69.426  1.00  0.00    -0.155 NA 
HETATM    8  C   UNL     1      -9.376   6.819  70.017  1.00  0.00    -0.158 C  
HETATM    9  C   UNL     1     -10.155   6.418  71.033  1.00  0.00    -0.212 C  
HETATM   10  C   UNL     1     -11.088   7.420  71.584  1.00  0.00    -0.236 C  
HETATM   11  C   UNL     1     -10.061   5.028  71.520  1.00  0.00    -0.196 C  
HETATM   12  C   UNL     1     -11.100   8.776  70.992  1.00  0.00    -0.328 A  
HETATM   13  O   UNL     1      -9.277   4.207  71.068  1.00  0.00    -0.116 OA 
HETATM   14  O   UNL     1     -10.928   4.724  72.511  1.00  0.00    -0.183 OA 
HETATM   15  O   UNL     1     -11.841   7.114  72.508  1.00  0.00    -0.229 OA 
HETATM   16  C   UNL     1     -11.975   9.723  71.511  1.00  0.00    -0.488 A  
HETATM   17  C   UNL     1     -12.022  10.985  70.942  1.00  0.00    -0.286 A  
HETATM   18  C   UNL     1     -11.223  11.362  69.837  1.00  0.00    -0.143 A  
HETATM   19  F   UNL     1     -12.933  11.836  71.446  1.00  0.00    -0.462 F  
ENDROOT
BRANCH  18  20
HETATM   20  N   UNL     1     -11.354  12.641  69.302  1.00  0.00    -0.260 NA 
HETATM   21  C   UNL     1     -10.996  12.964  67.916  1.00  0.00    -0.241 C  
HETATM   22  C   UNL     1     -11.990  14.002  67.341  1.00  0.00    -0.404 C  
HETATM   23  N   UNL     1     -12.199  15.222  68.155  1.00  0.00     0.080 NA 
HETATM   24  C   UNL     1     -12.514  14.817  69.546  1.00  0.00    -0.100 C  
HETATM   25  C   UNL     1     -11.035  16.102  68.101  1.00  0.00    -0.341 C  
HETATM   26  C   UNL     1     -11.515  13.819  70.180  1.00  0.00    -0.072 C  
ENDBRANCH  18  20
TORSDOF 1
ENDMDL
MODEL       83
REMARK 921   NORMALIZED FREE ENERGY PREDICTED BY IDOCK:   -4.18 KCAL/MOL
REMARK 922        TOTAL FREE ENERGY PREDICTED BY IDOCK:   -4.83 KCAL/MOL
REMARK 923 INTER-LIGAND FREE ENERGY PREDICTED BY IDOCK:   -4.80 KCAL/MOL
REMARK 924 INTRA-LIGAND FREE ENERGY PREDICTED BY IDOCK:   -0.03 KCAL/MOL
REMARK 927      BINDING AFFINITY PREDICTED BY RF-SCORE:    0.00 PKD
ROOT
HETATM    1  C   UNL     1      -9.482   7.846  70.996  1.00  0.00    -0.172 C  
HETATM    2  C   UNL     1     -10.743   8.178  70.192  1.00  0.00    -0.243 C  
HETATM    3  C   UNL     1     -11.418   9.463  70.677  1.00  0.00    -0.284 C  
HETATM    4  O   UNL     1     -10.855  10.671  70.178  1.00  0.00    -0.261 OA 
HETATM    5  C   UNL     1     -10.606  10.687  68.823  1.00  0.00    -0.206 A  
HETATM    6  C   UNL     1     -10.350   9.476  68.133  1.00  0.00    -0.208 A  
HETATM    7  N   UNL     1     -10.441   8.208  68.756  1.00  0.00    -0.202 NA 
HETATM    8  C   UNL     1     -10.125   7.068  68.028  1.00  0.00    -0.169 C  
HETATM    9  C   UNL     1      -9.733   7.024  66.746  1.00  0.00    -0.241 C  
HETATM   10  C   UNL     1      -9.644   8.317  66.038  1.00  0.00    -0.081 C  
HETATM   11  C   UNL     1      -9.396   5.726  66.130  1.00  0.00    -0.144 C  
HETATM   12  C   UNL     1      -9.990   9.552  66.776  1.00  0.00    -0.297 A  
HETATM   13  O   UNL     1      -9.483   4.658  66.718  1.00  0.00    -0.139 OA 
HETATM   14  O   UNL     1      -8.965   5.810  64.852  1.00  0.00    -0.009 OA 
HETATM   15  O   UNL     1      -9.277   8.349  64.864  1.00  0.00     0.178 OA 
HETATM   16  C   UNL     1      -9.911  10.770  66.111  1.00  0.00    -0.283 A  
HETATM   17  C   UNL     1     -10.197  11.937  66.801  1.00  0.00    -0.206 A  
HETATM   18  C   UNL     1     -10.559  11.954  68.168  1.00  0.00    -0.208 A  
HETATM   19  F   UNL     1     -10.041  13.087  66.122  1.00  0.00    -0.259 F  
ENDROOT
BRANCH  18  20
HETATM   20  N   UNL     1     -10.799  13.174  68.797  1.00  0.00    -0.255 NA 
HETATM   21  C   UNL     1      -9.751  14.179  69.008  1.00  0.00     0.009 C  
HETATM   22  C   UNL     1     -10.339  15.600  68.835  1.00  0.00    -0.218 C  
HETATM   23  N   UNL     1     -11.556  15.900  69.624  1.00  0.00    -0.339 NA 
HETATM   24  C   UNL     1     -12.549  14.823  69.393  1.00  0.00     0.062 C  
HETATM   25  C   UNL     1     -11.246  16.050  71.043  1.00  0.00    -0.302 C  
HETATM   26  C   UNL     1     -12.017  13.384  69.606  1.00  0.00    -0.324 C  
ENDBRANCH  18  20
TORSDOF 1
ENDMDL
MODEL       84
REMARK 921   NORMALIZED FREE ENERGY PREDICTED BY IDOCK:   -4.00 KCAL/MOL
REMARK 922        TOTAL FREE ENERGY PREDICTED BY IDOCK:   -4.64 KCAL/MOL
REMARK 923 INTER-LIGAND FREE ENERGY PREDICTED BY IDOCK:   -4.28 KCAL/MOL
REMARK 924 INTRA-LIGAND FREE ENERGY PREDICTED BY IDOCK:   -0.36 KCAL/MOL
REMARK 927      BINDING AFFINITY PREDICTED BY RF-SCORE:    0.00 PKD
ROOT
HETATM    1  C   UNL     1      -9.801   8.662  66.406  1.00  0.00    -0.341 C  
HETATM    2  C   UNL     1      -8.561   7.909  66.897  1.00  0.00    -0.129 C  
HETATM    3  C   UNL     1      -8.351   8.060  68.406  1.00  0.00    -0.127 C  
HETATM    4  O   UNL     1      -9.128   7.188  69.218  1.00  0.00    -0.139 OA 
HETATM    5  C   UNL     1      -9.141   5.869  68.819  1.00  0.00    -0.116 A  
HETATM    6  C   UNL     1      -8.940   5.537  67.455  1.00  0.00    -0.107 A  
HETATM    7  N   UNL     1      -8.614   6.505  66.475  1.00  0.00    -0.119 NA 
HETATM    8  C   UNL     1      -8.483   6.110  65.149  1.00  0.00    -0.100 C  
HETATM    9  C   UNL     1      -8.628   4.866  64.669  1.00  0.00    -0.149 C  
HETATM   10  C   UNL     1      -8.943   3.812  65.653  1.00  0.00    -0.136 C  
HETATM   11  C   UNL     1      -8.492   4.623  63.219  1.00  0.00    -0.113 C  
HETATM   12  C   UNL     1      -9.074   4.190  67.077  1.00  0.00    -0.155 A  
HETATM   13  O   UNL     1      -8.219   5.498  62.412  1.00  0.00    -0.094 OA 
HETATM   14  O   UNL     1      -8.709   3.343  62.846  1.00  0.00    -0.088 OA 
HETATM   15  O   UNL     1      -9.103   2.651  65.277  1.00  0.00    -0.137 OA 
HETATM   16  C   UNL     1      -9.367   3.198  68.006  1.00  0.00    -0.248 A  
HETATM   17  C   UNL     1      -9.528   3.546  69.338  1.00  0.00    -0.164 A  
HETATM   18  C   UNL     1      -9.419   4.876  69.806  1.00  0.00    -0.154 A  
HETATM   19  F   UNL     1      -9.873   2.554  70.177  1.00  0.00    -0.176 F  
ENDROOT
BRANCH  18  20
HETATM   20  N   UNL     1      -9.628   5.146  71.156  1.00  0.00    -0.159 NA 
HETATM   21  C   UNL     1     -10.873   5.728  71.667  1.00  0.00    -0.255 C  
HETATM   22  C   UNL     1     -11.219   5.112  73.044  1.00  0.00    -0.322 C  
HETATM   23  N   UNL     1     -10.141   5.142  74.058  1.00  0.00    -0.190 NA 
HETATM   24  C   UNL     1      -8.908   4.579  73.458  1.00  0.00    -0.101 C  
HETATM   25  C   UNL     1      -9.924   6.494  74.563  1.00  0.00    -0.334 C  
HETATM   26  C   UNL     1      -8.494   5.204  72.103  1.00  0.00    -0.125 C  
ENDBRANCH  18  20
TORSDOF 1
ENDMDL
MODEL       85
REMARK 921   NORMALIZED FREE ENERGY PREDICTED BY IDOCK:   -3.97 KCAL/MOL
REMARK 922        TOTAL FREE ENERGY PREDICTED BY IDOCK:   -4.61 KCAL/MOL
REMARK 923 INTER-LIGAND FREE ENERGY PREDICTED BY IDOCK:   -4.26 KCAL/MOL
REMARK 924 INTRA-LIGAND FREE ENERGY PREDICTED BY IDOCK:   -0.34 KCAL/MOL
REMARK 927      BINDING AFFINITY PREDICTED BY RF-SCORE:    0.00 PKD
ROOT
HETATM    1  C   UNL     1     -10.817   8.726  71.796  1.00  0.00    -0.416 C  
HETATM    2  C   UNL     1     -11.439   8.914  70.410  1.00  0.00    -0.157 C  
HETATM    3  C   UNL     1     -11.734  10.385  70.101  1.00  0.00    -0.312 C  
HETATM    4  O   UNL     1     -10.622  11.144  69.640  1.00  0.00    -0.163 OA 
HETATM    5  C   UNL     1      -9.868  10.542  68.656  1.00  0.00    -0.178 A  
HETATM    6  C   UNL     1      -9.817   9.128  68.564  1.00  0.00    -0.164 A  
HETATM    7  N   UNL     1     -10.602   8.282  69.383  1.00  0.00    -0.219 NA 
HETATM    8  C   UNL     1     -10.459   6.904  69.270  1.00  0.00    -0.214 C  
HETATM    9  C   UNL     1      -9.635   6.254  68.435  1.00  0.00    -0.121 C  
HETATM   10  C   UNL     1      -8.810   7.088  67.540  1.00  0.00    -0.119 C  
HETATM   11  C   UNL     1      -9.577   4.779  68.469  1.00  0.00    -0.156 C  
HETATM   12  C   UNL     1      -8.947   8.559  67.618  1.00  0.00    -0.141 A  
HETATM   13  O   UNL     1     -10.273   4.094  69.205  1.00  0.00     0.096 OA 
HETATM   14  O   UNL     1      -8.676   4.236  67.622  1.00  0.00    -0.102 OA 
HETATM   15  O   UNL     1      -8.022   6.555  66.760  1.00  0.00    -0.106 OA 
HETATM   16  C   UNL     1      -8.173   9.346  66.774  1.00  0.00    -0.112 A  
HETATM   17  C   UNL     1      -8.265  10.726  66.863  1.00  0.00    -0.130 A  
HETATM   18  C   UNL     1      -9.108  11.384  67.790  1.00  0.00    -0.158 A  
HETATM   19  F   UNL     1      -7.447  11.433  66.065  1.00  0.00    -0.089 F  
ENDROOT
BRANCH  18  20
HETATM   20  N   UNL     1      -9.117  12.776  67.838  1.00  0.00    -0.196 NA 
HETATM   21  C   UNL     1      -8.160  13.550  68.635  1.00  0.00    -0.055 C  
HETATM   22  C   UNL     1      -7.773  14.847  67.884  1.00  0.00    -0.141 C  
HETATM   23  N   UNL     1      -8.899  15.684  67.411  1.00  0.00    -0.185 NA 
HETATM   24  C   UNL     1      -9.842  14.827  66.653  1.00  0.00    -0.259 C  
HETATM   25  C   UNL     1      -9.562  16.360  68.522  1.00  0.00    -0.229 C  
HETATM   26  C   UNL     1     -10.298  13.543  67.389  1.00  0.00    -0.237 C  
ENDBRANCH  18  20
TORSDOF 1
ENDMDL
MODEL       86
REMARK 921   NORMALIZED FREE ENERGY PREDICTED BY IDOCK:   -3.95 KCAL/MOL
REMARK 922        TOTAL FREE ENERGY PREDICTED BY IDOCK:   -4.58 KCAL/MOL
REMARK 923 INTER-LIGAND FREE ENERGY PREDICTED BY IDOCK:   -4.15 KCAL/MOL
REMARK 924 INTRA-LIGAND FREE ENERGY PREDICTED BY IDOCK:   -0.43 KCAL/MOL
REMARK 927      BINDING AFFINITY PREDICTED BY RF-SCORE:    0.00 PKD
ROOT
HETATM    1  C   UNL     1     -12.235   6.964  70.086  1.00  0.00    -0.001 C  
HETATM    2  C   UNL     1     -10.880   6.502  69.543  1.00  0.00    -0.304 C  
HETATM    3  C   UNL     1     -10.776   6.669  68.025  1.00  0.00    -0.265 C  
HETATM    4  O   UNL     1     -10.441   7.978  67.578  1.00  0.00    -0.244 OA 
HETATM    5  C   UNL     1      -9.394   8.576  68.245  1.00  0.00    -0.137 A  
HETATM    6  C   UNL     1      -9.106   8.214  69.585  1.00  0.00    -0.151 A  
HETATM    7  N   UNL     1      -9.787   7.172  70.258  1.00  0.00    -0.176 NA 
HETATM    8  C   UNL     1      -9.485   6.910  71.588  1.00  0.00    -0.157 C  
HETATM    9  C   UNL     1      -8.579   7.551  72.342  1.00  0.00    -0.152 C  
HETATM   10  C   UNL     1      -7.821   8.633  71.683  1.00  0.00    -0.111 C  
HETATM   11  C   UNL     1      -8.407   7.172  73.758  1.00  0.00    -0.140 C  
HETATM   12  C   UNL     1      -8.102   8.930  70.261  1.00  0.00    -0.125 A  
HETATM   13  O   UNL     1      -9.030   6.267  74.293  1.00  0.00    -0.132 OA 
HETATM   14  O   UNL     1      -7.505   7.920  74.430  1.00  0.00    -0.144 OA 
HETATM   15  O   UNL     1      -6.985   9.272  72.321  1.00  0.00    -0.302 OA 
HETATM   16  C   UNL     1      -7.387   9.946  69.638  1.00  0.00    -0.115 A  
HETATM   17  C   UNL     1      -7.667  10.258  68.317  1.00  0.00    -0.092 A  
HETATM   18  C   UNL     1      -8.665   9.596  67.564  1.00  0.00    -0.125 A  
HETATM   19  F   UNL     1      -6.987  11.291  67.790  1.00  0.00    -0.068 F  
ENDROOT
BRANCH  18  20
HETATM   20  N   UNL     1      -8.907   9.992  66.251  1.00  0.00    -0.142 NA 
HETATM   21  C   UNL     1      -8.097   9.530  65.119  1.00  0.00    -0.126 C  
HETATM   22  C   UNL     1      -8.997   9.320  63.876  1.00  0.00    -0.050 C  
HETATM   23  N   UNL     1      -9.865  10.460  63.503  1.00  0.00    -0.276 NA 
HETATM   24  C   UNL     1     -10.618  10.897  64.703  1.00  0.00    -0.262 C  
HETATM   25  C   UNL     1      -9.089  11.554  62.928  1.00  0.00    -0.122 C  
HETATM   26  C   UNL     1      -9.751  11.170  65.957  1.00  0.00    -0.226 C  
ENDBRANCH  18  20
TORSDOF 1
ENDMDL
MODEL       87
REMARK 921   NORMALIZED FREE ENERGY PREDICTED BY IDOCK:   -3.71 KCAL/MOL
REMARK 922        TOTAL FREE ENERGY PREDICTED BY IDOCK:   -4.33 KCAL/MOL
REMARK 923 INTER-LIGAND FREE ENERGY PREDICTED BY IDOCK:   -3.91 KCAL/MOL
REMARK 924 INTRA-LIGAND FREE ENERGY PREDICTED BY IDOCK:   -0.42 KCAL/MOL
REMARK 927      BINDING AFFINITY PREDICTED BY RF-SCORE:    0.00 PKD
ROOT
HETATM    1  C   UNL     1     -12.873   8.723  73.198  1.00  0.00     0.741 C  
HETATM    2  C   UNL     1     -13.065   8.167  71.785  1.00  0.00    -0.345 C  
HETATM    3  C   UNL     1     -13.447   9.257  70.780  1.00  0.00     0.198 C  
HETATM    4  O   UNL     1     -12.362  10.020  70.267  1.00  0.00    -0.190 OA 
HETATM    5  C   UNL     1     -11.271   9.286  69.855  1.00  0.00    -0.126 A  
HETATM    6  C   UNL     1     -11.004   8.021  70.437  1.00  0.00    -0.248 A  
HETATM    7  N   UNL     1     -11.879   7.410  71.367  1.00  0.00    -0.287 NA 
HETATM    8  C   UNL     1     -11.525   6.192  71.934  1.00  0.00    -0.300 C  
HETATM    9  C   UNL     1     -10.406   5.493  71.688  1.00  0.00    -0.277 C  
HETATM   10  C   UNL     1      -9.469   6.072  70.706  1.00  0.00    -0.168 C  
HETATM   11  C   UNL     1     -10.163   4.227  72.407  1.00  0.00    -0.181 C  
HETATM   12  C   UNL     1      -9.820   7.360  70.068  1.00  0.00    -0.179 A  
HETATM   13  O   UNL     1     -10.950   3.747  73.210  1.00  0.00    -0.196 OA 
HETATM   14  O   UNL     1      -8.983   3.638  72.117  1.00  0.00    -0.097 OA 
HETATM   15  O   UNL     1      -8.417   5.490  70.445  1.00  0.00    -0.117 OA 
HETATM   16  C   UNL     1      -8.940   7.906  69.140  1.00  0.00    -0.145 A  
HETATM   17  C   UNL     1      -9.240   9.130  68.563  1.00  0.00    -0.136 A  
HETATM   18  C   UNL     1     -10.405   9.867  68.881  1.00  0.00    -0.205 A  
HETATM   19  F   UNL     1      -8.321   9.636  67.722  1.00  0.00    -0.116 F  
ENDROOT
BRANCH  18  20
HETATM   20  N   UNL     1     -10.616  11.106  68.281  1.00  0.00    -0.180 NA 
HETATM   21  C   UNL     1     -11.033  11.250  66.882  1.00  0.00    -0.290 C  
HETATM   22  C   UNL     1     -12.012  12.441  66.742  1.00  0.00    -0.212 C  
HETATM   23  N   UNL     1     -11.556  13.728  67.316  1.00  0.00    -0.341 NA 
HETATM   24  C   UNL     1     -11.113  13.495  68.712  1.00  0.00    -0.264 C  
HETATM   25  C   UNL     1     -10.497  14.325  66.508  1.00  0.00    -0.287 C  
HETATM   26  C   UNL     1     -10.091  12.345  68.892  1.00  0.00     0.038 C  
ENDBRANCH  18  20
TORSDOF 1
ENDMDL
MODEL       88
REMARK 921   NORMALIZED FREE ENERGY PREDICTED BY IDOCK:   -3.62 KCAL/MOL
REMARK 922        TOTAL FREE ENERGY PREDICTED BY IDOCK:   -4.24 KCAL/MOL
REMARK 923 INTER-LIGAND FREE ENERGY PREDICTED BY IDOCK:   -3.83 KCAL/MOL
REMARK 924 INTRA-LIGAND FREE ENERGY PREDICTED BY IDOCK:   -0.41 KCAL/MOL
REMARK 927      BINDING AFFINITY PREDICTED BY RF-SCORE:    0.00 PKD
ROOT
HETATM    1  C   UNL     1     -10.012  10.962  68.694  1.00  0.00    -0.196 C  
HETATM    2  C   UNL     1      -8.720  10.168  68.912  1.00  0.00    -0.149 C  
HETATM    3  C   UNL     1      -8.649   9.549  70.310  1.00  0.00    -0.226 C  
HETATM    4  O   UNL     1      -9.357   8.325  70.470  1.00  0.00    -0.155 OA 
HETATM    5  C   UNL     1      -9.156   7.395  69.474  1.00  0.00    -0.143 A  
HETATM    6  C   UNL     1      -8.807   7.819  68.166  1.00  0.00    -0.125 A  
HETATM    7  N   UNL     1      -8.546   9.173  67.847  1.00  0.00    -0.121 NA 
HETATM    8  C   UNL     1      -8.260   9.518  66.532  1.00  0.00    -0.119 C  
HETATM    9  C   UNL     1      -8.193   8.683  65.485  1.00  0.00    -0.135 C  
HETATM   10  C   UNL     1      -8.433   7.253  65.764  1.00  0.00    -0.143 C  
HETATM   11  C   UNL     1      -7.915   9.221  64.138  1.00  0.00    -0.136 C  
HETATM   12  C   UNL     1      -8.723   6.844  67.156  1.00  0.00    -0.120 A  
HETATM   13  O   UNL     1      -7.706  10.404  63.916  1.00  0.00    -0.129 OA 
HETATM   14  O   UNL     1      -7.923   8.295  63.155  1.00  0.00    -0.149 OA 
HETATM   15  O   UNL     1      -8.401   6.435  64.846  1.00  0.00    -0.132 OA 
HETATM   16  C   UNL     1      -8.946   5.498  67.423  1.00  0.00    -0.107 A  
HETATM   17  C   UNL     1      -9.254   5.107  68.716  1.00  0.00    -0.119 A  
HETATM   18  C   UNL     1      -9.367   6.020  69.791  1.00  0.00    -0.149 A  
HETATM   19  F   UNL     1      -9.521   3.802  68.899  1.00  0.00    -0.191 F  
ENDROOT
BRANCH  18  20
HETATM   20  N   UNL     1      -9.714   5.549  71.055  1.00  0.00    -0.169 NA 
HETATM   21  C   UNL     1      -8.783   4.801  71.907  1.00  0.00    -0.123 C  
HETATM   22  C   UNL     1      -8.995   5.189  73.391  1.00  0.00    -0.119 C  
HETATM   23  N   UNL     1     -10.386   5.109  73.891  1.00  0.00    -0.228 NA 
HETATM   24  C   UNL     1     -11.270   5.850  72.960  1.00  0.00    -0.221 C  
HETATM   25  C   UNL     1     -10.815   3.722  74.049  1.00  0.00    -0.195 C  
HETATM   26  C   UNL     1     -11.129   5.456  71.469  1.00  0.00    -0.025 C  
ENDBRANCH  18  20
TORSDOF 1
ENDMDL
MODEL       89
REMARK 921   NORMALIZED FREE ENERGY PREDICTED BY IDOCK:   -3.59 KCAL/MOL
REMARK 922        TOTAL FREE ENERGY PREDICTED BY IDOCK:   -4.20 KCAL/MOL
REMARK 923 INTER-LIGAND FREE ENERGY PREDICTED BY IDOCK:   -3.80 KCAL/MOL
REMARK 924 INTRA-LIGAND FREE ENERGY PREDICTED BY IDOCK:   -0.40 KCAL/MOL
REMARK 927      BINDING AFFINITY PREDICTED BY RF-SCORE:    0.00 PKD
ROOT
HETATM    1  C   UNL     1      -5.524   5.759  70.896  1.00  0.00    -0.013 C  
HETATM    2  C   UNL     1      -6.770   4.895  71.117  1.00  0.00    -0.035 C  
HETATM    3  C   UNL     1      -7.832   5.613  71.953  1.00  0.00    -0.106 C  
HETATM    4  O   UNL     1      -8.662   6.519  71.234  1.00  0.00    -0.130 OA 
HETATM    5  C   UNL     1      -9.166   6.037  70.046  1.00  0.00    -0.149 A  
HETATM    6  C   UNL     1      -8.462   5.037  69.329  1.00  0.00    -0.088 A  
HETATM    7  N   UNL     1      -7.295   4.416  69.833  1.00  0.00    -0.049 NA 
HETATM    8  C   UNL     1      -6.631   3.480  69.049  1.00  0.00    -0.037 C  
HETATM    9  C   UNL     1      -6.985   3.072  67.822  1.00  0.00    -0.049 C  
HETATM   10  C   UNL     1      -8.211   3.670  67.256  1.00  0.00    -0.091 C  
HETATM   11  C   UNL     1      -6.143   2.093  67.106  1.00  0.00    -0.020 C  
HETATM   12  C   UNL     1      -8.955   4.658  68.068  1.00  0.00    -0.131 A  
HETATM   13  O   UNL     1      -5.136   1.593  67.585  1.00  0.00    -0.004 OA 
HETATM   14  O   UNL     1      -6.570   1.797  65.859  1.00  0.00    -0.023 OA 
HETATM   15  O   UNL     1      -8.584   3.351  66.128  1.00  0.00    -0.110 OA 
HETATM   16  C   UNL     1     -10.112   5.219  67.540  1.00  0.00    -0.222 A  
HETATM   17  C   UNL     1     -10.798   6.172  68.275  1.00  0.00    -0.306 A  
HETATM   18  C   UNL     1     -10.370   6.619  69.548  1.00  0.00    -0.202 A  
HETATM   19  F   UNL     1     -11.872   6.724  67.684  1.00  0.00     0.034 F  
ENDROOT
BRANCH  18  20
HETATM   20  N   UNL     1     -11.099   7.605  70.207  1.00  0.00    -0.260 NA 
HETATM   21  C   UNL     1     -12.222   7.301  71.100  1.00  0.00    -0.340 C  
HETATM   22  C   UNL     1     -12.230   8.286  72.294  1.00  0.00    -0.370 C  
HETATM   23  N   UNL     1     -12.175   9.725  71.950  1.00  0.00    -0.354 NA 
HETATM   24  C   UNL     1     -11.046   9.947  71.015  1.00  0.00    -0.331 C  
HETATM   25  C   UNL     1     -13.440  10.185  71.383  1.00  0.00    -0.243 C  
HETATM   26  C   UNL     1     -11.027   9.017  69.777  1.00  0.00    -0.166 C  
ENDBRANCH  18  20
TORSDOF 1
ENDMDL
MODEL       90
REMARK 921   NORMALIZED FREE ENERGY PREDICTED BY IDOCK:   -3.46 KCAL/MOL
REMARK 922        TOTAL FREE ENERGY PREDICTED BY IDOCK:   -4.06 KCAL/MOL
REMARK 923 INTER-LIGAND FREE ENERGY PREDICTED BY IDOCK:   -3.74 KCAL/MOL
REMARK 924 INTRA-LIGAND FREE ENERGY PREDICTED BY IDOCK:   -0.32 KCAL/MOL
REMARK 927      BINDING AFFINITY PREDICTED BY RF-SCORE:    0.00 PKD
ROOT
HETATM    1  C   UNL     1     -12.110   6.937  71.027  1.00  0.00    -0.429 C  
HETATM    2  C   UNL     1     -11.243   5.973  70.213  1.00  0.00    -0.322 C  
HETATM    3  C   UNL     1     -11.250   6.307  68.719  1.00  0.00    -0.273 C  
HETATM    4  O   UNL     1     -10.361   7.345  68.324  1.00  0.00    -0.185 OA 
HETATM    5  C   UNL     1      -9.085   7.252  68.835  1.00  0.00    -0.132 A  
HETATM    6  C   UNL     1      -8.860   6.590  70.068  1.00  0.00    -0.144 A  
HETATM    7  N   UNL     1      -9.886   5.912  70.769  1.00  0.00    -0.179 NA 
HETATM    8  C   UNL     1      -9.600   5.331  71.998  1.00  0.00    -0.153 C  
HETATM    9  C   UNL     1      -8.413   5.329  72.623  1.00  0.00    -0.117 C  
HETATM   10  C   UNL     1      -7.299   6.002  71.925  1.00  0.00    -0.094 C  
HETATM   11  C   UNL     1      -8.287   4.696  73.950  1.00  0.00    -0.104 C  
HETATM   12  C   UNL     1      -7.561   6.618  70.605  1.00  0.00    -0.095 A  
HETATM   13  O   UNL     1      -9.210   4.130  74.516  1.00  0.00    -0.101 OA 
HETATM   14  O   UNL     1      -7.060   4.801  74.505  1.00  0.00    -0.071 OA 
HETATM   15  O   UNL     1      -6.187   6.050  72.449  1.00  0.00    -0.043 OA 
HETATM   16  C   UNL     1      -6.513   7.248  69.944  1.00  0.00    -0.035 A  
HETATM   17  C   UNL     1      -6.754   7.861  68.725  1.00  0.00    -0.057 A  
HETATM   18  C   UNL     1      -8.030   7.888  68.115  1.00  0.00    -0.125 A  
HETATM   19  F   UNL     1      -5.716   8.508  68.166  1.00  0.00    -0.033 F  
ENDROOT
BRANCH  18  20
HETATM   20  N   UNL     1      -8.195   8.555  66.903  1.00  0.00    -0.105 NA 
HETATM   21  C   UNL     1      -8.411  10.003  66.815  1.00  0.00    -0.125 C  
HETATM   22  C   UNL     1      -7.684  10.571  65.571  1.00  0.00    -0.127 C  
HETATM   23  N   UNL     1      -7.969   9.893  64.287  1.00  0.00    -0.140 NA 
HETATM   24  C   UNL     1      -7.771   8.434  64.464  1.00  0.00    -0.121 C  
HETATM   25  C   UNL     1      -9.315  10.198  63.811  1.00  0.00    -0.288 C  
HETATM   26  C   UNL     1      -8.523   7.813  65.668  1.00  0.00    -0.141 C  
ENDBRANCH  18  20
TORSDOF 1
ENDMDL
MODEL       91
REMARK 921   NORMALIZED FREE ENERGY PREDICTED BY IDOCK:   -3.43 KCAL/MOL
REMARK 922        TOTAL FREE ENERGY PREDICTED BY IDOCK:   -4.03 KCAL/MOL
REMARK 923 INTER-LIGAND FREE ENERGY PREDICTED BY IDOCK:   -3.61 KCAL/MOL
REMARK 924 INTRA-LIGAND FREE ENERGY PREDICTED BY IDOCK:   -0.42 KCAL/MOL
REMARK 927      BINDING AFFINITY PREDICTED BY RF-SCORE:    0.00 PKD
ROOT
HETATM    1  C   UNL     1     -11.912   8.822  72.311  1.00  0.00    -0.415 C  
HETATM    2  C   UNL     1     -11.610   8.076  71.009  1.00  0.00    -0.283 C  
HETATM    3  C   UNL     1     -11.188   9.022  69.882  1.00  0.00    -0.079 C  
HETATM    4  O   UNL     1      -9.822   9.420  69.901  1.00  0.00    -0.184 OA 
HETATM    5  C   UNL     1      -8.916   8.401  70.096  1.00  0.00    -0.142 A  
HETATM    6  C   UNL     1      -9.300   7.235  70.806  1.00  0.00    -0.160 A  
HETATM    7  N   UNL     1     -10.627   7.011  71.245  1.00  0.00    -0.218 NA 
HETATM    8  C   UNL     1     -10.915   5.868  71.981  1.00  0.00    -0.266 C  
HETATM    9  C   UNL     1     -10.049   4.906  72.333  1.00  0.00    -0.240 C  
HETATM   10  C   UNL     1      -8.655   5.076  71.879  1.00  0.00    -0.129 C  
HETATM   11  C   UNL     1     -10.514   3.771  73.153  1.00  0.00    -0.176 C  
HETATM   12  C   UNL     1      -8.312   6.272  71.079  1.00  0.00    -0.124 A  
HETATM   13  O   UNL     1     -11.672   3.630  73.515  1.00  0.00    -0.115 OA 
HETATM   14  O   UNL     1      -9.544   2.892  73.489  1.00  0.00    -0.093 OA 
HETATM   15  O   UNL     1      -7.806   4.238  72.180  1.00  0.00    -0.078 OA 
HETATM   16  C   UNL     1      -7.001   6.433  70.647  1.00  0.00    -0.064 A  
HETATM   17  C   UNL     1      -6.659   7.567  69.928  1.00  0.00    -0.039 A  
HETATM   18  C   UNL     1      -7.586   8.589  69.615  1.00  0.00    -0.088 A  
HETATM   19  F   UNL     1      -5.363   7.695  69.594  1.00  0.00    -0.021 F  
ENDROOT
BRANCH  18  20
HETATM   20  N   UNL     1      -7.154   9.714  68.916  1.00  0.00    -0.066 NA 
HETATM   21  C   UNL     1      -6.857   9.692  67.480  1.00  0.00    -0.082 C  
HETATM   22  C   UNL     1      -7.297  11.026  66.829  1.00  0.00    -0.139 C  
HETATM   23  N   UNL     1      -6.796  12.260  67.475  1.00  0.00    -0.121 NA 
HETATM   24  C   UNL     1      -7.094  12.191  68.926  1.00  0.00    -0.098 C  
HETATM   25  C   UNL     1      -5.370  12.449  67.228  1.00  0.00    -0.072 C  
HETATM   26  C   UNL     1      -6.625  10.894  69.631  1.00  0.00    -0.123 C  
ENDBRANCH  18  20
TORSDOF 1
ENDMDL
MODEL       92
REMARK 921   NORMALIZED FREE ENERGY PREDICTED BY IDOCK:   -3.38 KCAL/MOL
REMARK 922        TOTAL FREE ENERGY PREDICTED BY IDOCK:   -3.98 KCAL/MOL
REMARK 923 INTER-LIGAND FREE ENERGY PREDICTED BY IDOCK:   -3.60 KCAL/MOL
REMARK 924 INTRA-LIGAND FREE ENERGY PREDICTED BY IDOCK:   -0.38 KCAL/MOL
REMARK 927      BINDING AFFINITY PREDICTED BY RF-SCORE:    0.00 PKD
ROOT
HETATM    1  C   UNL     1     -10.708  10.985  69.579  1.00  0.00    -0.231 C  
HETATM    2  C   UNL     1     -11.053   9.787  68.690  1.00  0.00    -0.093 C  
HETATM    3  C   UNL     1     -10.740  10.050  67.214  1.00  0.00    -0.244 C  
HETATM    4  O   UNL     1      -9.381   9.861  66.838  1.00  0.00    -0.147 OA 
HETATM    5  C   UNL     1      -8.800   8.700  67.299  1.00  0.00    -0.133 A  
HETATM    6  C   UNL     1      -9.272   8.093  68.491  1.00  0.00    -0.136 A  
HETATM    7  N   UNL     1     -10.404   8.571  69.194  1.00  0.00    -0.216 NA 
HETATM    8  C   UNL     1     -10.775   7.956  70.383  1.00  0.00    -0.233 C  
HETATM    9  C   UNL     1     -10.165   6.913  70.965  1.00  0.00    -0.213 C  
HETATM   10  C   UNL     1      -8.992   6.357  70.262  1.00  0.00    -0.154 C  
HETATM   11  C   UNL     1     -10.667   6.401  72.256  1.00  0.00    -0.222 C  
HETATM   12  C   UNL     1      -8.577   6.975  68.983  1.00  0.00    -0.129 A  
HETATM   13  O   UNL     1     -11.646   6.858  72.826  1.00  0.00    -0.199 OA 
HETATM   14  O   UNL     1      -9.944   5.383  72.772  1.00  0.00    -0.166 OA 
HETATM   15  O   UNL     1      -8.378   5.409  70.749  1.00  0.00    -0.112 OA 
HETATM   16  C   UNL     1      -7.475   6.451  68.317  1.00  0.00    -0.091 A  
HETATM   17  C   UNL     1      -7.054   7.044  67.137  1.00  0.00    -0.083 A  
HETATM   18  C   UNL     1      -7.688   8.176  66.574  1.00  0.00    -0.093 A  
HETATM   19  F   UNL     1      -5.945   6.533  66.574  1.00  0.00    -0.024 F  
ENDROOT
BRANCH  18  20
HETATM   20  N   UNL     1      -7.182   8.732  65.402  1.00  0.00    -0.083 NA 
HETATM   21  C   UNL     1      -6.269   9.881  65.397  1.00  0.00    -0.087 C  
HETATM   22  C   UNL     1      -5.224   9.720  64.266  1.00  0.00    -0.066 C  
HETATM   23  N   UNL     1      -5.765   9.441  62.916  1.00  0.00    -0.084 NA 
HETATM   24  C   UNL     1      -6.707   8.299  63.009  1.00  0.00    -0.086 C  
HETATM   25  C   UNL     1      -6.406  10.621  62.345  1.00  0.00    -0.131 C  
HETATM   26  C   UNL     1      -7.803   8.441  64.093  1.00  0.00    -0.145 C  
ENDBRANCH  18  20
TORSDOF 1
ENDMDL
MODEL       93
REMARK 921   NORMALIZED FREE ENERGY PREDICTED BY IDOCK:   -3.37 KCAL/MOL
REMARK 922        TOTAL FREE ENERGY PREDICTED BY IDOCK:   -3.97 KCAL/MOL
REMARK 923 INTER-LIGAND FREE ENERGY PREDICTED BY IDOCK:   -3.55 KCAL/MOL
REMARK 924 INTRA-LIGAND FREE ENERGY PREDICTED BY IDOCK:   -0.41 KCAL/MOL
REMARK 927      BINDING AFFINITY PREDICTED BY RF-SCORE:    0.00 PKD
ROOT
HETATM    1  C   UNL     1     -11.160   7.218  70.460  1.00  0.00    -0.290 C  
HETATM    2  C   UNL     1     -10.123   7.316  69.338  1.00  0.00    -0.183 C  
HETATM    3  C   UNL     1     -10.555   8.283  68.233  1.00  0.00    -0.103 C  
HETATM    4  O   UNL     1     -10.308   9.659  68.499  1.00  0.00    -0.190 OA 
HETATM    5  C   UNL     1      -9.053   9.947  68.987  1.00  0.00    -0.164 A  
HETATM    6  C   UNL     1      -8.333   8.969  69.719  1.00  0.00    -0.129 A  
HETATM    7  N   UNL     1      -8.803   7.644  69.888  1.00  0.00    -0.143 NA 
HETATM    8  C   UNL     1      -8.066   6.756  70.662  1.00  0.00    -0.119 C  
HETATM    9  C   UNL     1      -6.909   7.014  71.288  1.00  0.00    -0.060 C  
HETATM   10  C   UNL     1      -6.359   8.374  71.126  1.00  0.00    -0.039 C  
HETATM   11  C   UNL     1      -6.272   5.963  72.107  1.00  0.00    -0.041 C  
HETATM   12  C   UNL     1      -7.106   9.344  70.295  1.00  0.00    -0.097 A  
HETATM   13  O   UNL     1      -6.726   4.835  72.227  1.00  0.00    -0.043 OA 
HETATM   14  O   UNL     1      -5.139   6.352  72.731  1.00  0.00    -0.029 OA 
HETATM   15  O   UNL     1      -5.308   8.682  71.686  1.00  0.00    -0.034 OA 
HETATM   16  C   UNL     1      -6.589  10.624  70.137  1.00  0.00    -0.151 A  
HETATM   17  C   UNL     1      -7.298  11.552  69.391  1.00  0.00     0.053 A  
HETATM   18  C   UNL     1      -8.543  11.264  68.783  1.00  0.00    -0.108 A  
HETATM   19  F   UNL     1      -6.779  12.791  69.327  1.00  0.00    -0.101 F  
ENDROOT
BRANCH  18  20
HETATM   20  N   UNL     1      -9.207  12.264  68.077  1.00  0.00    -0.190 NA 
HETATM   21  C   UNL     1      -8.961  12.532  66.656  1.00  0.00    -0.174 C  
HETATM   22  C   UNL     1     -10.284  12.923  65.954  1.00  0.00    -0.290 C  
HETATM   23  N   UNL     1     -11.062  14.009  66.592  1.00  0.00    -0.304 NA 
HETATM   24  C   UNL     1     -11.234  13.689  68.030  1.00  0.00    -0.267 C  
HETATM   25  C   UNL     1     -10.418  15.305  66.403  1.00  0.00    -0.303 C  
HETATM   26  C   UNL     1      -9.927  13.343  68.785  1.00  0.00    -0.054 C  
ENDBRANCH  18  20
TORSDOF 1
ENDMDL
MODEL       94
REMARK 921   NORMALIZED FREE ENERGY PREDICTED BY IDOCK:   -3.11 KCAL/MOL
REMARK 922        TOTAL FREE ENERGY PREDICTED BY IDOCK:   -3.69 KCAL/MOL
REMARK 923 INTER-LIGAND FREE ENERGY PREDICTED BY IDOCK:   -3.32 KCAL/MOL
REMARK 924 INTRA-LIGAND FREE ENERGY PREDICTED BY IDOCK:   -0.38 KCAL/MOL
REMARK 927      BINDING AFFINITY PREDICTED BY RF-SCORE:    0.00 PKD
ROOT
HETATM    1  C   UNL     1      -5.587   7.241  70.971  1.00  0.00    -0.027 C  
HETATM    2  C   UNL     1      -7.076   6.884  70.998  1.00  0.00    -0.071 C  
HETATM    3  C   UNL     1      -7.957   8.094  71.317  1.00  0.00    -0.099 C  
HETATM    4  O   UNL     1      -8.243   8.945  70.213  1.00  0.00    -0.104 OA 
HETATM    5  C   UNL     1      -8.634   8.300  69.060  1.00  0.00    -0.135 A  
HETATM    6  C   UNL     1      -8.206   6.973  68.808  1.00  0.00    -0.122 A  
HETATM    7  N   UNL     1      -7.466   6.218  69.750  1.00  0.00    -0.079 NA 
HETATM    8  C   UNL     1      -7.036   4.941  69.410  1.00  0.00    -0.055 C  
HETATM    9  C   UNL     1      -7.256   4.308  68.248  1.00  0.00    -0.060 C  
HETATM   10  C   UNL     1      -8.045   5.040  67.237  1.00  0.00    -0.107 C  
HETATM   11  C   UNL     1      -6.694   2.961  68.033  1.00  0.00    -0.037 C  
HETATM   12  C   UNL     1      -8.535   6.396  67.569  1.00  0.00    -0.116 A  
HETATM   13  O   UNL     1      -6.052   2.356  68.878  1.00  0.00    -0.024 OA 
HETATM   14  O   UNL     1      -6.936   2.444  66.808  1.00  0.00    -0.046 OA 
HETATM   15  O   UNL     1      -8.271   4.523  66.144  1.00  0.00    -0.106 OA 
HETATM   16  C   UNL     1      -9.281   7.086  66.620  1.00  0.00    -0.189 A  
HETATM   17  C   UNL     1      -9.715   8.371  66.905  1.00  0.00    -0.227 A  
HETATM   18  C   UNL     1      -9.423   9.031  68.122  1.00  0.00    -0.142 A  
HETATM   19  F   UNL     1     -10.377   9.010  65.924  1.00  0.00    -0.344 F  
ENDROOT
BRANCH  18  20
HETATM   20  N   UNL     1      -9.868  10.336  68.316  1.00  0.00    -0.144 NA 
HETATM   21  C   UNL     1      -9.013  11.508  68.099  1.00  0.00    -0.172 C  
HETATM   22  C   UNL     1      -9.846  12.667  67.498  1.00  0.00    -0.203 C  
HETATM   23  N   UNL     1     -11.088  13.018  68.223  1.00  0.00    -0.249 NA 
HETATM   24  C   UNL     1     -11.877  11.782  68.441  1.00  0.00    -0.282 C  
HETATM   25  C   UNL     1     -10.794  13.698  69.481  1.00  0.00     0.079 C  
HETATM   26  C   UNL     1     -11.096  10.612  69.091  1.00  0.00    -0.255 C  
ENDBRANCH  18  20
TORSDOF 1
ENDMDL
MODEL       95
REMARK 921   NORMALIZED FREE ENERGY PREDICTED BY IDOCK:   -2.87 KCAL/MOL
REMARK 922        TOTAL FREE ENERGY PREDICTED BY IDOCK:   -3.44 KCAL/MOL
REMARK 923 INTER-LIGAND FREE ENERGY PREDICTED BY IDOCK:   -3.03 KCAL/MOL
REMARK 924 INTRA-LIGAND FREE ENERGY PREDICTED BY IDOCK:   -0.41 KCAL/MOL
REMARK 927      BINDING AFFINITY PREDICTED BY RF-SCORE:    0.00 PKD
ROOT
HETATM    1  C   UNL     1     -12.317  11.164  69.704  1.00  0.00    -0.287 C  
HETATM    2  C   UNL     1     -12.089  11.528  68.234  1.00  0.00    -0.002 C  
HETATM    3  C   UNL     1     -11.776  13.015  68.047  1.00  0.00    -0.355 C  
HETATM    4  O   UNL     1     -10.424  13.387  68.285  1.00  0.00    -0.237 OA 
HETATM    5  C   UNL     1      -9.479  12.574  67.699  1.00  0.00    -0.188 A  
HETATM    6  C   UNL     1      -9.779  11.214  67.431  1.00  0.00    -0.173 A  
HETATM    7  N   UNL     1     -11.064  10.660  67.644  1.00  0.00    -0.314 NA 
HETATM    8  C   UNL     1     -11.267   9.306  67.407  1.00  0.00     0.519 C  
HETATM    9  C   UNL     1     -10.352   8.425  66.975  1.00  0.00    -0.385 C  
HETATM   10  C   UNL     1      -9.000   8.954  66.713  1.00  0.00    -0.130 C  
HETATM   11  C   UNL     1     -10.725   7.006  66.812  1.00  0.00    -0.212 C  
HETATM   12  C   UNL     1      -8.748  10.395  66.937  1.00  0.00    -0.130 A  
HETATM   13  O   UNL     1     -11.851   6.578  67.019  1.00  0.00     0.595 OA 
HETATM   14  O   UNL     1      -9.711   6.204  66.422  1.00  0.00    -0.160 OA 
HETATM   15  O   UNL     1      -8.109   8.197  66.329  1.00  0.00    -0.100 OA 
HETATM   16  C   UNL     1      -7.476  10.897  66.687  1.00  0.00    -0.139 A  
HETATM   17  C   UNL     1      -7.218  12.237  66.928  1.00  0.00     0.047 A  
HETATM   18  C   UNL     1      -8.192  13.130  67.432  1.00  0.00    -0.187 A  
HETATM   19  F   UNL     1      -5.954  12.648  66.728  1.00  0.00    -0.061 F  
ENDROOT
BRANCH  18  20
HETATM   20  N   UNL     1      -7.843  14.456  67.678  1.00  0.00    -0.166 NA 
HETATM   21  C   UNL     1      -7.922  15.502  66.653  1.00  0.00    -0.099 C  
HETATM   22  C   UNL     1      -8.378  16.836  67.292  1.00  0.00    -0.177 C  
HETATM   23  N   UNL     1      -7.612  17.284  68.477  1.00  0.00    -0.241 NA 
HETATM   24  C   UNL     1      -7.540  16.164  69.447  1.00  0.00    -0.161 C  
HETATM   25  C   UNL     1      -6.283  17.758  68.103  1.00  0.00    -0.173 C  
HETATM   26  C   UNL     1      -7.037  14.821  68.861  1.00  0.00    -0.118 C  
ENDBRANCH  18  20
TORSDOF 1
ENDMDL
MODEL       96
REMARK 921   NORMALIZED FREE ENERGY PREDICTED BY IDOCK:   -2.61 KCAL/MOL
REMARK 922        TOTAL FREE ENERGY PREDICTED BY IDOCK:   -3.16 KCAL/MOL
REMARK 923 INTER-LIGAND FREE ENERGY PREDICTED BY IDOCK:   -4.01 KCAL/MOL
REMARK 924 INTRA-LIGAND FREE ENERGY PREDICTED BY IDOCK:    0.85 KCAL/MOL
REMARK 927      BINDING AFFINITY PREDICTED BY RF-SCORE:    0.00 PKD
ROOT
HETATM    1  C   UNL     1     -10.556  10.906  69.544  1.00  0.00    -0.217 C  
HETATM    2  C   UNL     1      -9.281  11.391  68.849  1.00  0.00    -0.023 C  
HETATM    3  C   UNL     1      -8.465  10.236  68.261  1.00  0.00    -0.121 C  
HETATM    4  O   UNL     1      -8.905   9.766  66.993  1.00  0.00    -0.133 OA 
HETATM    5  C   UNL     1      -9.172  10.746  66.063  1.00  0.00    -0.187 A  
HETATM    6  C   UNL     1      -9.567  12.040  66.487  1.00  0.00    -0.224 A  
HETATM    7  N   UNL     1      -9.600  12.418  67.851  1.00  0.00    -0.198 NA 
HETATM    8  C   UNL     1     -10.048  13.689  68.193  1.00  0.00    -0.245 C  
HETATM    9  C   UNL     1     -10.463  14.643  67.346  1.00  0.00    -0.255 C  
HETATM   10  C   UNL     1     -10.425  14.311  65.909  1.00  0.00    -0.307 C  
HETATM   11  C   UNL     1     -10.946  15.932  67.879  1.00  0.00    -0.327 C  
HETATM   12  C   UNL     1      -9.938  12.974  65.504  1.00  0.00    -0.226 A  
HETATM   13  O   UNL     1     -10.963  16.204  69.071  1.00  0.00    -0.271 OA 
HETATM   14  O   UNL     1     -11.386  16.795  66.938  1.00  0.00     0.267 OA 
HETATM   15  O   UNL     1     -10.805  15.136  65.079  1.00  0.00    -0.388 OA 
HETATM   16  C   UNL     1      -9.898  12.660  64.150  1.00  0.00    -0.074 A  
HETATM   17  C   UNL     1      -9.478  11.398  63.761  1.00  0.00    -0.171 A  
HETATM   18  C   UNL     1      -9.094  10.396  64.682  1.00  0.00    -0.222 A  
HETATM   19  F   UNL     1      -9.521  11.134  62.443  1.00  0.00    -0.304 F  
ENDROOT
BRANCH  18  20
HETATM   20  N   UNL     1      -8.716   9.141  64.209  1.00  0.00    -0.184 NA 
HETATM   21  C   UNL     1      -8.333   8.900  62.814  1.00  0.00    -0.201 C  
HETATM   22  C   UNL     1      -7.188   7.860  62.752  1.00  0.00    -0.090 C  
HETATM   23  N   UNL     1      -7.418   6.595  63.487  1.00  0.00    -0.073 NA 
HETATM   24  C   UNL     1      -7.840   6.919  64.871  1.00  0.00    -0.122 C  
HETATM   25  C   UNL     1      -8.401   5.757  62.807  1.00  0.00    -0.059 C  
HETATM   26  C   UNL     1      -9.020   7.917  64.979  1.00  0.00     0.347 C  
ENDBRANCH  18  20
TORSDOF 1
ENDMDL
MODEL       97
REMARK 921   NORMALIZED FREE ENERGY PREDICTED BY IDOCK:   -2.48 KCAL/MOL
REMARK 922        TOTAL FREE ENERGY PREDICTED BY IDOCK:   -3.02 KCAL/MOL
REMARK 923 INTER-LIGAND FREE ENERGY PREDICTED BY IDOCK:   -3.06 KCAL/MOL
REMARK 924 INTRA-LIGAND FREE ENERGY PREDICTED BY IDOCK:    0.03 KCAL/MOL
REMARK 927      BINDING AFFINITY PREDICTED BY RF-SCORE:    0.00 PKD
ROOT
HETATM    1  C   UNL     1     -10.523   7.279  73.859  1.00  0.00    -0.221 C  
HETATM    2  C   UNL     1      -9.398   7.918  73.039  1.00  0.00    -0.265 C  
HETATM    3  C   UNL     1      -8.206   6.976  72.856  1.00  0.00    -0.106 C  
HETATM    4  O   UNL     1      -8.341   6.020  71.812  1.00  0.00    -0.118 OA 
HETATM    5  C   UNL     1      -8.804   6.519  70.614  1.00  0.00    -0.144 A  
HETATM    6  C   UNL     1      -9.626   7.674  70.596  1.00  0.00    -0.163 A  
HETATM    7  N   UNL     1      -9.918   8.421  71.762  1.00  0.00    -0.216 NA 
HETATM    8  C   UNL     1     -10.774   9.512  71.673  1.00  0.00    -0.094 C  
HETATM    9  C   UNL     1     -11.376   9.965  70.564  1.00  0.00    -0.399 C  
HETATM   10  C   UNL     1     -11.087   9.238  69.312  1.00  0.00    -0.009 C  
HETATM   11  C   UNL     1     -12.292  11.120  70.650  1.00  0.00    -0.388 C  
HETATM   12  C   UNL     1     -10.166   8.081  69.363  1.00  0.00    -0.210 A  
HETATM   13  O   UNL     1     -12.517  11.725  71.687  1.00  0.00    -0.178 OA 
HETATM   14  O   UNL     1     -12.879  11.455  69.480  1.00  0.00     0.013 OA 
HETATM   15  O   UNL     1     -11.618   9.592  68.260  1.00  0.00     0.202 OA 
HETATM   16  C   UNL     1      -9.890   7.396  68.185  1.00  0.00    -0.174 A  
HETATM   17  C   UNL     1      -9.058   6.289  68.227  1.00  0.00    -0.113 A  
HETATM   18  C   UNL     1      -8.477   5.805  69.423  1.00  0.00    -0.112 A  
HETATM   19  F   UNL     1      -8.879   5.632  67.067  1.00  0.00    -0.114 F  
ENDROOT
BRANCH  18  20
HETATM   20  N   UNL     1      -7.678   4.665  69.383  1.00  0.00    -0.059 NA 
HETATM   21  C   UNL     1      -8.191   3.349  68.988  1.00  0.00    -0.060 C  
HETATM   22  C   UNL     1      -7.114   2.582  68.181  1.00  0.00    -0.048 C  
HETATM   23  N   UNL     1      -5.778   2.486  68.810  1.00  0.00    -0.022 NA 
HETATM   24  C   UNL     1      -5.346   3.844  69.220  1.00  0.00    -0.012 C  
HETATM   25  C   UNL     1      -5.787   1.562  69.941  1.00  0.00    -0.018 C  
HETATM   26  C   UNL     1      -6.373   4.628  70.074  1.00  0.00    -0.030 C  
ENDBRANCH  18  20
TORSDOF 1
ENDMDL
MODEL       98
REMARK 921   NORMALIZED FREE ENERGY PREDICTED BY IDOCK:   -2.29 KCAL/MOL
REMARK 922        TOTAL FREE ENERGY PREDICTED BY IDOCK:   -2.82 KCAL/MOL
REMARK 923 INTER-LIGAND FREE ENERGY PREDICTED BY IDOCK:   -2.44 KCAL/MOL
REMARK 924 INTRA-LIGAND FREE ENERGY PREDICTED BY IDOCK:   -0.39 KCAL/MOL
REMARK 927      BINDING AFFINITY PREDICTED BY RF-SCORE:    0.00 PKD
ROOT
HETATM    1  C   UNL     1      -9.186   9.755  64.615  1.00  0.00    -0.312 C  
HETATM    2  C   UNL     1      -9.702   9.334  65.993  1.00  0.00    -0.289 C  
HETATM    3  C   UNL     1      -9.814   7.814  66.132  1.00  0.00     0.082 C  
HETATM    4  O   UNL     1      -8.600   7.141  66.447  1.00  0.00    -0.122 OA 
HETATM    5  C   UNL     1      -7.862   7.707  67.463  1.00  0.00    -0.119 A  
HETATM    6  C   UNL     1      -7.962   9.097  67.725  1.00  0.00    -0.101 A  
HETATM    7  N   UNL     1      -8.883   9.936  67.052  1.00  0.00    -0.134 NA 
HETATM    8  C   UNL     1      -8.887  11.298  67.327  1.00  0.00    -0.150 C  
HETATM    9  C   UNL     1      -8.093  11.938  68.198  1.00  0.00    -0.155 C  
HETATM   10  C   UNL     1      -7.130  11.108  68.947  1.00  0.00    -0.101 C  
HETATM   11  C   UNL     1      -8.201  13.403  68.343  1.00  0.00    -0.139 C  
HETATM   12  C   UNL     1      -7.107   9.650  68.694  1.00  0.00    -0.072 A  
HETATM   13  O   UNL     1      -9.009  14.083  67.728  1.00  0.00    -0.170 OA 
HETATM   14  O   UNL     1      -7.318  13.945  69.210  1.00  0.00    -0.063 OA 
HETATM   15  O   UNL     1      -6.362  11.634  69.751  1.00  0.00    -0.122 OA 
HETATM   16  C   UNL     1      -6.204   8.865  69.401  1.00  0.00    -0.041 A  
HETATM   17  C   UNL     1      -6.147   7.504  69.147  1.00  0.00    -0.034 A  
HETATM   18  C   UNL     1      -6.964   6.865  68.185  1.00  0.00    -0.080 A  
HETATM   19  F   UNL     1      -5.210   6.809  69.816  1.00  0.00    -0.013 F  
ENDROOT
BRANCH  18  20
HETATM   20  N   UNL     1      -6.822   5.497  67.966  1.00  0.00    -0.058 NA 
HETATM   21  C   UNL     1      -7.248   4.488  68.942  1.00  0.00    -0.052 C  
HETATM   22  C   UNL     1      -7.827   3.254  68.207  1.00  0.00    -0.059 C  
HETATM   23  N   UNL     1      -6.975   2.670  67.147  1.00  0.00    -0.048 NA 
HETATM   24  C   UNL     1      -6.551   3.752  66.228  1.00  0.00    -0.038 C  
HETATM   25  C   UNL     1      -5.829   1.966  67.715  1.00  0.00    -0.019 C  
HETATM   26  C   UNL     1      -5.916   4.986  66.916  1.00  0.00    -0.026 C  
ENDBRANCH  18  20
TORSDOF 1
ENDMDL
MODEL       99
REMARK 921   NORMALIZED FREE ENERGY PREDICTED BY IDOCK:   -2.09 KCAL/MOL
REMARK 922        TOTAL FREE ENERGY PREDICTED BY IDOCK:   -2.62 KCAL/MOL
REMARK 923 INTER-LIGAND FREE ENERGY PREDICTED BY IDOCK:   -3.61 KCAL/MOL
REMARK 924 INTRA-LIGAND FREE ENERGY PREDICTED BY IDOCK:    0.99 KCAL/MOL
REMARK 927      BINDING AFFINITY PREDICTED BY RF-SCORE:    0.00 PKD
ROOT
HETATM    1  C   UNL     1     -11.727   9.255  70.393  1.00  0.00    -0.157 C  
HETATM    2  C   UNL     1     -11.134   9.271  68.981  1.00  0.00     0.052 C  
HETATM    3  C   UNL     1     -11.491  10.548  68.217  1.00  0.00    -0.199 C  
HETATM    4  O   UNL     1     -10.676  11.678  68.507  1.00  0.00    -0.199 OA 
HETATM    5  C   UNL     1      -9.320  11.436  68.520  1.00  0.00    -0.180 A  
HETATM    6  C   UNL     1      -8.832  10.142  68.831  1.00  0.00    -0.154 A  
HETATM    7  N   UNL     1      -9.687   9.032  69.030  1.00  0.00    -0.164 NA 
HETATM    8  C   UNL     1      -9.137   7.805  69.383  1.00  0.00    -0.146 C  
HETATM    9  C   UNL     1      -7.835   7.535  69.556  1.00  0.00    -0.120 C  
HETATM   10  C   UNL     1      -6.895   8.652  69.336  1.00  0.00    -0.049 C  
HETATM   11  C   UNL     1      -7.419   6.181  69.971  1.00  0.00    -0.087 C  
HETATM   12  C   UNL     1      -7.441   9.969  68.943  1.00  0.00    -0.083 A  
HETATM   13  O   UNL     1      -8.202   5.258  70.139  1.00  0.00    -0.088 OA 
HETATM   14  O   UNL     1      -6.089   6.041  70.165  1.00  0.00    -0.024 OA 
HETATM   15  O   UNL     1      -5.687   8.476  69.493  1.00  0.00    -0.030 OA 
HETATM   16  C   UNL     1      -6.558  11.022  68.731  1.00  0.00    -0.061 A  
HETATM   17  C   UNL     1      -7.060  12.270  68.398  1.00  0.00    -0.094 A  
HETATM   18  C   UNL     1      -8.444  12.535  68.272  1.00  0.00    -0.165 A  
HETATM   19  F   UNL     1      -6.161  13.261  68.269  1.00  0.00    -0.066 F  
ENDROOT
BRANCH  18  20
HETATM   20  N   UNL     1      -8.868  13.826  67.966  1.00  0.00    -0.174 NA 
HETATM   21  C   UNL     1      -8.071  15.018  68.273  1.00  0.00    -0.133 C  
HETATM   22  C   UNL     1      -8.231  16.066  67.145  1.00  0.00    -0.195 C  
HETATM   23  N   UNL     1      -9.621  16.414  66.775  1.00  0.00    -0.238 NA 
HETATM   24  C   UNL     1     -10.373  15.162  66.521  1.00  0.00    -0.282 C  
HETATM   25  C   UNL     1     -10.259  17.225  67.807  1.00  0.00    -0.332 C  
HETATM   26  C   UNL     1     -10.284  14.104  67.648  1.00  0.00    -0.241 C  
ENDBRANCH  18  20
TORSDOF 1
ENDMDL
MODEL      100
REMARK 921   NORMALIZED FREE ENERGY PREDICTED BY IDOCK:   -2.07 KCAL/MOL
REMARK 922        TOTAL FREE ENERGY PREDICTED BY IDOCK:   -2.60 KCAL/MOL
REMARK 923 INTER-LIGAND FREE ENERGY PREDICTED BY IDOCK:   -2.85 KCAL/MOL
REMARK 924 INTRA-LIGAND FREE ENERGY PREDICTED BY IDOCK:    0.25 KCAL/MOL
REMARK 927      BINDING AFFINITY PREDICTED BY RF-SCORE:    0.00 PKD
ROOT
HETATM    1  C   UNL     1     -10.949  19.576  67.320  1.00  0.00    -0.460 C  
HETATM    2  C   UNL     1     -10.883  18.430  68.333  1.00  0.00     0.184 C  
HETATM    3  C   UNL     1     -11.757  17.242  67.923  1.00  0.00     1.023 C  
HETATM    4  O   UNL     1     -11.173  16.357  66.974  1.00  0.00    -0.024 OA 
HETATM    5  C   UNL     1      -9.873  15.985  67.240  1.00  0.00    -0.236 A  
HETATM    6  C   UNL     1      -9.027  16.843  67.987  1.00  0.00    -0.224 A  
HETATM    7  N   UNL     1      -9.489  18.043  68.578  1.00  0.00    -0.311 NA 
HETATM    8  C   UNL     1      -8.588  18.859  69.252  1.00  0.00     0.117 C  
HETATM    9  C   UNL     1      -7.277  18.630  69.422  1.00  0.00    -0.066 C  
HETATM   10  C   UNL     1      -6.746  17.378  68.846  1.00  0.00    -0.226 C  
HETATM   11  C   UNL     1      -6.449  19.622  70.135  1.00  0.00    -0.202 C  
HETATM   12  C   UNL     1      -7.678  16.475  68.136  1.00  0.00    -0.167 A  
HETATM   13  O   UNL     1      -6.897  20.650  70.619  1.00  0.00    -0.078 OA 
HETATM   14  O   UNL     1      -5.136  19.310  70.200  1.00  0.00    -0.186 OA 
HETATM   15  O   UNL     1      -5.549  17.114  68.954  1.00  0.00    -0.140 OA 
HETATM   16  C   UNL     1      -7.182  15.295  67.596  1.00  0.00    -0.204 A  
HETATM   17  C   UNL     1      -8.037  14.458  66.897  1.00  0.00     0.054 A  
HETATM   18  C   UNL     1      -9.406  14.753  66.692  1.00  0.00    -0.268 A  
HETATM   19  F   UNL     1      -7.485  13.364  66.345  1.00  0.00     0.584 F  
ENDROOT
BRANCH  18  20
HETATM   20  N   UNL     1     -10.191  13.875  65.949  1.00  0.00    -0.306 NA 
HETATM   21  C   UNL     1     -10.073  12.417  66.057  1.00  0.00    -0.251 C  
HETATM   22  C   UNL     1     -11.470  11.762  65.930  1.00  0.00    -0.207 C  
HETATM   23  N   UNL     1     -12.271  12.164  64.752  1.00  0.00    -0.346 NA 
HETATM   24  C   UNL     1     -12.310  13.644  64.685  1.00  0.00    -0.371 C  
HETATM   25  C   UNL     1     -11.735  11.584  63.523  1.00  0.00    -0.143 C  
HETATM   26  C   UNL     1     -10.928  14.340  64.755  1.00  0.00    -0.398 C  
ENDBRANCH  18  20
TORSDOF 1
ENDMDL
MODEL      101
REMARK 921   NORMALIZED FREE ENERGY PREDICTED BY IDOCK:   -1.74 KCAL/MOL
REMARK 922        TOTAL FREE ENERGY PREDICTED BY IDOCK:   -2.24 KCAL/MOL
REMARK 923 INTER-LIGAND FREE ENERGY PREDICTED BY IDOCK:   -2.13 KCAL/MOL
REMARK 924 INTRA-LIGAND FREE ENERGY PREDICTED BY IDOCK:   -0.11 KCAL/MOL
REMARK 927      BINDING AFFINITY PREDICTED BY RF-SCORE:    0.00 PKD
ROOT
HETATM    1  C   UNL     1     -11.431   7.061  67.422  1.00  0.00     0.350 C  
HETATM    2  C   UNL     1      -9.942   7.208  67.094  1.00  0.00    -0.209 C  
HETATM    3  C   UNL     1      -9.188   8.004  68.163  1.00  0.00    -0.133 C  
HETATM    4  O   UNL     1      -8.800   7.262  69.313  1.00  0.00    -0.136 OA 
HETATM    5  C   UNL     1      -8.213   6.043  69.055  1.00  0.00    -0.108 A  
HETATM    6  C   UNL     1      -8.521   5.343  67.861  1.00  0.00    -0.098 A  
HETATM    7  N   UNL     1      -9.341   5.893  66.845  1.00  0.00    -0.125 NA 
HETATM    8  C   UNL     1      -9.641   5.126  65.726  1.00  0.00    -0.122 C  
HETATM    9  C   UNL     1      -9.221   3.876  65.479  1.00  0.00    -0.151 C  
HETATM   10  C   UNL     1      -8.343   3.263  66.494  1.00  0.00    -0.103 C  
HETATM   11  C   UNL     1      -9.666   3.186  64.253  1.00  0.00    -0.156 C  
HETATM   12  C   UNL     1      -7.986   4.054  67.693  1.00  0.00    -0.090 A  
HETATM   13  O   UNL     1     -10.384   3.704  63.410  1.00  0.00    -0.187 OA 
HETATM   14  O   UNL     1      -9.223   1.915  64.136  1.00  0.00    -0.107 OA 
HETATM   15  O   UNL     1      -7.934   2.113  66.337  1.00  0.00    -0.074 OA 
HETATM   16  C   UNL     1      -7.156   3.480  68.648  1.00  0.00    -0.050 A  
HETATM   17  C   UNL     1      -6.845   4.198  69.792  1.00  0.00    -0.041 A  
HETATM   18  C   UNL     1      -7.344   5.497  70.047  1.00  0.00    -0.069 A  
HETATM   19  F   UNL     1      -6.090   3.566  70.707  1.00  0.00    -0.016 F  
ENDROOT
BRANCH  18  20
HETATM   20  N   UNL     1      -7.010   6.137  71.238  1.00  0.00    -0.070 NA 
HETATM   21  C   UNL     1      -8.016   6.634  72.183  1.00  0.00    -0.097 C  
HETATM   22  C   UNL     1      -7.522   6.432  73.636  1.00  0.00    -0.089 C  
HETATM   23  N   UNL     1      -6.173   6.956  73.943  1.00  0.00    -0.063 NA 
HETATM   24  C   UNL     1      -5.222   6.446  72.925  1.00  0.00    -0.036 C  
HETATM   25  C   UNL     1      -6.169   8.415  73.998  1.00  0.00    -0.125 C  
HETATM   26  C   UNL     1      -5.651   6.675  71.455  1.00  0.00    -0.028 C  
ENDBRANCH  18  20
TORSDOF 1
ENDMDL
MODEL      102
REMARK 921   NORMALIZED FREE ENERGY PREDICTED BY IDOCK:   -1.50 KCAL/MOL
REMARK 922        TOTAL FREE ENERGY PREDICTED BY IDOCK:   -1.99 KCAL/MOL
REMARK 923 INTER-LIGAND FREE ENERGY PREDICTED BY IDOCK:   -1.61 KCAL/MOL
REMARK 924 INTRA-LIGAND FREE ENERGY PREDICTED BY IDOCK:   -0.38 KCAL/MOL
REMARK 927      BINDING AFFINITY PREDICTED BY RF-SCORE:    0.00 PKD
ROOT
HETATM    1  C   UNL     1      -7.762   8.453  66.505  1.00  0.00    -0.089 C  
HETATM    2  C   UNL     1      -6.537   7.644  66.939  1.00  0.00    -0.062 C  
HETATM    3  C   UNL     1      -6.289   7.732  68.447  1.00  0.00    -0.045 C  
HETATM    4  O   UNL     1      -7.076   6.854  69.244  1.00  0.00    -0.078 OA 
HETATM    5  C   UNL     1      -7.140   5.553  68.798  1.00  0.00    -0.065 A  
HETATM    6  C   UNL     1      -6.979   5.266  67.418  1.00  0.00    -0.065 A  
HETATM    7  N   UNL     1      -6.644   6.259  66.467  1.00  0.00    -0.047 NA 
HETATM    8  C   UNL     1      -6.555   5.911  65.124  1.00  0.00    -0.043 C  
HETATM    9  C   UNL     1      -6.749   4.691  64.602  1.00  0.00    -0.044 C  
HETATM   10  C   UNL     1      -7.077   3.611  65.553  1.00  0.00    -0.066 C  
HETATM   11  C   UNL     1      -6.653   4.498  63.142  1.00  0.00    -0.030 C  
HETATM   12  C   UNL     1      -7.164   3.939  66.993  1.00  0.00    -0.064 A  
HETATM   13  O   UNL     1      -6.369   5.395  62.361  1.00  0.00    -0.018 OA 
HETATM   14  O   UNL     1      -6.919   3.240  62.726  1.00  0.00    -0.030 OA 
HETATM   15  O   UNL     1      -7.282   2.470  65.139  1.00  0.00    -0.056 OA 
HETATM   16  C   UNL     1      -7.469   2.922  67.891  1.00  0.00    -0.057 A  
HETATM   17  C   UNL     1      -7.590   3.224  69.239  1.00  0.00    -0.048 A  
HETATM   18  C   UNL     1      -7.428   4.532  69.753  1.00  0.00    -0.051 A  
HETATM   19  F   UNL     1      -7.949   2.213  70.048  1.00  0.00    -0.042 F  
ENDROOT
BRANCH  18  20
HETATM   20  N   UNL     1      -7.599   4.758  71.117  1.00  0.00    -0.078 NA 
HETATM   21  C   UNL     1      -8.887   5.144  71.703  1.00  0.00    -0.134 C  
HETATM   22  C   UNL     1      -9.060   4.472  73.087  1.00  0.00    -0.118 C  
HETATM   23  N   UNL     1      -7.944   4.654  74.042  1.00  0.00    -0.100 NA 
HETATM   24  C   UNL     1      -6.676   4.285  73.367  1.00  0.00    -0.053 C  
HETATM   25  C   UNL     1      -7.901   6.020  74.556  1.00  0.00    -0.095 C  
HETATM   26  C   UNL     1      -6.436   4.975  72.001  1.00  0.00    -0.035 C  
ENDBRANCH  18  20
TORSDOF 1
ENDMDL
MODEL      103
REMARK 921   NORMALIZED FREE ENERGY PREDICTED BY IDOCK:   -0.43 KCAL/MOL
REMARK 922        TOTAL FREE ENERGY PREDICTED BY IDOCK:   -0.85 KCAL/MOL
REMARK 923 INTER-LIGAND FREE ENERGY PREDICTED BY IDOCK:   -0.42 KCAL/MOL
REMARK 924 INTRA-LIGAND FREE ENERGY PREDICTED BY IDOCK:   -0.43 KCAL/MOL
REMARK 927      BINDING AFFINITY PREDICTED BY RF-SCORE:    0.00 PKD
ROOT
HETATM    1  C   UNL     1      -5.130  14.400  70.923  1.00  0.00    -0.117 C  
HETATM    2  C   UNL     1      -6.619  14.072  71.056  1.00  0.00     0.560 C  
HETATM    3  C   UNL     1      -7.506  15.298  70.824  1.00  0.00     1.380 C  
HETATM    4  O   UNL     1      -7.759  15.616  69.461  1.00  0.00    -0.224 OA 
HETATM    5  C   UNL     1      -8.120  14.550  68.666  1.00  0.00    -0.150 A  
HETATM    6  C   UNL     1      -7.687  13.240  68.995  1.00  0.00     0.166 A  
HETATM    7  N   UNL     1      -6.976  12.947  70.183  1.00  0.00     0.605 NA 
HETATM    8  C   UNL     1      -6.540  11.648  70.411  1.00  0.00     0.488 C  
HETATM    9  C   UNL     1      -6.729  10.590  69.608  1.00  0.00    -0.108 C  
HETATM   10  C   UNL     1      -7.488  10.833  68.365  1.00  0.00    -0.095 C  
HETATM   11  C   UNL     1      -6.165   9.279  69.982  1.00  0.00    -0.043 C  
HETATM   12  C   UNL     1      -7.984  12.201  68.095  1.00  0.00    -0.151 A  
HETATM   13  O   UNL     1      -5.548   9.082  71.018  1.00  0.00    -0.033 OA 
HETATM   14  O   UNL     1      -6.374   8.301  69.073  1.00  0.00    -0.042 OA 
HETATM   15  O   UNL     1      -7.685   9.910  67.576  1.00  0.00    -0.091 OA 
HETATM   16  C   UNL     1      -8.702  12.432  66.927  1.00  0.00    -0.191 A  
HETATM   17  C   UNL     1      -9.139  13.716  66.645  1.00  0.00    -0.174 A  
HETATM   18  C   UNL     1      -8.880  14.821  67.490  1.00  0.00    -0.190 A  
HETATM   19  F   UNL     1      -9.773  13.888  65.472  1.00  0.00    -0.287 F  
ENDROOT
BRANCH  18  20
HETATM   20  N   UNL     1      -9.327  16.087  67.117  1.00  0.00    -0.209 NA 
HETATM   21  C   UNL     1     -10.710  16.532  67.318  1.00  0.00    -0.243 C  
HETATM   22  C   UNL     1     -10.732  18.033  67.699  1.00  0.00    -0.344 C  
HETATM   23  N   UNL     1      -9.986  18.942  66.801  1.00  0.00    -0.337 NA 
HETATM   24  C   UNL     1      -8.616  18.406  66.613  1.00  0.00    -0.278 C  
HETATM   25  C   UNL     1     -10.676  19.114  65.526  1.00  0.00    -0.071 C  
HETATM   26  C   UNL     1      -8.548  16.921  66.179  1.00  0.00    -0.242 C  
ENDBRANCH  18  20
TORSDOF 1
ENDMDL
MODEL      104
REMARK 921   NORMALIZED FREE ENERGY PREDICTED BY IDOCK:    0.00 KCAL/MOL
REMARK 922        TOTAL FREE ENERGY PREDICTED BY IDOCK:   -0.40 KCAL/MOL
REMARK 923 INTER-LIGAND FREE ENERGY PREDICTED BY IDOCK:   -0.48 KCAL/MOL
REMARK 924 INTRA-LIGAND FREE ENERGY PREDICTED BY IDOCK:    0.08 KCAL/MOL
REMARK 927      BINDING AFFINITY PREDICTED BY RF-SCORE:    0.00 PKD
ROOT
HETATM    1  C   UNL     1      -7.869  15.477  70.646  1.00  0.00     1.660 C  
HETATM    2  C   UNL     1      -8.648  15.357  69.334  1.00  0.00    -0.249 C  
HETATM    3  C   UNL     1      -7.839  14.652  68.242  1.00  0.00    -0.128 C  
HETATM    4  O   UNL     1      -7.843  13.230  68.305  1.00  0.00    -0.128 OA 
HETATM    5  C   UNL     1      -9.080  12.654  68.496  1.00  0.00    -0.052 A  
HETATM    6  C   UNL     1     -10.102  13.372  69.167  1.00  0.00     0.246 A  
HETATM    7  N   UNL     1      -9.950  14.721  69.567  1.00  0.00    -0.087 NA 
HETATM    8  C   UNL     1     -10.978  15.342  70.267  1.00  0.00    -0.289 C  
HETATM    9  C   UNL     1     -12.151  14.792  70.616  1.00  0.00    -0.374 C  
HETATM   10  C   UNL     1     -12.373  13.393  70.201  1.00  0.00    -0.252 C  
HETATM   11  C   UNL     1     -13.124  15.583  71.395  1.00  0.00    -0.507 C  
HETATM   12  C   UNL     1     -11.309  12.703  69.440  1.00  0.00    -0.273 A  
HETATM   13  O   UNL     1     -12.938  16.745  71.724  1.00  0.00     1.311 OA 
HETATM   14  O   UNL     1     -14.246  14.910  71.733  1.00  0.00    -0.439 OA 
HETATM   15  O   UNL     1     -13.422  12.824  70.502  1.00  0.00     0.644 OA 
HETATM   16  C   UNL     1     -11.517  11.387  69.046  1.00  0.00    -0.366 A  
HETATM   17  C   UNL     1     -10.513  10.718  68.364  1.00  0.00    -0.183 A  
HETATM   18  C   UNL     1      -9.265  11.310  68.054  1.00  0.00    -0.160 A  
HETATM   19  F   UNL     1     -10.749   9.429  68.065  1.00  0.00    -0.258 F  
ENDROOT
BRANCH  18  20
HETATM   20  N   UNL     1      -8.296  10.558  67.395  1.00  0.00    -0.121 NA 
HETATM   21  C   UNL     1      -6.899  10.500  67.837  1.00  0.00    -0.069 C  
HETATM   22  C   UNL     1      -6.332   9.076  67.614  1.00  0.00    -0.056 C  
HETATM   23  N   UNL     1      -6.504   8.513  66.256  1.00  0.00    -0.060 NA 
HETATM   24  C   UNL     1      -7.928   8.645  65.863  1.00  0.00    -0.105 C  
HETATM   25  C   UNL     1      -5.619   9.165  65.295  1.00  0.00    -0.049 C  
HETATM   26  C   UNL     1      -8.522  10.067  66.020  1.00  0.00    -0.131 C  
ENDBRANCH  18  20
TORSDOF 1
ENDMDL
MODEL      105
REMARK 921   NORMALIZED FREE ENERGY PREDICTED BY IDOCK:    0.06 KCAL/MOL
REMARK 922        TOTAL FREE ENERGY PREDICTED BY IDOCK:   -0.33 KCAL/MOL
REMARK 923 INTER-LIGAND FREE ENERGY PREDICTED BY IDOCK:    0.00 KCAL/MOL
REMARK 924 INTRA-LIGAND FREE ENERGY PREDICTED BY IDOCK:   -0.33 KCAL/MOL
REMARK 927      BINDING AFFINITY PREDICTED BY RF-SCORE:    0.00 PKD
ROOT
HETATM    1  C   UNL     1      -5.143   7.117  68.438  1.00  0.00    -0.019 C  
HETATM    2  C   UNL     1      -6.118   6.012  68.856  1.00  0.00    -0.031 C  
HETATM    3  C   UNL     1      -6.955   6.407  70.075  1.00  0.00    -0.066 C  
HETATM    4  O   UNL     1      -8.089   7.219  69.796  1.00  0.00    -0.123 OA 
HETATM    5  C   UNL     1      -8.867   6.799  68.739  1.00  0.00    -0.131 A  
HETATM    6  C   UNL     1      -8.289   6.046  67.686  1.00  0.00    -0.108 A  
HETATM    7  N   UNL     1      -6.945   5.602  67.715  1.00  0.00    -0.064 NA 
HETATM    8  C   UNL     1      -6.434   4.912  66.622  1.00  0.00    -0.041 C  
HETATM    9  C   UNL     1      -7.095   4.597  65.498  1.00  0.00    -0.064 C  
HETATM   10  C   UNL     1      -8.508   5.015  65.424  1.00  0.00    -0.138 C  
HETATM   11  C   UNL     1      -6.389   3.891  64.410  1.00  0.00    -0.027 C  
HETATM   12  C   UNL     1      -9.094   5.737  66.576  1.00  0.00    -0.144 A  
HETATM   13  O   UNL     1      -5.222   3.538  64.483  1.00  0.00    -0.008 OA 
HETATM   14  O   UNL     1      -7.139   3.674  63.308  1.00  0.00    -0.046 OA 
HETATM   15  O   UNL     1      -9.168   4.771  64.414  1.00  0.00    -0.132 OA 
HETATM   16  C   UNL     1     -10.426   6.128  66.511  1.00  0.00    -0.195 A  
HETATM   17  C   UNL     1     -10.975   6.836  67.567  1.00  0.00    -0.303 A  
HETATM   18  C   UNL     1     -10.237   7.197  68.719  1.00  0.00    -0.179 A  
HETATM   19  F   UNL     1     -12.248   7.241  67.418  1.00  0.00     1.370 F  
ENDROOT
BRANCH  18  20
HETATM   20  N   UNL     1     -10.856   7.939  69.723  1.00  0.00    -0.235 NA 
HETATM   21  C   UNL     1     -10.952   9.402  69.685  1.00  0.00    -0.197 C  
HETATM   22  C   UNL     1     -12.311   9.858  70.271  1.00  0.00    -0.005 C  
HETATM   23  N   UNL     1     -12.657   9.318  71.605  1.00  0.00    -0.342 NA 
HETATM   24  C   UNL     1     -12.496   7.844  71.578  1.00  0.00    -0.318 C  
HETATM   25  C   UNL     1     -11.843   9.928  72.652  1.00  0.00     1.805 C  
HETATM   26  C   UNL     1     -11.129   7.344  71.048  1.00  0.00    -0.258 C  
ENDBRANCH  18  20
TORSDOF 1
ENDMDL
MODEL      106
REMARK 921   NORMALIZED FREE ENERGY PREDICTED BY IDOCK:    2.47 KCAL/MOL
REMARK 922        TOTAL FREE ENERGY PREDICTED BY IDOCK:    2.21 KCAL/MOL
REMARK 923 INTER-LIGAND FREE ENERGY PREDICTED BY IDOCK:    2.39 KCAL/MOL
REMARK 924 INTRA-LIGAND FREE ENERGY PREDICTED BY IDOCK:   -0.18 KCAL/MOL
REMARK 927      BINDING AFFINITY PREDICTED BY RF-SCORE:    0.00 PKD
ROOT
HETATM    1  C   UNL     1      -7.956   9.742  73.355  1.00  0.00     3.939 C  
HETATM    2  C   UNL     1      -8.944   8.780  72.689  1.00  0.00     0.139 C  
HETATM    3  C   UNL     1      -9.981   9.514  71.835  1.00  0.00     0.747 C  
HETATM    4  O   UNL     1      -9.547   9.876  70.529  1.00  0.00    -0.180 OA 
HETATM    5  C   UNL     1      -8.899   8.883  69.829  1.00  0.00    -0.144 A  
HETATM    6  C   UNL     1      -8.201   7.863  70.524  1.00  0.00    -0.118 A  
HETATM    7  N   UNL     1      -8.224   7.748  71.934  1.00  0.00    -0.103 NA 
HETATM    8  C   UNL     1      -7.473   6.752  72.547  1.00  0.00    -0.091 C  
HETATM    9  C   UNL     1      -6.701   5.843  71.933  1.00  0.00    -0.063 C  
HETATM   10  C   UNL     1      -6.660   5.900  70.459  1.00  0.00    -0.047 C  
HETATM   11  C   UNL     1      -5.934   4.873  72.739  1.00  0.00    -0.025 C  
HETATM   12  C   UNL     1      -7.461   6.936  69.769  1.00  0.00    -0.095 A  
HETATM   13  O   UNL     1      -5.982   4.823  73.959  1.00  0.00    -0.028 OA 
HETATM   14  O   UNL     1      -5.154   4.040  72.015  1.00  0.00     0.000 OA 
HETATM   15  O   UNL     1      -5.961   5.104  69.833  1.00  0.00    -0.016 OA 
HETATM   16  C   UNL     1      -7.427   6.990  68.380  1.00  0.00    -0.102 A  
HETATM   17  C   UNL     1      -8.143   7.979  67.724  1.00  0.00    -0.128 A  
HETATM   18  C   UNL     1      -8.908   8.956  68.404  1.00  0.00    -0.134 A  
HETATM   19  F   UNL     1      -8.020   8.018  66.386  1.00  0.00    -0.093 F  
ENDROOT
BRANCH  18  20
HETATM   20  N   UNL     1      -9.572   9.936  67.671  1.00  0.00    -0.147 NA 
HETATM   21  C   UNL     1      -9.297  11.368  67.827  1.00  0.00    -0.162 C  
HETATM   22  C   UNL     1      -9.394  12.078  66.454  1.00  0.00    -0.228 C  
HETATM   23  N   UNL     1     -10.635  11.837  65.684  1.00  0.00    -0.260 NA 
HETATM   24  C   UNL     1     -10.868  10.374  65.605  1.00  0.00     0.211 C  
HETATM   25  C   UNL     1     -11.773  12.531  66.279  1.00  0.00    -0.404 C  
HETATM   26  C   UNL     1     -10.833   9.631  66.963  1.00  0.00    -0.078 C  
ENDBRANCH  18  20
TORSDOF 1
ENDMDL
MODEL      107
REMARK 921   NORMALIZED FREE ENERGY PREDICTED BY IDOCK:    5.48 KCAL/MOL
REMARK 922        TOTAL FREE ENERGY PREDICTED BY IDOCK:    5.40 KCAL/MOL
REMARK 923 INTER-LIGAND FREE ENERGY PREDICTED BY IDOCK:    4.58 KCAL/MOL
REMARK 924 INTRA-LIGAND FREE ENERGY PREDICTED BY IDOCK:    0.83 KCAL/MOL
REMARK 927      BINDING AFFINITY PREDICTED BY RF-SCORE:    0.00 PKD
ROOT
HETATM    1  C   UNL     1     -10.516  17.909  68.487  1.00  0.00    -0.312 C  
HETATM    2  C   UNL     1     -10.793  16.506  69.035  1.00  0.00    -0.329 C  
HETATM    3  C   UNL     1     -11.883  15.780  68.244  1.00  0.00    -0.105 C  
HETATM    4  O   UNL     1     -11.449  15.159  67.039  1.00  0.00    -0.319 OA 
HETATM    5  C   UNL     1     -10.294  14.415  67.145  1.00  0.00    -0.262 A  
HETATM    6  C   UNL     1      -9.332  14.734  68.137  1.00  0.00    -0.197 A  
HETATM    7  N   UNL     1      -9.547  15.734  69.115  1.00  0.00    -0.237 NA 
HETATM    8  C   UNL     1      -8.536  16.025  70.023  1.00  0.00     0.807 C  
HETATM    9  C   UNL     1      -7.331  15.441  70.089  1.00  0.00     0.217 C  
HETATM   10  C   UNL     1      -7.061  14.373  69.106  1.00  0.00    -0.127 C  
HETATM   11  C   UNL     1      -6.352  15.898  71.095  1.00  0.00     1.218 C  
HETATM   12  C   UNL     1      -8.119  14.022  68.134  1.00  0.00    -0.151 A  
HETATM   13  O   UNL     1      -6.587  16.774  71.913  1.00  0.00     3.478 OA 
HETATM   14  O   UNL     1      -5.156  15.273  71.033  1.00  0.00    -0.135 OA 
HETATM   15  O   UNL     1      -5.969  13.806  69.102  1.00  0.00    -0.079 OA 
HETATM   16  C   UNL     1      -7.869  13.014  67.210  1.00  0.00    -0.132 A  
HETATM   17  C   UNL     1      -8.839  12.701  66.271  1.00  0.00     0.106 A  
HETATM   18  C   UNL     1     -10.083  13.371  66.196  1.00  0.00    -0.302 A  
HETATM   19  F   UNL     1      -8.514  11.763  65.366  1.00  0.00     0.085 F  
ENDROOT
BRANCH  18  20
HETATM   20  N   UNL     1     -10.991  13.018  65.200  1.00  0.00    -0.288 NA 
HETATM   21  C   UNL     1     -12.121  13.871  64.816  1.00  0.00    -0.419 C  
HETATM   22  C   UNL     1     -12.356  13.781  63.288  1.00  0.00     0.155 C  
HETATM   23  N   UNL     1     -12.482  12.416  62.730  1.00  0.00     0.258 NA 
HETATM   24  C   UNL     1     -11.331  11.604  63.194  1.00  0.00    -0.057 C  
HETATM   25  C   UNL     1     -13.755  11.805  63.101  1.00  0.00     1.969 C  
HETATM   26  C   UNL     1     -11.090  11.623  64.724  1.00  0.00    -0.264 C  
ENDBRANCH  18  20
TORSDOF 1
ENDMDL
MODEL      108
REMARK 921   NORMALIZED FREE ENERGY PREDICTED BY IDOCK:    6.51 KCAL/MOL
REMARK 922        TOTAL FREE ENERGY PREDICTED BY IDOCK:    6.49 KCAL/MOL
REMARK 923 INTER-LIGAND FREE ENERGY PREDICTED BY IDOCK:    6.02 KCAL/MOL
REMARK 924 INTRA-LIGAND FREE ENERGY PREDICTED BY IDOCK:    0.48 KCAL/MOL
REMARK 927      BINDING AFFINITY PREDICTED BY RF-SCORE:    0.00 PKD
ROOT
HETATM    1  C   UNL     1      -6.267   9.875  67.372  1.00  0.00    -0.059 C  
HETATM    2  C   UNL     1      -7.674  10.327  67.775  1.00  0.00    -0.090 C  
HETATM    3  C   UNL     1      -7.647  11.423  68.844  1.00  0.00    -0.114 C  
HETATM    4  O   UNL     1      -7.428  12.742  68.357  1.00  0.00    -0.112 OA 
HETATM    5  C   UNL     1      -8.184  13.096  67.260  1.00  0.00    -0.168 A  
HETATM    6  C   UNL     1      -8.640  12.100  66.360  1.00  0.00    -0.001 A  
HETATM    7  N   UNL     1      -8.446  10.717  66.589  1.00  0.00    -0.137 NA 
HETATM    8  C   UNL     1      -8.876   9.803  65.636  1.00  0.00    -0.154 C  
HETATM    9  C   UNL     1      -9.488  10.088  64.476  1.00  0.00    -0.359 C  
HETATM   10  C   UNL     1      -9.739  11.516  64.197  1.00  0.00    -0.211 C  
HETATM   11  C   UNL     1      -9.847   8.995  63.552  1.00  0.00     2.491 C  
HETATM   12  C   UNL     1      -9.310  12.518  65.197  1.00  0.00     0.332 A  
HETATM   13  O   UNL     1      -9.647   7.814  63.796  1.00  0.00     2.546 OA 
HETATM   14  O   UNL     1     -10.411   9.405  62.395  1.00  0.00     1.938 OA 
HETATM   15  O   UNL     1     -10.283  11.848  63.144  1.00  0.00    -0.415 OA 
HETATM   16  C   UNL     1      -9.549  13.863  64.938  1.00  0.00     0.443 A  
HETATM   17  C   UNL     1      -9.120  14.814  65.850  1.00  0.00     0.108 A  
HETATM   18  C   UNL     1      -8.432  14.484  67.041  1.00  0.00    -0.196 A  
HETATM   19  F   UNL     1      -9.323  16.100  65.513  1.00  0.00    -0.313 F  
ENDROOT
BRANCH  18  20
HETATM   20  N   UNL     1      -8.004  15.503  67.889  1.00  0.00    -0.132 NA 
HETATM   21  C   UNL     1      -8.197  15.460  69.343  1.00  0.00    -0.250 C  
HETATM   22  C   UNL     1      -6.975  16.087  70.057  1.00  0.00     0.237 C  
HETATM   23  N   UNL     1      -6.572  17.434  69.594  1.00  0.00    -0.175 NA 
HETATM   24  C   UNL     1      -6.438  17.409  68.117  1.00  0.00    -0.168 C  
HETATM   25  C   UNL     1      -7.522  18.452  70.030  1.00  0.00     1.147 C  
HETATM   26  C   UNL     1      -7.661  16.838  67.358  1.00  0.00    -0.169 C  
ENDBRANCH  18  20
TORSDOF 1
ENDMDL
MODEL      109
REMARK 921   NORMALIZED FREE ENERGY PREDICTED BY IDOCK:    8.39 KCAL/MOL
REMARK 922        TOTAL FREE ENERGY PREDICTED BY IDOCK:    8.48 KCAL/MOL
REMARK 923 INTER-LIGAND FREE ENERGY PREDICTED BY IDOCK:    8.86 KCAL/MOL
REMARK 924 INTRA-LIGAND FREE ENERGY PREDICTED BY IDOCK:   -0.38 KCAL/MOL
REMARK 927      BINDING AFFINITY PREDICTED BY RF-SCORE:    0.00 PKD
ROOT
HETATM    1  C   UNL     1      -6.610  13.957  70.927  1.00  0.00     0.505 C  
HETATM    2  C   UNL     1      -7.468  14.013  69.659  1.00  0.00     0.321 C  
HETATM    3  C   UNL     1      -7.213  12.821  68.733  1.00  0.00    -0.077 C  
HETATM    4  O   UNL     1      -7.905  11.626  69.075  1.00  0.00    -0.080 OA 
HETATM    5  C   UNL     1      -9.241  11.785  69.371  1.00  0.00     0.839 A  
HETATM    6  C   UNL     1      -9.715  13.020  69.881  1.00  0.00     2.420 A  
HETATM    7  N   UNL     1      -8.886  14.161  70.008  1.00  0.00     1.373 NA 
HETATM    8  C   UNL     1      -9.409  15.322  70.565  1.00  0.00     1.057 C  
HETATM    9  C   UNL     1     -10.662  15.499  71.009  1.00  0.00    -0.066 C  
HETATM   10  C   UNL     1     -11.577  14.348  70.879  1.00  0.00    -0.144 C  
HETATM   11  C   UNL     1     -11.047  16.790  71.612  1.00  0.00     0.806 C  
HETATM   12  C   UNL     1     -11.062  13.100  70.274  1.00  0.00     0.720 A  
HETATM   13  O   UNL     1     -10.287  17.743  71.706  1.00  0.00     3.210 OA 
HETATM   14  O   UNL     1     -12.317  16.835  72.071  1.00  0.00     0.203 OA 
HETATM   15  O   UNL     1     -12.737  14.439  71.280  1.00  0.00    -0.304 OA 
HETATM   16  C   UNL     1     -11.923  12.016  70.147  1.00  0.00    -0.401 A  
HETATM   17  C   UNL     1     -11.443  10.830  69.616  1.00  0.00    -0.305 A  
HETATM   18  C   UNL     1     -10.101  10.658  69.202  1.00  0.00    -0.216 A  
HETATM   19  F   UNL     1     -12.305   9.799  69.577  1.00  0.00     0.115 F  
ENDROOT
BRANCH  18  20
HETATM   20  N   UNL     1      -9.689   9.422  68.709  1.00  0.00    -0.154 NA 
HETATM   21  C   UNL     1      -9.008   8.422  69.539  1.00  0.00    -0.149 C  
HETATM   22  C   UNL     1      -9.469   7.000  69.139  1.00  0.00    -0.143 C  
HETATM   23  N   UNL     1      -9.383   6.671  67.698  1.00  0.00    -0.119 NA 
HETATM   24  C   UNL     1     -10.053   7.743  66.924  1.00  0.00    -0.286 C  
HETATM   25  C   UNL     1      -7.997   6.490  67.276  1.00  0.00    -0.113 C  
HETATM   26  C   UNL     1      -9.584   9.181  67.255  1.00  0.00    -0.154 C  
ENDBRANCH  18  20
TORSDOF 1
ENDMDL
MODEL      110
REMARK 921   NORMALIZED FREE ENERGY PREDICTED BY IDOCK:    9.38 KCAL/MOL
REMARK 922        TOTAL FREE ENERGY PREDICTED BY IDOCK:    9.53 KCAL/MOL
REMARK 923 INTER-LIGAND FREE ENERGY PREDICTED BY IDOCK:    9.37 KCAL/MOL
REMARK 924 INTRA-LIGAND FREE ENERGY PREDICTED BY IDOCK:    0.16 KCAL/MOL
REMARK 927      BINDING AFFINITY PREDICTED BY RF-SCORE:    0.00 PKD
ROOT
HETATM    1  C   UNL     1      -6.643   9.223  66.214  1.00  0.00    -0.070 C  
HETATM    2  C   UNL     1      -8.074   9.129  66.752  1.00  0.00    -0.111 C  
HETATM    3  C   UNL     1      -8.416   7.720  67.245  1.00  0.00    -0.118 C  
HETATM    4  O   UNL     1      -7.965   7.409  68.558  1.00  0.00    -0.119 OA 
HETATM    5  C   UNL     1      -8.217   8.373  69.509  1.00  0.00    -0.118 A  
HETATM    6  C   UNL     1      -8.330   9.734  69.129  1.00  0.00    -0.137 A  
HETATM    7  N   UNL     1      -8.303  10.154  67.777  1.00  0.00    -0.114 NA 
HETATM    8  C   UNL     1      -8.369  11.511  67.485  1.00  0.00    -0.143 C  
HETATM    9  C   UNL     1      -8.467  12.513  68.371  1.00  0.00    -0.125 C  
HETATM   10  C   UNL     1      -8.524  12.131  69.796  1.00  0.00     2.104 C  
HETATM   11  C   UNL     1      -8.486  13.910  67.893  1.00  0.00    -0.177 C  
HETATM   12  C   UNL     1      -8.474  10.695  70.146  1.00  0.00     0.838 A  
HETATM   13  O   UNL     1      -8.451  14.218  66.711  1.00  0.00    -0.159 OA 
HETATM   14  O   UNL     1      -8.535  14.835  68.876  1.00  0.00    -0.164 OA 
HETATM   15  O   UNL     1      -8.599  13.003  70.661  1.00  0.00     5.170 OA 
HETATM   16  C   UNL     1      -8.532  10.332  71.486  1.00  0.00     3.698 A  
HETATM   17  C   UNL     1      -8.450   8.992  71.829  1.00  0.00     0.117 A  
HETATM   18  C   UNL     1      -8.296   7.961  70.873  1.00  0.00    -0.115 A  
HETATM   19  F   UNL     1      -8.447   8.710  73.143  1.00  0.00    -0.256 F  
ENDROOT
BRANCH  18  20
HETATM   20  N   UNL     1      -8.188   6.640  71.303  1.00  0.00    -0.119 NA 
HETATM   21  C   UNL     1      -7.196   5.706  70.758  1.00  0.00    -0.079 C  
HETATM   22  C   UNL     1      -6.673   4.777  71.881  1.00  0.00    -0.043 C  
HETATM   23  N   UNL     1      -7.706   4.080  72.681  1.00  0.00    -0.073 NA 
HETATM   24  C   UNL     1      -8.691   5.079  73.160  1.00  0.00    -0.112 C  
HETATM   25  C   UNL     1      -8.347   3.018  71.911  1.00  0.00    -0.058 C  
HETATM   26  C   UNL     1      -9.281   5.996  72.060  1.00  0.00    -0.146 C  
ENDBRANCH  18  20
TORSDOF 1
ENDMDL
MODEL      111
REMARK 921   NORMALIZED FREE ENERGY PREDICTED BY IDOCK:   15.44 KCAL/MOL
REMARK 922        TOTAL FREE ENERGY PREDICTED BY IDOCK:   15.94 KCAL/MOL
REMARK 923 INTER-LIGAND FREE ENERGY PREDICTED BY IDOCK:   16.19 KCAL/MOL
REMARK 924 INTRA-LIGAND FREE ENERGY PREDICTED BY IDOCK:   -0.25 KCAL/MOL
REMARK 927      BINDING AFFINITY PREDICTED BY RF-SCORE:    0.00 PKD
ROOT
HETATM    1  C   UNL     1     -11.348   6.529  68.313  1.00  0.00    -0.123 C  
HETATM    2  C   UNL     1      -9.967   7.003  67.852  1.00  0.00    -0.154 C  
HETATM    3  C   UNL     1      -9.571   8.339  68.485  1.00  0.00    -0.149 C  
HETATM    4  O   UNL     1      -9.038   8.255  69.802  1.00  0.00    -0.145 OA 
HETATM    5  C   UNL     1      -8.078   7.283  69.985  1.00  0.00    -0.130 A  
HETATM    6  C   UNL     1      -8.076   6.124  69.169  1.00  0.00    -0.109 A  
HETATM    7  N   UNL     1      -8.964   5.955  68.080  1.00  0.00    -0.116 NA 
HETATM    8  C   UNL     1      -8.937   4.768  67.358  1.00  0.00    -0.109 C  
HETATM    9  C   UNL     1      -8.127   3.721  67.576  1.00  0.00    -0.090 C  
HETATM   10  C   UNL     1      -7.162   3.852  68.685  1.00  0.00    -0.054 C  
HETATM   11  C   UNL     1      -8.254   2.514  66.736  1.00  0.00    -0.085 C  
HETATM   12  C   UNL     1      -7.149   5.109  69.466  1.00  0.00    -0.056 A  
HETATM   13  O   UNL     1      -9.047   2.416  65.811  1.00  0.00    -0.133 OA 
HETATM   14  O   UNL     1      -7.424   1.505  67.080  1.00  0.00    -0.056 OA 
HETATM   15  O   UNL     1      -6.400   2.923  68.947  1.00  0.00    -0.028 OA 
HETATM   16  C   UNL     1      -6.239   5.236  70.508  1.00  0.00    -0.023 A  
HETATM   17  C   UNL     1      -6.241   6.394  71.271  1.00  0.00    -0.040 A  
HETATM   18  C   UNL     1      -7.143   7.461  71.048  1.00  0.00    -0.060 A  
HETATM   19  F   UNL     1      -5.381   6.431  72.303  1.00  0.00    -0.028 F  
ENDROOT
BRANCH  18  20
HETATM   20  N   UNL     1      -7.102   8.576  71.881  1.00  0.00    -0.092 NA 
HETATM   21  C   UNL     1      -8.199   8.932  72.788  1.00  0.00     0.453 C  
HETATM   22  C   UNL     1      -7.630   9.509  74.106  1.00  0.00     1.799 C  
HETATM   23  N   UNL     1      -6.654  10.613  73.964  1.00  0.00     2.126 NA 
HETATM   24  C   UNL     1      -5.602  10.197  73.005  1.00  0.00     0.534 C  
HETATM   25  C   UNL     1      -7.307  11.849  73.543  1.00  0.00    12.963 C  
HETATM   26  C   UNL     1      -6.126   9.662  71.649  1.00  0.00     0.095 C  
ENDBRANCH  18  20
TORSDOF 1
ENDMDL
MODEL      112
REMARK 921   NORMALIZED FREE ENERGY PREDICTED BY IDOCK:   16.83 KCAL/MOL
REMARK 922        TOTAL FREE ENERGY PREDICTED BY IDOCK:   17.42 KCAL/MOL
REMARK 923 INTER-LIGAND FREE ENERGY PREDICTED BY IDOCK:   17.55 KCAL/MOL
REMARK 924 INTRA-LIGAND FREE ENERGY PREDICTED BY IDOCK:   -0.13 KCAL/MOL
REMARK 927      BINDING AFFINITY PREDICTED BY RF-SCORE:    0.00 PKD
ROOT
HETATM    1  C   UNL     1      -8.880  17.727  67.192  1.00  0.00    -0.251 C  
HETATM    2  C   UNL     1      -9.770  16.816  66.342  1.00  0.00    -0.290 C  
HETATM    3  C   UNL     1      -8.962  15.983  65.344  1.00  0.00     0.836 C  
HETATM    4  O   UNL     1      -8.368  14.805  65.876  1.00  0.00     0.790 OA 
HETATM    5  C   UNL     1      -9.197  14.030  66.657  1.00  0.00    -0.244 A  
HETATM    6  C   UNL     1     -10.280  14.625  67.353  1.00  0.00    -0.240 A  
HETATM    7  N   UNL     1     -10.625  15.989  67.202  1.00  0.00    -0.309 NA 
HETATM    8  C   UNL     1     -11.667  16.514  67.957  1.00  0.00     0.326 C  
HETATM    9  C   UNL     1     -12.422  15.849  68.845  1.00  0.00     0.524 C  
HETATM   10  C   UNL     1     -12.120  14.415  69.025  1.00  0.00    -0.263 C  
HETATM   11  C   UNL     1     -13.469  16.568  69.596  1.00  0.00     4.650 C  
HETATM   12  C   UNL     1     -11.029  13.816  68.225  1.00  0.00    -0.269 A  
HETATM   13  O   UNL     1     -13.721  17.753  69.434  1.00  0.00    11.440 OA 
HETATM   14  O   UNL     1     -14.129  15.810  70.499  1.00  0.00     0.030 OA 
HETATM   15  O   UNL     1     -12.765  13.750  69.835  1.00  0.00    -0.177 OA 
HETATM   16  C   UNL     1     -10.746  12.465  68.389  1.00  0.00    -0.254 A  
HETATM   17  C   UNL     1      -9.702  11.901  67.673  1.00  0.00    -0.185 A  
HETATM   18  C   UNL     1      -8.892  12.641  66.780  1.00  0.00    -0.168 A  
HETATM   19  F   UNL     1      -9.437  10.607  67.922  1.00  0.00    -0.151 F  
ENDROOT
BRANCH  18  20
HETATM   20  N   UNL     1      -7.840  12.006  66.124  1.00  0.00     0.372 NA 
HETATM   21  C   UNL     1      -6.448  12.452  66.236  1.00  0.00     1.622 C  
HETATM   22  C   UNL     1      -5.500  11.228  66.248  1.00  0.00    -0.137 C  
HETATM   23  N   UNL     1      -5.679  10.256  65.146  1.00  0.00    -0.111 NA 
HETATM   24  C   UNL     1      -7.113   9.885  65.068  1.00  0.00    -0.131 C  
HETATM   25  C   UNL     1      -5.194  10.794  63.879  1.00  0.00    -0.107 C  
HETATM   26  C   UNL     1      -8.096  11.080  65.001  1.00  0.00     0.246 C  
ENDBRANCH  18  20
TORSDOF 1
ENDMDL
MODEL      113
REMARK 921   NORMALIZED FREE ENERGY PREDICTED BY IDOCK:   20.32 KCAL/MOL
REMARK 922        TOTAL FREE ENERGY PREDICTED BY IDOCK:   21.10 KCAL/MOL
REMARK 923 INTER-LIGAND FREE ENERGY PREDICTED BY IDOCK:   21.44 KCAL/MOL
REMARK 924 INTRA-LIGAND FREE ENERGY PREDICTED BY IDOCK:   -0.33 KCAL/MOL
REMARK 927      BINDING AFFINITY PREDICTED BY RF-SCORE:    0.00 PKD
ROOT
HETATM    1  C   UNL     1      -6.309  10.090  67.736  1.00  0.00    -0.058 C  
HETATM    2  C   UNL     1      -7.653  10.398  68.401  1.00  0.00    -0.093 C  
HETATM    3  C   UNL     1      -7.494  10.825  69.862  1.00  0.00     0.074 C  
HETATM    4  O   UNL     1      -7.150  12.191  70.062  1.00  0.00     0.354 OA 
HETATM    5  C   UNL     1      -7.886  13.095  69.329  1.00  0.00     0.523 A  
HETATM    6  C   UNL     1      -8.460  12.708  68.092  1.00  0.00    -0.177 A  
HETATM    7  N   UNL     1      -8.403  11.379  67.608  1.00  0.00    -0.125 NA 
HETATM    8  C   UNL     1      -8.944  11.086  66.361  1.00  0.00    -0.181 C  
HETATM    9  C   UNL     1      -9.545  11.950  65.530  1.00  0.00    -0.200 C  
HETATM   10  C   UNL     1      -9.653  13.347  65.995  1.00  0.00    -0.159 C  
HETATM   11  C   UNL     1     -10.032  11.482  64.218  1.00  0.00    -0.271 C  
HETATM   12  C   UNL     1      -9.105  13.694  67.325  1.00  0.00    -0.228 A  
HETATM   13  O   UNL     1      -9.950  10.321  63.844  1.00  0.00    -0.278 OA 
HETATM   14  O   UNL     1     -10.573  12.449  63.445  1.00  0.00    -0.436 OA 
HETATM   15  O   UNL     1     -10.181  14.194  65.275  1.00  0.00    -0.352 OA 
HETATM   16  C   UNL     1      -9.210  15.008  67.767  1.00  0.00    -0.181 A  
HETATM   17  C   UNL     1      -8.668  15.353  68.995  1.00  0.00    -0.231 A  
HETATM   18  C   UNL     1      -7.994  14.428  69.828  1.00  0.00     0.447 A  
HETATM   19  F   UNL     1      -8.744  16.650  69.339  1.00  0.00    -0.213 F  
ENDROOT
BRANCH  18  20
HETATM   20  N   UNL     1      -7.449  14.864  71.033  1.00  0.00     1.359 NA 
HETATM   21  C   UNL     1      -8.270  15.333  72.154  1.00  0.00     6.727 C  
HETATM   22  C   UNL     1      -7.639  14.886  73.495  1.00  0.00     7.122 C  
HETATM   23  N   UNL     1      -6.209  15.219  73.683  1.00  0.00     1.768 NA 
HETATM   24  C   UNL     1      -5.452  14.753  72.497  1.00  0.00     0.099 C  
HETATM   25  C   UNL     1      -6.022  16.649  73.913  1.00  0.00     5.837 C  
HETATM   26  C   UNL     1      -6.018  15.221  71.133  1.00  0.00     0.312 C  
ENDBRANCH  18  20
TORSDOF 1
ENDMDL
MODEL      114
REMARK 921   NORMALIZED FREE ENERGY PREDICTED BY IDOCK:   20.39 KCAL/MOL
REMARK 922        TOTAL FREE ENERGY PREDICTED BY IDOCK:   21.18 KCAL/MOL
REMARK 923 INTER-LIGAND FREE ENERGY PREDICTED BY IDOCK:   21.36 KCAL/MOL
REMARK 924 INTRA-LIGAND FREE ENERGY PREDICTED BY IDOCK:   -0.18 KCAL/MOL
REMARK 927      BINDING AFFINITY PREDICTED BY RF-SCORE:    0.00 PKD
ROOT
HETATM    1  C   UNL     1     -13.274  12.804  66.536  1.00  0.00     3.009 C  
HETATM    2  C   UNL     1     -13.013  13.783  65.387  1.00  0.00    -0.312 C  
HETATM    3  C   UNL     1     -13.305  15.232  65.782  1.00  0.00     2.068 C  
HETATM    4  O   UNL     1     -12.265  15.889  66.497  1.00  0.00     1.042 OA 
HETATM    5  C   UNL     1     -11.001  15.733  65.972  1.00  0.00    -0.177 A  
HETATM    6  C   UNL     1     -10.686  14.579  65.210  1.00  0.00    -0.376 A  
HETATM    7  N   UNL     1     -11.653  13.606  64.863  1.00  0.00    -0.332 NA 
HETATM    8  C   UNL     1     -11.258  12.476  64.158  1.00  0.00    -0.382 C  
HETATM    9  C   UNL     1     -10.015  12.189  63.742  1.00  0.00    -0.343 C  
HETATM   10  C   UNL     1      -8.969  13.183  64.055  1.00  0.00     3.419 C  
HETATM   11  C   UNL     1      -9.756  10.920  63.035  1.00  0.00    -0.350 C  
HETATM   12  C   UNL     1      -9.355  14.408  64.790  1.00  0.00     1.640 A  
HETATM   13  O   UNL     1     -10.629  10.108  62.768  1.00  0.00     0.975 OA 
HETATM   14  O   UNL     1      -8.461  10.716  62.710  1.00  0.00    -0.175 OA 
HETATM   15  O   UNL     1      -7.805  12.975  63.715  1.00  0.00     6.544 OA 
HETATM   16  C   UNL     1      -8.373  15.347  65.083  1.00  0.00     4.158 A  
HETATM   17  C   UNL     1      -8.714  16.481  65.802  1.00  0.00     0.122 A  
HETATM   18  C   UNL     1     -10.026  16.730  66.271  1.00  0.00    -0.320 A  
HETATM   19  F   UNL     1      -7.709  17.320  66.108  1.00  0.00    -0.285 F  
ENDROOT
BRANCH  18  20
HETATM   20  N   UNL     1     -10.279  17.879  67.016  1.00  0.00    -0.343 NA 
HETATM   21  C   UNL     1     -10.782  17.838  68.393  1.00  0.00    -0.197 C  
HETATM   22  C   UNL     1     -10.142  18.978  69.224  1.00  0.00    -0.056 C  
HETATM   23  N   UNL     1     -10.236  20.336  68.644  1.00  0.00    -0.256 NA 
HETATM   24  C   UNL     1      -9.752  20.290  67.243  1.00  0.00    -0.450 C  
HETATM   25  C   UNL     1     -11.599  20.855  68.724  1.00  0.00     3.186 C  
HETATM   26  C   UNL     1     -10.404  19.198  66.360  1.00  0.00    -0.455 C  
ENDBRANCH  18  20
TORSDOF 1
ENDMDL
MODEL      115
REMARK 921   NORMALIZED FREE ENERGY PREDICTED BY IDOCK:   21.52 KCAL/MOL
REMARK 922        TOTAL FREE ENERGY PREDICTED BY IDOCK:   22.37 KCAL/MOL
REMARK 923 INTER-LIGAND FREE ENERGY PREDICTED BY IDOCK:   21.94 KCAL/MOL
REMARK 924 INTRA-LIGAND FREE ENERGY PREDICTED BY IDOCK:    0.44 KCAL/MOL
REMARK 927      BINDING AFFINITY PREDICTED BY RF-SCORE:    0.00 PKD
ROOT
HETATM    1  C   UNL     1      -5.730  14.896  66.216  1.00  0.00     4.487 C  
HETATM    2  C   UNL     1      -7.077  15.236  65.571  1.00  0.00     7.119 C  
HETATM    3  C   UNL     1      -7.919  13.988  65.295  1.00  0.00     6.299 C  
HETATM    4  O   UNL     1      -8.647  13.487  66.410  1.00  0.00     0.095 OA 
HETATM    5  C   UNL     1      -9.335  14.434  67.136  1.00  0.00    -0.220 A  
HETATM    6  C   UNL     1      -8.882  15.778  67.162  1.00  0.00    -0.203 A  
HETATM    7  N   UNL     1      -7.794  16.231  66.378  1.00  0.00    -0.266 NA 
HETATM    8  C   UNL     1      -7.374  17.550  66.496  1.00  0.00    -0.270 C  
HETATM    9  C   UNL     1      -7.907  18.488  67.294  1.00  0.00    -0.240 C  
HETATM   10  C   UNL     1      -9.061  18.076  68.116  1.00  0.00    -0.276 C  
HETATM   11  C   UNL     1      -7.314  19.839  67.328  1.00  0.00    -0.248 C  
HETATM   12  C   UNL     1      -9.548  16.684  68.005  1.00  0.00    -0.225 A  
HETATM   13  O   UNL     1      -6.365  20.176  66.636  1.00  0.00    -0.182 OA 
HETATM   14  O   UNL     1      -7.900  20.684  68.205  1.00  0.00     0.040 OA 
HETATM   15  O   UNL     1      -9.588  18.884  68.881  1.00  0.00    -0.367 OA 
HETATM   16  C   UNL     1     -10.638  16.295  68.776  1.00  0.00    -0.298 A  
HETATM   17  C   UNL     1     -11.081  14.983  68.708  1.00  0.00    -0.261 A  
HETATM   18  C   UNL     1     -10.465  14.004  67.893  1.00  0.00    -0.241 A  
HETATM   19  F   UNL     1     -12.097  14.653  69.523  1.00  0.00    -0.309 F  
ENDROOT
BRANCH  18  20
HETATM   20  N   UNL     1     -10.951  12.699  67.908  1.00  0.00    -0.221 NA 
HETATM   21  C   UNL     1     -11.214  11.935  66.683  1.00  0.00    -0.328 C  
HETATM   22  C   UNL     1     -10.845  10.447  66.899  1.00  0.00    -0.161 C  
HETATM   23  N   UNL     1     -11.436   9.797  68.091  1.00  0.00     0.075 NA 
HETATM   24  C   UNL     1     -11.167  10.645  69.277  1.00  0.00    -0.273 C  
HETATM   25  C   UNL     1     -12.866   9.560  67.913  1.00  0.00     8.733 C  
HETATM   26  C   UNL     1     -11.570  12.133  69.124  1.00  0.00    -0.319 C  
ENDBRANCH  18  20
TORSDOF 1
ENDMDL
MODEL      116
REMARK 921   NORMALIZED FREE ENERGY PREDICTED BY IDOCK:   28.28 KCAL/MOL
REMARK 922        TOTAL FREE ENERGY PREDICTED BY IDOCK:   29.53 KCAL/MOL
REMARK 923 INTER-LIGAND FREE ENERGY PREDICTED BY IDOCK:   29.16 KCAL/MOL
REMARK 924 INTRA-LIGAND FREE ENERGY PREDICTED BY IDOCK:    0.37 KCAL/MOL
REMARK 927      BINDING AFFINITY PREDICTED BY RF-SCORE:    0.00 PKD
ROOT
HETATM    1  C   UNL     1      -5.663  16.119  65.801  1.00  0.00     3.597 C  
HETATM    2  C   UNL     1      -7.187  16.075  65.937  1.00  0.00     2.135 C  
HETATM    3  C   UNL     1      -7.769  14.725  65.510  1.00  0.00     5.746 C  
HETATM    4  O   UNL     1      -7.712  13.699  66.495  1.00  0.00     0.661 OA 
HETATM    5  C   UNL     1      -8.123  14.073  67.756  1.00  0.00    -0.167 A  
HETATM    6  C   UNL     1      -8.013  15.425  68.168  1.00  0.00    -0.131 A  
HETATM    7  N   UNL     1      -7.592  16.456  67.296  1.00  0.00    -0.150 NA 
HETATM    8  C   UNL     1      -7.459  17.750  67.786  1.00  0.00    -0.204 C  
HETATM    9  C   UNL     1      -7.702  18.155  69.042  1.00  0.00    -0.130 C  
HETATM   10  C   UNL     1      -8.168  17.124  69.990  1.00  0.00     1.923 C  
HETATM   11  C   UNL     1      -7.473  19.566  69.410  1.00  0.00    -0.162 C  
HETATM   12  C   UNL     1      -8.338  15.738  69.500  1.00  0.00    -0.135 A  
HETATM   13  O   UNL     1      -7.098  20.417  68.617  1.00  0.00    -0.197 OA 
HETATM   14  O   UNL     1      -7.700  19.847  70.712  1.00  0.00     0.808 OA 
HETATM   15  O   UNL     1      -8.395  17.425  71.161  1.00  0.00     6.373 OA 
HETATM   16  C   UNL     1      -8.781  14.766  70.389  1.00  0.00     1.383 A  
HETATM   17  C   UNL     1      -8.909  13.457  69.952  1.00  0.00     2.556 A  
HETATM   18  C   UNL     1      -8.597  13.052  68.633  1.00  0.00     0.045 A  
HETATM   19  F   UNL     1      -9.280  12.552  70.874  1.00  0.00     6.303 F  
ENDROOT
BRANCH  18  20
HETATM   20  N   UNL     1      -8.721  11.709  68.283  1.00  0.00    -0.159 NA 
HETATM   21  C   UNL     1      -8.134  10.623  69.075  1.00  0.00    -0.148 C  
HETATM   22  C   UNL     1      -9.078   9.396  69.071  1.00  0.00    -0.142 C  
HETATM   23  N   UNL     1      -9.527   8.926  67.741  1.00  0.00    -0.140 NA 
HETATM   24  C   UNL     1     -10.068  10.083  66.986  1.00  0.00    -0.219 C  
HETATM   25  C   UNL     1      -8.444   8.269  67.016  1.00  0.00    -0.122 C  
HETATM   26  C   UNL     1      -9.133  11.316  66.919  1.00  0.00    -0.167 C  
ENDBRANCH  18  20
TORSDOF 1
ENDMDL
MODEL      117
REMARK 921   NORMALIZED FREE ENERGY PREDICTED BY IDOCK:   28.50 KCAL/MOL
REMARK 922        TOTAL FREE ENERGY PREDICTED BY IDOCK:   29.76 KCAL/MOL
REMARK 923 INTER-LIGAND FREE ENERGY PREDICTED BY IDOCK:   29.73 KCAL/MOL
REMARK 924 INTRA-LIGAND FREE ENERGY PREDICTED BY IDOCK:    0.03 KCAL/MOL
REMARK 927      BINDING AFFINITY PREDICTED BY RF-SCORE:    0.00 PKD
ROOT
HETATM    1  C   UNL     1      -9.024   9.602  69.097  1.00  0.00    -0.154 C  
HETATM    2  C   UNL     1      -8.881  10.085  70.543  1.00  0.00     0.421 C  
HETATM    3  C   UNL     1      -8.715  11.604  70.633  1.00  0.00     5.915 C  
HETATM    4  O   UNL     1      -9.923  12.353  70.566  1.00  0.00     3.719 OA 
HETATM    5  C   UNL     1     -10.947  11.888  71.363  1.00  0.00     4.547 A  
HETATM    6  C   UNL     1     -11.010  10.515  71.710  1.00  0.00     2.311 A  
HETATM    7  N   UNL     1      -9.996   9.592  71.360  1.00  0.00    -0.037 NA 
HETATM    8  C   UNL     1     -10.153   8.252  71.691  1.00  0.00    -0.215 C  
HETATM    9  C   UNL     1     -11.195   7.707  72.337  1.00  0.00    -0.372 C  
HETATM   10  C   UNL     1     -12.272   8.629  72.748  1.00  0.00    -0.039 C  
HETATM   11  C   UNL     1     -11.224   6.250  72.577  1.00  0.00    -0.279 C  
HETATM   12  C   UNL     1     -12.132  10.066  72.429  1.00  0.00     0.744 A  
HETATM   13  O   UNL     1     -10.323   5.495  72.244  1.00  0.00    -0.196 OA 
HETATM   14  O   UNL     1     -12.344   5.808  73.189  1.00  0.00     0.410 OA 
HETATM   15  O   UNL     1     -13.263   8.192  73.332  1.00  0.00     0.700 OA 
HETATM   16  C   UNL     1     -13.143  10.937  72.818  1.00  0.00     1.649 A  
HETATM   17  C   UNL     1     -13.041  12.281  72.493  1.00  0.00     0.409 A  
HETATM   18  C   UNL     1     -11.952  12.817  71.766  1.00  0.00     1.431 A  
HETATM   19  F   UNL     1     -14.079  13.060  72.841  1.00  0.00    -0.458 F  
ENDROOT
BRANCH  18  20
HETATM   20  N   UNL     1     -11.942  14.173  71.451  1.00  0.00    -0.233 NA 
HETATM   21  C   UNL     1     -12.216  15.221  72.440  1.00  0.00    -0.383 C  
HETATM   22  C   UNL     1     -11.318  16.453  72.168  1.00  0.00     0.189 C  
HETATM   23  N   UNL     1     -11.342  16.981  70.786  1.00  0.00     0.519 NA 
HETATM   24  C   UNL     1     -11.100  15.862  69.844  1.00  0.00    -0.343 C  
HETATM   25  C   UNL     1     -12.601  17.663  70.499  1.00  0.00     9.799 C  
HETATM   26  C   UNL     1     -12.013  14.627  70.046  1.00  0.00    -0.320 C  
ENDBRANCH  18  20
TORSDOF 1
ENDMDL
MODEL      118
REMARK 921   NORMALIZED FREE ENERGY PREDICTED BY IDOCK:   47.57 KCAL/MOL
REMARK 922        TOTAL FREE ENERGY PREDICTED BY IDOCK:   49.95 KCAL/MOL
REMARK 923 INTER-LIGAND FREE ENERGY PREDICTED BY IDOCK:   49.39 KCAL/MOL
REMARK 924 INTRA-LIGAND FREE ENERGY PREDICTED BY IDOCK:    0.56 KCAL/MOL
REMARK 927      BINDING AFFINITY PREDICTED BY RF-SCORE:    0.00 PKD
ROOT
HETATM    1  C   UNL     1      -9.386  14.676  63.207  1.00  0.00    11.493 C  
HETATM    2  C   UNL     1     -10.336  14.449  64.386  1.00  0.00     0.308 C  
HETATM    3  C   UNL     1      -9.801  13.403  65.368  1.00  0.00    -0.110 C  
HETATM    4  O   UNL     1      -8.847  13.882  66.307  1.00  0.00    -0.002 OA 
HETATM    5  C   UNL     1      -9.178  15.065  66.931  1.00  0.00    -0.246 A  
HETATM    6  C   UNL     1     -10.028  15.996  66.281  1.00  0.00    -0.310 A  
HETATM    7  N   UNL     1     -10.653  15.723  65.041  1.00  0.00    -0.513 NA 
HETATM    8  C   UNL     1     -11.431  16.706  64.442  1.00  0.00     0.296 C  
HETATM    9  C   UNL     1     -11.676  17.934  64.924  1.00  0.00     3.150 C  
HETATM   10  C   UNL     1     -11.068  18.264  66.228  1.00  0.00     0.523 C  
HETATM   11  C   UNL     1     -12.497  18.876  64.138  1.00  0.00    12.622 C  
HETATM   12  C   UNL     1     -10.247  17.237  66.906  1.00  0.00    -0.322 A  
HETATM   13  O   UNL     1     -13.007  18.591  63.064  1.00  0.00    16.779 OA 
HETATM   14  O   UNL     1     -12.633  20.098  64.697  1.00  0.00     5.807 OA 
HETATM   15  O   UNL     1     -11.241  19.379  66.720  1.00  0.00    -0.232 OA 
HETATM   16  C   UNL     1      -9.677  17.544  68.136  1.00  0.00    -0.302 A  
HETATM   17  C   UNL     1      -8.876  16.603  68.763  1.00  0.00    -0.264 A  
HETATM   18  C   UNL     1      -8.595  15.334  68.205  1.00  0.00    -0.160 A  
HETATM   19  F   UNL     1      -8.302  16.982  69.919  1.00  0.00     0.419 F  
ENDROOT
BRANCH  18  20
HETATM   20  N   UNL     1      -7.753  14.459  68.885  1.00  0.00    -0.138 NA 
HETATM   21  C   UNL     1      -8.032  13.024  69.011  1.00  0.00     0.297 C  
HETATM   22  C   UNL     1      -6.710  12.220  68.936  1.00  0.00    -0.094 C  
HETATM   23  N   UNL     1      -5.633  12.654  69.853  1.00  0.00    -0.100 NA 
HETATM   24  C   UNL     1      -5.438  14.116  69.700  1.00  0.00    -0.094 C  
HETATM   25  C   UNL     1      -5.935  12.294  71.235  1.00  0.00     0.758 C  
HETATM   26  C   UNL     1      -6.727  14.965  69.821  1.00  0.00    -0.179 C  
ENDBRANCH  18  20
TORSDOF 1
ENDMDL
MODEL      119
REMARK 921   NORMALIZED FREE ENERGY PREDICTED BY IDOCK:   60.45 KCAL/MOL
REMARK 922        TOTAL FREE ENERGY PREDICTED BY IDOCK:   63.58 KCAL/MOL
REMARK 923 INTER-LIGAND FREE ENERGY PREDICTED BY IDOCK:   63.66 KCAL/MOL
REMARK 924 INTRA-LIGAND FREE ENERGY PREDICTED BY IDOCK:   -0.08 KCAL/MOL
REMARK 927      BINDING AFFINITY PREDICTED BY RF-SCORE:    0.00 PKD
ROOT
HETATM    1  C   UNL     1      -5.614  12.956  68.873  1.00  0.00    -0.072 C  
HETATM    2  C   UNL     1      -6.990  12.401  68.492  1.00  0.00    -0.092 C  
HETATM    3  C   UNL     1      -7.990  12.487  69.648  1.00  0.00     1.398 C  
HETATM    4  O   UNL     1      -8.614  13.754  69.819  1.00  0.00     1.057 OA 
HETATM    5  C   UNL     1      -9.096  14.332  68.665  1.00  0.00    -0.160 A  
HETATM    6  C   UNL     1      -8.502  14.025  67.415  1.00  0.00    -0.200 A  
HETATM    7  N   UNL     1      -7.484  13.051  67.273  1.00  0.00    -0.120 NA 
HETATM    8  C   UNL     1      -6.914  12.842  66.023  1.00  0.00     3.454 C  
HETATM    9  C   UNL     1      -7.234  13.475  64.884  1.00  0.00    12.382 C  
HETATM   10  C   UNL     1      -8.308  14.484  64.970  1.00  0.00     5.663 C  
HETATM   11  C   UNL     1      -6.501  13.159  63.643  1.00  0.00    15.423 C  
HETATM   12  C   UNL     1      -8.951  14.723  66.281  1.00  0.00    -0.153 A  
HETATM   13  O   UNL     1      -5.621  12.314  63.577  1.00  0.00     3.400 OA 
HETATM   14  O   UNL     1      -6.873  13.895  62.573  1.00  0.00    11.684 OA 
HETATM   15  O   UNL     1      -8.640  15.112  63.965  1.00  0.00     7.483 OA 
HETATM   16  C   UNL     1      -9.966  15.670  66.363  1.00  0.00    -0.298 A  
HETATM   17  C   UNL     1     -10.551  15.929  67.592  1.00  0.00    -0.307 A  
HETATM   18  C   UNL     1     -10.156  15.279  68.786  1.00  0.00    -0.219 A  
HETATM   19  F   UNL     1     -11.481  16.899  67.619  1.00  0.00    -0.132 F  
ENDROOT
BRANCH  18  20
HETATM   20  N   UNL     1     -10.773  15.621  69.987  1.00  0.00    -0.313 NA 
HETATM   21  C   UNL     1     -11.656  14.705  70.716  1.00  0.00    -0.236 C  
HETATM   22  C   UNL     1     -11.454  14.877  72.241  1.00  0.00    -0.065 C  
HETATM   23  N   UNL     1     -11.550  16.261  72.757  1.00  0.00    -0.272 NA 
HETATM   24  C   UNL     1     -10.665  17.133  71.947  1.00  0.00     2.668 C  
HETATM   25  C   UNL     1     -12.929  16.738  72.747  1.00  0.00     1.197 C  
HETATM   26  C   UNL     1     -10.870  17.032  70.415  1.00  0.00     0.493 C  
ENDBRANCH  18  20
TORSDOF 1
ENDMDL
MODEL      120
REMARK 921   NORMALIZED FREE ENERGY PREDICTED BY IDOCK:   70.91 KCAL/MOL
REMARK 922        TOTAL FREE ENERGY PREDICTED BY IDOCK:   74.65 KCAL/MOL
REMARK 923 INTER-LIGAND FREE ENERGY PREDICTED BY IDOCK:   73.92 KCAL/MOL
REMARK 924 INTRA-LIGAND FREE ENERGY PREDICTED BY IDOCK:    0.73 KCAL/MOL
REMARK 927      BINDING AFFINITY PREDICTED BY RF-SCORE:    0.00 PKD
ROOT
HETATM    1  C   UNL     1     -10.175   7.718  70.667  1.00  0.00    -0.199 C  
HETATM    2  C   UNL     1      -9.492   8.261  69.408  1.00  0.00    -0.159 C  
HETATM    3  C   UNL     1      -8.410   7.316  68.881  1.00  0.00    -0.126 C  
HETATM    4  O   UNL     1      -8.883   6.235  68.085  1.00  0.00    -0.115 OA 
HETATM    5  C   UNL     1      -9.799   6.577  67.115  1.00  0.00    -0.148 A  
HETATM    6  C   UNL     1     -10.630   7.712  67.291  1.00  0.00    -0.318 A  
HETATM    7  N   UNL     1     -10.493   8.596  68.388  1.00  0.00    -0.203 NA 
HETATM    8  C   UNL     1     -11.378   9.658  68.519  1.00  0.00     0.168 C  
HETATM    9  C   UNL     1     -12.387   9.963  67.689  1.00  0.00     4.639 C  
HETATM   10  C   UNL     1     -12.561   9.088  66.513  1.00  0.00    12.439 C  
HETATM   11  C   UNL     1     -13.263  11.110  67.997  1.00  0.00     6.194 C  
HETATM   12  C   UNL     1     -11.627   7.956  66.329  1.00  0.00     4.430 A  
HETATM   13  O   UNL     1     -13.106  11.838  68.966  1.00  0.00     0.998 OA 
HETATM   14  O   UNL     1     -14.275  11.291  67.120  1.00  0.00    14.199 OA 
HETATM   15  O   UNL     1     -13.477   9.304  65.720  1.00  0.00    17.888 OA 
HETATM   16  C   UNL     1     -11.786   7.133  65.221  1.00  0.00     9.772 A  
HETATM   17  C   UNL     1     -10.940   6.048  65.057  1.00  0.00     3.719 A  
HETATM   18  C   UNL     1      -9.917   5.723  65.977  1.00  0.00     0.057 A  
HETATM   19  F   UNL     1     -11.185   5.254  64.000  1.00  0.00     1.319 F  
ENDROOT
BRANCH  18  20
HETATM   20  N   UNL     1      -9.130   4.595  65.756  1.00  0.00    -0.132 NA 
HETATM   21  C   UNL     1      -7.703   4.543  66.091  1.00  0.00    -0.094 C  
HETATM   22  C   UNL     1      -7.333   3.133  66.612  1.00  0.00    -0.074 C  
HETATM   23  N   UNL     1      -7.740   1.996  65.756  1.00  0.00    -0.071 NA 
HETATM   24  C   UNL     1      -9.179   2.139  65.426  1.00  0.00    -0.051 C  
HETATM   25  C   UNL     1      -6.918   1.917  64.552  1.00  0.00    -0.043 C  
HETATM   26  C   UNL     1      -9.584   3.519  64.851  1.00  0.00    -0.166 C  
ENDBRANCH  18  20
TORSDOF 1
ENDMDL
MODEL      121
REMARK 921   NORMALIZED FREE ENERGY PREDICTED BY IDOCK:   76.38 KCAL/MOL
REMARK 922        TOTAL FREE ENERGY PREDICTED BY IDOCK:   80.45 KCAL/MOL
REMARK 923 INTER-LIGAND FREE ENERGY PREDICTED BY IDOCK:   80.74 KCAL/MOL
REMARK 924 INTRA-LIGAND FREE ENERGY PREDICTED BY IDOCK:   -0.29 KCAL/MOL
REMARK 927      BINDING AFFINITY PREDICTED BY RF-SCORE:    0.00 PKD
ROOT
HETATM    1  C   UNL     1      -8.446   8.821  73.663  1.00  0.00     0.403 C  
HETATM    2  C   UNL     1      -7.565   9.753  72.826  1.00  0.00     2.851 C  
HETATM    3  C   UNL     1      -6.711   8.988  71.812  1.00  0.00     0.012 C  
HETATM    4  O   UNL     1      -7.374   8.629  70.606  1.00  0.00    -0.051 OA 
HETATM    5  C   UNL     1      -8.110   9.635  70.019  1.00  0.00    -0.178 A  
HETATM    6  C   UNL     1      -8.651  10.677  70.814  1.00  0.00     2.770 A  
HETATM    7  N   UNL     1      -8.380  10.800  72.198  1.00  0.00     8.059 NA 
HETATM    8  C   UNL     1      -8.988  11.818  72.922  1.00  0.00    23.915 C  
HETATM    9  C   UNL     1      -9.832  12.744  72.441  1.00  0.00    17.973 C  
HETATM   10  C   UNL     1     -10.130  12.679  70.997  1.00  0.00     7.662 C  
HETATM   11  C   UNL     1     -10.423  13.738  73.358  1.00  0.00     8.175 C  
HETATM   12  C   UNL     1      -9.488  11.619  70.190  1.00  0.00     2.768 A  
HETATM   13  O   UNL     1     -10.162  13.794  74.551  1.00  0.00     6.156 OA 
HETATM   14  O   UNL     1     -11.296  14.587  72.773  1.00  0.00     0.448 OA 
HETATM   15  O   UNL     1     -10.908  13.489  70.495  1.00  0.00     0.894 OA 
HETATM   16  C   UNL     1      -9.764  11.557  68.829  1.00  0.00    -0.137 A  
HETATM   17  C   UNL     1      -9.198  10.547  68.068  1.00  0.00    -0.142 A  
HETATM   18  C   UNL     1      -8.351   9.554  68.615  1.00  0.00    -0.117 A  
HETATM   19  F   UNL     1      -9.553  10.503  66.772  1.00  0.00    -0.176 F  
ENDROOT
BRANCH  18  20
HETATM   20  N   UNL     1      -7.849   8.552  67.787  1.00  0.00    -0.102 NA 
HETATM   21  C   UNL     1      -8.279   7.153  67.882  1.00  0.00    -0.119 C  
HETATM   22  C   UNL     1      -8.345   6.524  66.469  1.00  0.00    -0.116 C  
HETATM   23  N   UNL     1      -7.131   6.671  65.635  1.00  0.00    -0.060 NA 
HETATM   24  C   UNL     1      -6.734   8.100  65.621  1.00  0.00    -0.055 C  
HETATM   25  C   UNL     1      -6.049   5.817  66.115  1.00  0.00    -0.029 C  
HETATM   26  C   UNL     1      -6.604   8.757  67.017  1.00  0.00    -0.062 C  
ENDBRANCH  18  20
TORSDOF 1
ENDMDL
