MODEL        1
REMARK 921   NORMALIZED FREE ENERGY PREDICTED BY IDOCK:   -7.51 KCAL/MOL
REMARK 922        TOTAL FREE ENERGY PREDICTED BY IDOCK:  -11.41 KCAL/MOL
REMARK 923 INTER-LIGAND FREE ENERGY PREDICTED BY IDOCK:  -10.14 KCAL/MOL
REMARK 924 INTRA-LIGAND FREE ENERGY PREDICTED BY IDOCK:   -1.27 KCAL/MOL
REMARK 927      BINDING AFFINITY PREDICTED BY RF-SCORE:    0.00 PKD
ROOT
HETATM    1  C   UNL     1     -10.625   5.450  69.485  1.00  0.00    -0.316 C  
HETATM    2  C   UNL     1     -10.772   6.641  70.396  1.00  0.00    -0.297 A  
HETATM    3  C   UNL     1     -10.746   6.384  71.782  1.00  0.00    -0.273 A  
HETATM    4  C   UNL     1     -10.978   7.397  72.704  1.00  0.00    -0.363 A  
HETATM    5  C   UNL     1     -11.269   8.679  72.255  1.00  0.00    -0.399 A  
HETATM    6  C   UNL     1     -11.303   8.972  70.878  1.00  0.00    -0.351 A  
HETATM    7  C   UNL     1     -11.612  10.389  70.470  1.00  0.00    -0.433 C  
HETATM    8  C   UNL     1     -10.997   7.960  69.937  1.00  0.00    -0.178 A  
ENDROOT
BRANCH   8   9
HETATM    9  N   UNL     1     -10.960   8.310  68.558  1.00  0.00    -0.426 N  
HETATM   10  C   UNL     1      -9.787   8.581  67.870  1.00  0.00    -0.170 C  
HETATM   11  H   UNL     1     -11.842   8.364  68.048  1.00  0.00     0.000 HD 
HETATM   12  O   UNL     1      -8.661   8.556  68.362  1.00  0.00    -0.136 OA 
BRANCH  10  13
HETATM   13  C   UNL     1      -9.957   9.091  66.432  1.00  0.00    -0.300 C  
BRANCH  13  14
HETATM   14  N   UNL     1      -9.254  10.360  66.118  1.00  0.00    -0.164 NA 
HETATM   15  C   UNL     1      -9.352  10.622  64.654  1.00  0.00    -0.238 C  
HETATM   16  C   UNL     1     -10.742  11.096  64.141  1.00  0.00    -0.345 C  
HETATM   17  N   UNL     1     -11.344  12.213  64.896  1.00  0.00    -0.322 NA 
HETATM   18  C   UNL     1     -11.251  11.942  66.341  1.00  0.00    -0.331 C  
HETATM   19  C   UNL     1      -9.844  11.523  66.822  1.00  0.00    -0.203 C  
BRANCH  17  20
HETATM   20  C   UNL     1     -10.771  13.518  64.541  1.00  0.00    -0.418 C  
BRANCH  20  21
HETATM   21  C   UNL     1     -11.174  14.616  65.537  1.00  0.00    -0.343 C  
BRANCH  21  22
HETATM   22  C   UNL     1     -10.109  15.707  65.736  1.00  0.00    -0.394 C  
HETATM   23  C   UNL     1     -10.497  16.815  66.751  1.00  0.00    -0.258 C  
HETATM   24  C   UNL     1      -9.517  17.990  66.762  1.00  0.00    -0.293 A  
HETATM   25  C   UNL     1     -10.726  16.214  68.135  1.00  0.00    -0.315 A  
HETATM   26  C   UNL     1      -9.676  15.594  68.835  1.00  0.00    -0.220 A  
HETATM   27  C   UNL     1      -9.991  19.275  67.088  1.00  0.00    -0.452 A  
HETATM   28  C   UNL     1      -9.137  20.380  67.057  1.00  0.00    -0.459 A  
HETATM   29  C   UNL     1      -9.919  14.931  70.038  1.00  0.00     0.146 A  
HETATM   30  C   UNL     1      -7.803  20.205  66.710  1.00  0.00    -0.303 A  
HETATM   31  C   UNL     1     -11.208  14.891  70.550  1.00  0.00    -0.202 A  
HETATM   32  F   UNL     1     -11.444  14.229  71.690  1.00  0.00    -0.221 F  
HETATM   33  C   UNL     1     -12.259  15.517  69.891  1.00  0.00    -0.351 A  
HETATM   34  F   UNL     1      -6.987  21.266  66.665  1.00  0.00    -0.325 F  
HETATM   35  C   UNL     1      -7.305  18.948  66.407  1.00  0.00    -0.267 A  
HETATM   36  C   UNL     1      -8.157  17.844  66.438  1.00  0.00    -0.296 A  
HETATM   37  C   UNL     1     -12.020  16.182  68.688  1.00  0.00     0.070 A  
ENDBRANCH  21  22
ENDBRANCH  20  21
ENDBRANCH  17  20
ENDBRANCH  13  14
ENDBRANCH  10  13
ENDBRANCH   8   9
TORSDOF 6
ENDMDL
MODEL        2
REMARK 921   NORMALIZED FREE ENERGY PREDICTED BY IDOCK:   -7.40 KCAL/MOL
REMARK 922        TOTAL FREE ENERGY PREDICTED BY IDOCK:  -11.26 KCAL/MOL
REMARK 923 INTER-LIGAND FREE ENERGY PREDICTED BY IDOCK:  -10.41 KCAL/MOL
REMARK 924 INTRA-LIGAND FREE ENERGY PREDICTED BY IDOCK:   -0.85 KCAL/MOL
REMARK 927      BINDING AFFINITY PREDICTED BY RF-SCORE:    0.00 PKD
ROOT
HETATM    1  C   UNL     1     -10.256  16.809  68.328  1.00  0.00    -0.295 C  
HETATM    2  C   UNL     1      -9.662  18.176  68.112  1.00  0.00    -0.331 A  
HETATM    3  C   UNL     1     -10.504  19.149  67.537  1.00  0.00    -0.549 A  
HETATM    4  C   UNL     1     -10.022  20.407  67.200  1.00  0.00    -0.568 A  
HETATM    5  C   UNL     1      -8.681  20.705  67.405  1.00  0.00    -0.311 A  
HETATM    6  C   UNL     1      -7.810  19.758  67.976  1.00  0.00    -0.342 A  
HETATM    7  C   UNL     1      -6.373  20.160  68.180  1.00  0.00    -0.308 C  
HETATM    8  C   UNL     1      -8.312  18.500  68.387  1.00  0.00    -0.332 A  
ENDROOT
BRANCH   8   9
HETATM    9  N   UNL     1      -7.423  17.597  69.036  1.00  0.00    -0.215 N  
HETATM   10  C   UNL     1      -6.481  16.835  68.362  1.00  0.00    -0.144 C  
HETATM   11  H   UNL     1      -7.483  17.506  70.051  1.00  0.00     0.000 HD 
HETATM   12  O   UNL     1      -6.308  16.846  67.146  1.00  0.00    -0.150 OA 
BRANCH  10  13
HETATM   13  C   UNL     1      -5.722  15.807  69.212  1.00  0.00    -0.111 C  
BRANCH  13  14
HETATM   14  N   UNL     1      -6.529  14.658  69.697  1.00  0.00    -0.138 NA 
HETATM   15  C   UNL     1      -7.588  14.350  68.695  1.00  0.00    -0.132 C  
HETATM   16  C   UNL     1      -7.107  13.650  67.393  1.00  0.00    -0.079 C  
HETATM   17  N   UNL     1      -6.245  12.468  67.595  1.00  0.00    -0.125 NA 
HETATM   18  C   UNL     1      -5.195  12.784  68.580  1.00  0.00    -0.060 C  
HETATM   19  C   UNL     1      -5.716  13.433  69.881  1.00  0.00    -0.119 C  
BRANCH  17  20
HETATM   20  C   UNL     1      -7.001  11.263  67.962  1.00  0.00    -0.068 C  
BRANCH  20  21
HETATM   21  C   UNL     1      -8.377  11.216  67.282  1.00  0.00    -0.135 C  
BRANCH  21  22
HETATM   22  C   UNL     1      -9.563  11.230  68.260  1.00  0.00    -0.193 C  
HETATM   23  C   UNL     1     -10.333  12.576  68.329  1.00  0.00    -0.241 C  
HETATM   24  C   UNL     1     -11.362  12.623  69.460  1.00  0.00    -0.227 A  
HETATM   25  C   UNL     1     -10.927  12.919  66.965  1.00  0.00    -0.290 A  
HETATM   26  C   UNL     1     -11.910  12.102  66.379  1.00  0.00    -0.321 A  
HETATM   27  C   UNL     1     -11.664  13.860  70.060  1.00  0.00    -0.338 A  
HETATM   28  C   UNL     1     -12.558  13.935  71.131  1.00  0.00    -0.446 A  
HETATM   29  C   UNL     1     -12.353  12.345  65.079  1.00  0.00    -0.441 A  
HETATM   30  C   UNL     1     -13.163  12.775  71.601  1.00  0.00    -0.317 A  
HETATM   31  C   UNL     1     -11.824  13.409  64.363  1.00  0.00    -0.408 A  
HETATM   32  F   UNL     1     -12.230  13.623  63.105  1.00  0.00    -0.552 F  
HETATM   33  C   UNL     1     -10.870  14.247  64.927  1.00  0.00    -0.429 A  
HETATM   34  F   UNL     1     -14.008  12.843  72.638  1.00  0.00    -0.622 F  
HETATM   35  C   UNL     1     -12.900  11.547  71.013  1.00  0.00    -0.358 A  
HETATM   36  C   UNL     1     -12.008  11.472  69.944  1.00  0.00    -0.426 A  
HETATM   37  C   UNL     1     -10.425  14.008  66.228  1.00  0.00    -0.286 A  
ENDBRANCH  21  22
ENDBRANCH  20  21
ENDBRANCH  17  20
ENDBRANCH  13  14
ENDBRANCH  10  13
ENDBRANCH   8   9
TORSDOF 6
ENDMDL
MODEL        3
REMARK 921   NORMALIZED FREE ENERGY PREDICTED BY IDOCK:   -7.39 KCAL/MOL
REMARK 922        TOTAL FREE ENERGY PREDICTED BY IDOCK:  -11.25 KCAL/MOL
REMARK 923 INTER-LIGAND FREE ENERGY PREDICTED BY IDOCK:  -10.65 KCAL/MOL
REMARK 924 INTRA-LIGAND FREE ENERGY PREDICTED BY IDOCK:   -0.60 KCAL/MOL
REMARK 927      BINDING AFFINITY PREDICTED BY RF-SCORE:    0.00 PKD
ROOT
HETATM    1  C   UNL     1     -10.465   6.752  73.885  1.00  0.00    -0.356 C  
HETATM    2  C   UNL     1     -10.422   5.404  73.215  1.00  0.00    -0.260 A  
HETATM    3  C   UNL     1     -10.667   4.283  74.033  1.00  0.00    -0.320 A  
HETATM    4  C   UNL     1     -10.547   2.991  73.535  1.00  0.00    -0.270 A  
HETATM    5  C   UNL     1     -10.150   2.798  72.217  1.00  0.00    -0.225 A  
HETATM    6  C   UNL     1      -9.897   3.895  71.372  1.00  0.00    -0.243 A  
HETATM    7  C   UNL     1      -9.484   3.605  69.952  1.00  0.00    -0.262 C  
HETATM    8  C   UNL     1     -10.087   5.212  71.853  1.00  0.00    -0.197 A  
ENDROOT
BRANCH   8   9
HETATM    9  N   UNL     1      -9.902   6.295  70.949  1.00  0.00    -0.180 N  
HETATM   10  C   UNL     1     -10.935   6.870  70.224  1.00  0.00    -0.281 C  
HETATM   11  H   UNL     1      -8.961   6.668  70.827  1.00  0.00     0.000 HD 
HETATM   12  O   UNL     1     -12.111   6.516  70.273  1.00  0.00    -0.348 OA 
BRANCH  10  13
HETATM   13  C   UNL     1     -10.519   7.921  69.185  1.00  0.00    -0.209 C  
BRANCH  13  14
HETATM   14  N   UNL     1     -10.048   9.215  69.742  1.00  0.00    -0.191 NA 
HETATM   15  C   UNL     1      -9.891  10.195  68.630  1.00  0.00    -0.162 C  
HETATM   16  C   UNL     1     -11.210  10.764  68.036  1.00  0.00    -0.307 C  
HETATM   17  N   UNL     1     -12.177  11.277  69.027  1.00  0.00    -0.464 NA 
HETATM   18  C   UNL     1     -12.334  10.299  70.117  1.00  0.00    -0.142 C  
HETATM   19  C   UNL     1     -11.003   9.793  70.716  1.00  0.00    -0.336 C  
BRANCH  17  20
HETATM   20  C   UNL     1     -11.829  12.612  69.529  1.00  0.00    -0.312 C  
BRANCH  20  21
HETATM   21  C   UNL     1     -10.589  13.187  68.829  1.00  0.00    -0.225 C  
BRANCH  21  22
HETATM   22  C   UNL     1     -10.653  14.704  68.580  1.00  0.00    -0.252 C  
HETATM   23  C   UNL     1      -9.959  15.177  67.275  1.00  0.00    -0.230 C  
HETATM   24  C   UNL     1      -9.853  16.700  67.168  1.00  0.00    -0.257 A  
HETATM   25  C   UNL     1     -10.621  14.537  66.058  1.00  0.00    -0.311 A  
HETATM   26  C   UNL     1     -11.962  14.810  65.737  1.00  0.00    -0.155 A  
HETATM   27  C   UNL     1      -8.775  17.264  66.461  1.00  0.00    -0.293 A  
HETATM   28  C   UNL     1      -8.616  18.650  66.388  1.00  0.00    -0.284 A  
HETATM   29  C   UNL     1     -12.599  14.123  64.704  1.00  0.00    -0.285 A  
HETATM   30  C   UNL     1      -9.540  19.479  67.012  1.00  0.00    -0.337 A  
HETATM   31  C   UNL     1     -11.899  13.168  63.982  1.00  0.00    -0.453 A  
HETATM   32  F   UNL     1     -12.521  12.489  63.010  1.00  0.00    -0.547 F  
HETATM   33  C   UNL     1     -10.565  12.896  64.262  1.00  0.00    -0.430 A  
HETATM   34  F   UNL     1      -9.381  20.808  66.956  1.00  0.00    -0.489 F  
HETATM   35  C   UNL     1     -10.624  18.950  67.696  1.00  0.00    -0.501 A  
HETATM   36  C   UNL     1     -10.783  17.566  67.770  1.00  0.00    -0.333 A  
HETATM   37  C   UNL     1      -9.923  13.582  65.294  1.00  0.00    -0.206 A  
ENDBRANCH  21  22
ENDBRANCH  20  21
ENDBRANCH  17  20
ENDBRANCH  13  14
ENDBRANCH  10  13
ENDBRANCH   8   9
TORSDOF 6
ENDMDL
MODEL        4
REMARK 921   NORMALIZED FREE ENERGY PREDICTED BY IDOCK:   -7.31 KCAL/MOL
REMARK 922        TOTAL FREE ENERGY PREDICTED BY IDOCK:  -11.14 KCAL/MOL
REMARK 923 INTER-LIGAND FREE ENERGY PREDICTED BY IDOCK:  -10.22 KCAL/MOL
REMARK 924 INTRA-LIGAND FREE ENERGY PREDICTED BY IDOCK:   -0.92 KCAL/MOL
REMARK 927      BINDING AFFINITY PREDICTED BY RF-SCORE:    0.00 PKD
ROOT
HETATM    1  C   UNL     1     -11.112  16.467  70.395  1.00  0.00    -0.246 C  
HETATM    2  C   UNL     1     -11.995  15.352  70.889  1.00  0.00    -0.406 A  
HETATM    3  C   UNL     1     -12.968  15.693  71.850  1.00  0.00    -0.541 A  
HETATM    4  C   UNL     1     -13.762  14.720  72.445  1.00  0.00    -0.576 A  
HETATM    5  C   UNL     1     -13.574  13.384  72.112  1.00  0.00    -0.660 A  
HETATM    6  C   UNL     1     -12.611  13.006  71.157  1.00  0.00    -0.388 A  
HETATM    7  C   UNL     1     -12.477  11.540  70.839  1.00  0.00    -0.464 C  
HETATM    8  C   UNL     1     -11.851  14.000  70.495  1.00  0.00    -0.269 A  
ENDROOT
BRANCH   8   9
HETATM    9  N   UNL     1     -10.945  13.590  69.476  1.00  0.00    -0.452 N  
HETATM   10  C   UNL     1     -11.192  13.757  68.122  1.00  0.00    -0.271 C  
HETATM   11  H   UNL     1     -10.068  13.151  69.757  1.00  0.00     0.000 HD 
HETATM   12  O   UNL     1     -12.207  14.267  67.650  1.00  0.00    -0.337 OA 
BRANCH  10  13
HETATM   13  C   UNL     1     -10.173  13.114  67.172  1.00  0.00    -0.244 C  
BRANCH  13  14
HETATM   14  N   UNL     1     -10.673  11.956  66.388  1.00  0.00    -0.256 NA 
HETATM   15  C   UNL     1      -9.536  11.340  65.649  1.00  0.00    -0.229 C  
HETATM   16  C   UNL     1      -8.537  10.513  66.507  1.00  0.00    -0.137 C  
HETATM   17  N   UNL     1      -9.154   9.517  67.405  1.00  0.00    -0.130 NA 
HETATM   18  C   UNL     1     -10.272  10.136  68.139  1.00  0.00    -0.171 C  
HETATM   19  C   UNL     1     -11.270  10.907  67.247  1.00  0.00    -0.233 C  
BRANCH  17  20
HETATM   20  C   UNL     1      -9.565   8.292  66.706  1.00  0.00    -0.224 C  
BRANCH  20  21
HETATM   21  C   UNL     1     -10.707   7.567  67.434  1.00  0.00    -0.331 C  
BRANCH  21  22
HETATM   22  C   UNL     1     -10.298   6.227  68.069  1.00  0.00    -0.236 C  
HETATM   23  C   UNL     1      -9.594   6.349  69.446  1.00  0.00    -0.152 C  
HETATM   24  C   UNL     1      -9.012   5.024  69.944  1.00  0.00    -0.142 A  
HETATM   25  C   UNL     1     -10.522   7.012  70.461  1.00  0.00    -0.227 A  
HETATM   26  C   UNL     1     -11.724   6.397  70.851  1.00  0.00    -0.366 A  
HETATM   27  C   UNL     1      -7.868   5.043  70.765  1.00  0.00    -0.083 A  
HETATM   28  C   UNL     1      -7.278   3.852  71.194  1.00  0.00    -0.033 A  
HETATM   29  C   UNL     1     -12.629   7.065  71.675  1.00  0.00    -0.419 A  
HETATM   30  C   UNL     1      -7.832   2.637  70.813  1.00  0.00    -0.042 A  
HETATM   31  C   UNL     1     -12.334   8.346  72.120  1.00  0.00    -0.370 A  
HETATM   32  F   UNL     1     -13.217   8.997  72.887  1.00  0.00    -0.485 F  
HETATM   33  C   UNL     1     -11.141   8.968  71.769  1.00  0.00    -0.444 A  
HETATM   34  F   UNL     1      -7.257   1.494  71.210  1.00  0.00    -0.030 F  
HETATM   35  C   UNL     1      -8.970   2.589  70.023  1.00  0.00    -0.161 A  
HETATM   36  C   UNL     1      -9.561   3.778  69.594  1.00  0.00    -0.242 A  
HETATM   37  C   UNL     1     -10.232   8.302  70.946  1.00  0.00    -0.224 A  
ENDBRANCH  21  22
ENDBRANCH  20  21
ENDBRANCH  17  20
ENDBRANCH  13  14
ENDBRANCH  10  13
ENDBRANCH   8   9
TORSDOF 6
ENDMDL
MODEL        5
REMARK 921   NORMALIZED FREE ENERGY PREDICTED BY IDOCK:   -7.28 KCAL/MOL
REMARK 922        TOTAL FREE ENERGY PREDICTED BY IDOCK:  -11.10 KCAL/MOL
REMARK 923 INTER-LIGAND FREE ENERGY PREDICTED BY IDOCK:  -10.11 KCAL/MOL
REMARK 924 INTRA-LIGAND FREE ENERGY PREDICTED BY IDOCK:   -0.99 KCAL/MOL
REMARK 927      BINDING AFFINITY PREDICTED BY RF-SCORE:    0.00 PKD
ROOT
HETATM    1  C   UNL     1     -10.434   5.092  69.640  1.00  0.00    -0.262 C  
HETATM    2  C   UNL     1     -10.693   6.265  70.548  1.00  0.00    -0.327 A  
HETATM    3  C   UNL     1     -10.747   5.995  71.931  1.00  0.00    -0.282 A  
HETATM    4  C   UNL     1     -11.084   6.987  72.843  1.00  0.00    -0.314 A  
HETATM    5  C   UNL     1     -11.402   8.260  72.386  1.00  0.00    -0.457 A  
HETATM    6  C   UNL     1     -11.359   8.565  71.012  1.00  0.00    -0.313 A  
HETATM    7  C   UNL     1     -11.704   9.971  70.595  1.00  0.00    -0.421 C  
HETATM    8  C   UNL     1     -10.947   7.578  70.086  1.00  0.00    -0.254 A  
ENDROOT
BRANCH   8   9
HETATM    9  N   UNL     1     -10.835   7.943  68.714  1.00  0.00    -0.418 N  
HETATM   10  C   UNL     1      -9.623   8.070  68.054  1.00  0.00    -0.152 C  
HETATM   11  H   UNL     1     -11.692   8.122  68.190  1.00  0.00     0.000 HD 
HETATM   12  O   UNL     1      -8.520   7.888  68.567  1.00  0.00    -0.127 OA 
BRANCH  10  13
HETATM   13  C   UNL     1      -9.695   8.622  66.624  1.00  0.00    -0.247 C  
BRANCH  13  14
HETATM   14  N   UNL     1      -8.887   9.843  66.370  1.00  0.00    -0.141 NA 
HETATM   15  C   UNL     1      -9.313  10.448  65.077  1.00  0.00    -0.229 C  
HETATM   16  C   UNL     1     -10.684  11.181  65.089  1.00  0.00    -0.210 C  
HETATM   17  N   UNL     1     -10.869  12.152  66.186  1.00  0.00    -0.271 NA 
HETATM   18  C   UNL     1     -10.455  11.543  67.462  1.00  0.00    -0.199 C  
HETATM   19  C   UNL     1      -9.066  10.868  67.425  1.00  0.00    -0.140 C  
BRANCH  17  20
HETATM   20  C   UNL     1     -10.190  13.431  65.939  1.00  0.00    -0.299 C  
BRANCH  20  21
HETATM   21  C   UNL     1     -11.167  14.616  65.953  1.00  0.00    -0.336 C  
BRANCH  21  22
HETATM   22  C   UNL     1     -11.872  14.834  67.303  1.00  0.00    -0.316 C  
HETATM   23  C   UNL     1     -10.961  15.394  68.427  1.00  0.00    -0.284 C  
HETATM   24  C   UNL     1     -11.633  15.395  69.802  1.00  0.00    -0.339 A  
HETATM   25  C   UNL     1     -10.407  16.761  68.033  1.00  0.00    -0.317 A  
HETATM   26  C   UNL     1     -11.263  17.859  67.838  1.00  0.00     0.293 A  
HETATM   27  C   UNL     1     -10.838  15.248  70.954  1.00  0.00    -0.225 A  
HETATM   28  C   UNL     1     -11.422  15.190  72.222  1.00  0.00    -0.414 A  
HETATM   29  C   UNL     1     -10.768  19.068  67.351  1.00  0.00    -0.559 A  
HETATM   30  C   UNL     1     -12.802  15.288  72.345  1.00  0.00    -0.363 A  
HETATM   31  C   UNL     1      -9.416  19.189  67.064  1.00  0.00    -0.316 A  
HETATM   32  F   UNL     1      -8.948  20.341  66.568  1.00  0.00    -0.374 F  
HETATM   33  C   UNL     1      -8.544  18.127  67.270  1.00  0.00    -0.240 A  
HETATM   34  F   UNL     1     -13.365  15.217  73.559  1.00  0.00    -0.529 F  
HETATM   35  C   UNL     1     -13.607  15.456  71.229  1.00  0.00    -0.585 A  
HETATM   36  C   UNL     1     -13.025  15.514  69.963  1.00  0.00     0.079 A  
HETATM   37  C   UNL     1      -9.035  16.916  67.759  1.00  0.00    -0.225 A  
ENDBRANCH  21  22
ENDBRANCH  20  21
ENDBRANCH  17  20
ENDBRANCH  13  14
ENDBRANCH  10  13
ENDBRANCH   8   9
TORSDOF 6
ENDMDL
MODEL        6
REMARK 921   NORMALIZED FREE ENERGY PREDICTED BY IDOCK:   -7.20 KCAL/MOL
REMARK 922        TOTAL FREE ENERGY PREDICTED BY IDOCK:  -11.00 KCAL/MOL
REMARK 923 INTER-LIGAND FREE ENERGY PREDICTED BY IDOCK:   -9.90 KCAL/MOL
REMARK 924 INTRA-LIGAND FREE ENERGY PREDICTED BY IDOCK:   -1.10 KCAL/MOL
REMARK 927      BINDING AFFINITY PREDICTED BY RF-SCORE:    0.00 PKD
ROOT
HETATM    1  C   UNL     1      -9.937  19.989  66.696  1.00  0.00    -0.598 C  
HETATM    2  C   UNL     1      -8.541  19.832  67.237  1.00  0.00    -0.374 A  
HETATM    3  C   UNL     1      -7.684  20.945  67.114  1.00  0.00    -0.259 A  
HETATM    4  C   UNL     1      -6.348  20.867  67.486  1.00  0.00    -0.382 A  
HETATM    5  C   UNL     1      -5.837  19.665  67.959  1.00  0.00    -0.230 A  
HETATM    6  C   UNL     1      -6.662  18.532  68.095  1.00  0.00    -0.231 A  
HETATM    7  C   UNL     1      -6.038  17.270  68.629  1.00  0.00    -0.165 C  
HETATM    8  C   UNL     1      -8.040  18.627  67.786  1.00  0.00    -0.251 A  
ENDROOT
BRANCH   8   9
HETATM    9  N   UNL     1      -8.863  17.487  68.013  1.00  0.00    -0.251 N  
HETATM   10  C   UNL     1      -9.187  16.571  67.024  1.00  0.00    -0.218 C  
HETATM   11  H   UNL     1      -9.233  17.338  68.951  1.00  0.00     0.000 HD 
HETATM   12  O   UNL     1      -8.813  16.634  65.855  1.00  0.00    -0.486 OA 
BRANCH  10  13
HETATM   13  C   UNL     1     -10.210  15.496  67.419  1.00  0.00    -0.255 C  
BRANCH  13  14
HETATM   14  N   UNL     1      -9.862  14.695  68.621  1.00  0.00    -0.220 NA 
HETATM   15  C   UNL     1     -10.749  15.097  69.748  1.00  0.00    -0.274 C  
HETATM   16  C   UNL     1     -12.220  14.601  69.664  1.00  0.00    -0.283 C  
HETATM   17  N   UNL     1     -12.384  13.161  69.383  1.00  0.00    -0.111 NA 
HETATM   18  C   UNL     1     -11.510  12.773  68.262  1.00  0.00    -0.314 C  
HETATM   19  C   UNL     1     -10.045  13.241  68.404  1.00  0.00    -0.237 C  
BRANCH  17  20
HETATM   20  C   UNL     1     -12.169  12.318  70.567  1.00  0.00    -0.300 C  
BRANCH  20  21
HETATM   21  C   UNL     1     -12.726  10.900  70.374  1.00  0.00    -0.326 C  
BRANCH  21  22
HETATM   22  C   UNL     1     -12.129   9.854  71.331  1.00  0.00    -0.501 C  
HETATM   23  C   UNL     1     -11.530   8.603  70.633  1.00  0.00    -0.256 C  
HETATM   24  C   UNL     1     -11.145   7.494  71.614  1.00  0.00    -0.270 A  
HETATM   25  C   UNL     1     -10.386   9.007  69.707  1.00  0.00    -0.219 A  
HETATM   26  C   UNL     1      -9.214   9.589  70.219  1.00  0.00    -0.303 A  
HETATM   27  C   UNL     1     -11.202   6.153  71.190  1.00  0.00    -0.355 A  
HETATM   28  C   UNL     1     -10.909   5.112  72.074  1.00  0.00    -0.194 A  
HETATM   29  C   UNL     1      -8.229  10.076  69.360  1.00  0.00    -0.158 A  
HETATM   30  C   UNL     1     -10.547   5.406  73.383  1.00  0.00    -0.258 A  
HETATM   31  C   UNL     1      -8.406   9.976  67.988  1.00  0.00    -0.117 A  
HETATM   32  F   UNL     1      -7.473  10.470  67.164  1.00  0.00    -0.090 F  
HETATM   33  C   UNL     1      -9.545   9.382  67.455  1.00  0.00    -0.174 A  
HETATM   34  F   UNL     1     -10.281   4.407  74.235  1.00  0.00    -0.164 F  
HETATM   35  C   UNL     1     -10.460   6.718  73.820  1.00  0.00    -0.383 A  
HETATM   36  C   UNL     1     -10.753   7.759  72.939  1.00  0.00    -0.446 A  
HETATM   37  C   UNL     1     -10.532   8.893  68.312  1.00  0.00    -0.243 A  
ENDBRANCH  21  22
ENDBRANCH  20  21
ENDBRANCH  17  20
ENDBRANCH  13  14
ENDBRANCH  10  13
ENDBRANCH   8   9
TORSDOF 6
ENDMDL
MODEL        7
REMARK 921   NORMALIZED FREE ENERGY PREDICTED BY IDOCK:   -7.13 KCAL/MOL
REMARK 922        TOTAL FREE ENERGY PREDICTED BY IDOCK:  -10.90 KCAL/MOL
REMARK 923 INTER-LIGAND FREE ENERGY PREDICTED BY IDOCK:  -10.02 KCAL/MOL
REMARK 924 INTRA-LIGAND FREE ENERGY PREDICTED BY IDOCK:   -0.88 KCAL/MOL
REMARK 927      BINDING AFFINITY PREDICTED BY RF-SCORE:    0.00 PKD
ROOT
HETATM    1  C   UNL     1      -9.189   2.840  70.483  1.00  0.00    -0.208 C  
HETATM    2  C   UNL     1      -9.884   3.908  71.287  1.00  0.00    -0.227 A  
HETATM    3  C   UNL     1     -10.262   3.565  72.601  1.00  0.00    -0.241 A  
HETATM    4  C   UNL     1     -11.001   4.441  73.386  1.00  0.00    -0.375 A  
HETATM    5  C   UNL     1     -11.400   5.664  72.861  1.00  0.00    -0.325 A  
HETATM    6  C   UNL     1     -11.041   6.039  71.552  1.00  0.00    -0.336 A  
HETATM    7  C   UNL     1     -11.499   7.386  71.058  1.00  0.00    -0.307 C  
HETATM    8  C   UNL     1     -10.228   5.181  70.774  1.00  0.00    -0.238 A  
ENDROOT
BRANCH   8   9
HETATM    9  N   UNL     1      -9.814   5.627  69.487  1.00  0.00    -0.166 N  
HETATM   10  C   UNL     1      -8.540   6.103  69.217  1.00  0.00    -0.119 C  
HETATM   11  H   UNL     1     -10.489   5.594  68.723  1.00  0.00     0.000 HD 
HETATM   12  O   UNL     1      -7.634   6.198  70.043  1.00  0.00    -0.090 OA 
BRANCH  10  13
HETATM   13  C   UNL     1      -8.327   6.682  67.811  1.00  0.00    -0.122 C  
BRANCH  13  14
HETATM   14  N   UNL     1      -9.252   7.779  67.426  1.00  0.00    -0.135 NA 
HETATM   15  C   UNL     1      -9.114   8.897  68.401  1.00  0.00    -0.137 C  
HETATM   16  C   UNL     1      -7.820   9.749  68.277  1.00  0.00    -0.089 C  
HETATM   17  N   UNL     1      -7.507  10.226  66.915  1.00  0.00    -0.099 NA 
HETATM   18  C   UNL     1      -7.637   9.113  65.959  1.00  0.00    -0.095 C  
HETATM   19  C   UNL     1      -8.957   8.320  66.079  1.00  0.00    -0.181 C  
BRANCH  17  20
HETATM   20  C   UNL     1      -8.310  11.391  66.518  1.00  0.00    -0.164 C  
BRANCH  20  21
HETATM   21  C   UNL     1      -8.259  12.512  67.566  1.00  0.00    -0.175 C  
BRANCH  21  22
HETATM   22  C   UNL     1      -9.447  12.514  68.543  1.00  0.00    -0.100 C  
HETATM   23  C   UNL     1     -10.396  13.735  68.408  1.00  0.00    -0.247 C  
HETATM   24  C   UNL     1     -11.434  13.816  69.529  1.00  0.00    -0.327 A  
HETATM   25  C   UNL     1     -11.016  13.776  67.014  1.00  0.00    -0.297 A  
HETATM   26  C   UNL     1     -11.870  12.750  66.573  1.00  0.00    -0.471 A  
HETATM   27  C   UNL     1     -11.911  15.078  69.932  1.00  0.00    -0.362 A  
HETATM   28  C   UNL     1     -12.819  15.195  70.987  1.00  0.00    -0.477 A  
HETATM   29  C   UNL     1     -12.327  12.724  65.256  1.00  0.00    -0.546 A  
HETATM   30  C   UNL     1     -13.263  14.050  71.638  1.00  0.00    -0.368 A  
HETATM   31  C   UNL     1     -11.942  13.726  64.377  1.00  0.00    -0.445 A  
HETATM   32  F   UNL     1     -12.359  13.683  63.105  1.00  0.00    -0.579 F  
HETATM   33  C   UNL     1     -11.119  14.765  64.794  1.00  0.00    -0.393 A  
HETATM   34  F   UNL     1     -14.121  14.162  72.660  1.00  0.00    -0.534 F  
HETATM   35  C   UNL     1     -12.827  12.794  71.247  1.00  0.00    -0.355 A  
HETATM   36  C   UNL     1     -11.921  12.676  70.193  1.00  0.00    -0.375 A  
HETATM   37  C   UNL     1     -10.660  14.795  66.111  1.00  0.00    -0.314 A  
ENDBRANCH  21  22
ENDBRANCH  20  21
ENDBRANCH  17  20
ENDBRANCH  13  14
ENDBRANCH  10  13
ENDBRANCH   8   9
TORSDOF 6
ENDMDL
MODEL        8
REMARK 921   NORMALIZED FREE ENERGY PREDICTED BY IDOCK:   -7.09 KCAL/MOL
REMARK 922        TOTAL FREE ENERGY PREDICTED BY IDOCK:  -10.85 KCAL/MOL
REMARK 923 INTER-LIGAND FREE ENERGY PREDICTED BY IDOCK:  -10.06 KCAL/MOL
REMARK 924 INTRA-LIGAND FREE ENERGY PREDICTED BY IDOCK:   -0.78 KCAL/MOL
REMARK 927      BINDING AFFINITY PREDICTED BY RF-SCORE:    0.00 PKD
ROOT
HETATM    1  C   UNL     1      -9.656   3.187  70.697  1.00  0.00    -0.212 C  
HETATM    2  C   UNL     1      -9.867   4.061  71.906  1.00  0.00    -0.247 A  
HETATM    3  C   UNL     1     -10.064   3.403  73.136  1.00  0.00    -0.215 A  
HETATM    4  C   UNL     1     -10.371   4.114  74.290  1.00  0.00    -0.272 A  
HETATM    5  C   UNL     1     -10.515   5.495  74.226  1.00  0.00    -0.275 A  
HETATM    6  C   UNL     1     -10.326   6.186  73.014  1.00  0.00    -0.223 A  
HETATM    7  C   UNL     1     -10.486   7.683  73.028  1.00  0.00    -0.414 C  
HETATM    8  C   UNL     1      -9.943   5.474  71.852  1.00  0.00    -0.180 A  
ENDROOT
BRANCH   8   9
HETATM    9  N   UNL     1      -9.679   6.212  70.664  1.00  0.00    -0.172 N  
HETATM   10  C   UNL     1     -10.665   6.595  69.768  1.00  0.00    -0.257 C  
HETATM   11  H   UNL     1      -8.714   6.472  70.461  1.00  0.00     0.000 HD 
HETATM   12  O   UNL     1     -11.862   6.344  69.889  1.00  0.00    -0.384 OA 
BRANCH  10  13
HETATM   13  C   UNL     1     -10.170   7.247  68.469  1.00  0.00    -0.181 C  
BRANCH  13  14
HETATM   14  N   UNL     1      -9.267   8.413  68.645  1.00  0.00    -0.143 NA 
HETATM   15  C   UNL     1      -8.931   8.975  67.306  1.00  0.00    -0.127 C  
HETATM   16  C   UNL     1     -10.064   9.774  66.602  1.00  0.00    -0.237 C  
HETATM   17  N   UNL     1     -10.717  10.806  67.433  1.00  0.00    -0.249 NA 
HETATM   18  C   UNL     1     -11.053  10.240  68.751  1.00  0.00    -0.228 C  
HETATM   19  C   UNL     1      -9.890   9.495  69.442  1.00  0.00    -0.186 C  
BRANCH  17  20
HETATM   20  C   UNL     1      -9.923  12.036  67.548  1.00  0.00    -0.192 C  
BRANCH  20  21
HETATM   21  C   UNL     1     -10.611  13.087  68.431  1.00  0.00    -0.264 C  
BRANCH  21  22
HETATM   22  C   UNL     1      -9.941  14.471  68.401  1.00  0.00    -0.241 C  
HETATM   23  C   UNL     1     -10.916  15.668  68.565  1.00  0.00    -0.303 C  
HETATM   24  C   UNL     1     -10.252  17.023  68.314  1.00  0.00    -0.326 A  
HETATM   25  C   UNL     1     -11.630  15.592  69.912  1.00  0.00    -0.348 A  
HETATM   26  C   UNL     1     -10.912  15.691  71.116  1.00  0.00    -0.245 A  
HETATM   27  C   UNL     1     -11.027  18.082  67.804  1.00  0.00    -0.106 A  
HETATM   28  C   UNL     1     -10.443  19.318  67.512  1.00  0.00    -0.564 A  
HETATM   29  C   UNL     1     -11.548  15.490  72.341  1.00  0.00    -0.543 A  
HETATM   30  C   UNL     1      -9.085  19.504  67.738  1.00  0.00    -0.320 A  
HETATM   31  C   UNL     1     -12.904  15.197  72.369  1.00  0.00    -0.356 A  
HETATM   32  F   UNL     1     -13.506  14.975  73.544  1.00  0.00    -0.504 F  
HETATM   33  C   UNL     1     -13.642  15.118  71.194  1.00  0.00    -0.525 A  
HETATM   34  F   UNL     1      -8.521  20.683  67.444  1.00  0.00    -0.383 F  
HETATM   35  C   UNL     1      -8.304  18.485  68.261  1.00  0.00    -0.344 A  
HETATM   36  C   UNL     1      -8.885  17.251  68.552  1.00  0.00    -0.269 A  
HETATM   37  C   UNL     1     -13.009  15.320  69.967  1.00  0.00    -0.026 A  
ENDBRANCH  21  22
ENDBRANCH  20  21
ENDBRANCH  17  20
ENDBRANCH  13  14
ENDBRANCH  10  13
ENDBRANCH   8   9
TORSDOF 6
ENDMDL
MODEL        9
REMARK 921   NORMALIZED FREE ENERGY PREDICTED BY IDOCK:   -7.02 KCAL/MOL
REMARK 922        TOTAL FREE ENERGY PREDICTED BY IDOCK:  -10.75 KCAL/MOL
REMARK 923 INTER-LIGAND FREE ENERGY PREDICTED BY IDOCK:   -9.98 KCAL/MOL
REMARK 924 INTRA-LIGAND FREE ENERGY PREDICTED BY IDOCK:   -0.77 KCAL/MOL
REMARK 927      BINDING AFFINITY PREDICTED BY RF-SCORE:    0.00 PKD
ROOT
HETATM    1  C   UNL     1      -9.464   3.041  70.236  1.00  0.00    -0.210 C  
HETATM    2  C   UNL     1      -9.865   3.711  71.524  1.00  0.00    -0.227 A  
HETATM    3  C   UNL     1     -10.205   2.865  72.599  1.00  0.00    -0.234 A  
HETATM    4  C   UNL     1     -10.689   3.382  73.794  1.00  0.00    -0.299 A  
HETATM    5  C   UNL     1     -10.868   4.753  73.925  1.00  0.00    -0.360 A  
HETATM    6  C   UNL     1     -10.540   5.629  72.872  1.00  0.00    -0.268 A  
HETATM    7  C   UNL     1     -10.749   7.104  73.096  1.00  0.00    -0.385 C  
HETATM    8  C   UNL     1      -9.980   5.113  71.680  1.00  0.00    -0.184 A  
ENDROOT
BRANCH   8   9
HETATM    9  N   UNL     1      -9.582   6.032  70.668  1.00  0.00    -0.171 N  
HETATM   10  C   UNL     1     -10.415   6.443  69.639  1.00  0.00    -0.227 C  
HETATM   11  H   UNL     1      -8.634   6.408  70.702  1.00  0.00     0.000 HD 
HETATM   12  O   UNL     1     -11.574   6.067  69.479  1.00  0.00    -0.303 OA 
BRANCH  10  13
HETATM   13  C   UNL     1      -9.761   7.315  68.557  1.00  0.00    -0.149 C  
BRANCH  13  14
HETATM   14  N   UNL     1     -10.521   8.533  68.174  1.00  0.00    -0.207 NA 
HETATM   15  C   UNL     1     -10.592   9.451  69.346  1.00  0.00    -0.221 C  
HETATM   16  C   UNL     1      -9.279  10.205  69.698  1.00  0.00    -0.183 C  
HETATM   17  N   UNL     1      -8.618  10.883  68.564  1.00  0.00    -0.145 NA 
HETATM   18  C   UNL     1      -8.544   9.966  67.414  1.00  0.00    -0.125 C  
HETATM   19  C   UNL     1      -9.879   9.273  67.063  1.00  0.00    -0.198 C  
BRANCH  17  20
HETATM   20  C   UNL     1      -9.254  12.159  68.212  1.00  0.00    -0.192 C  
BRANCH  20  21
HETATM   21  C   UNL     1      -8.222  13.269  67.965  1.00  0.00    -0.162 C  
BRANCH  21  22
HETATM   22  C   UNL     1      -8.748  14.689  68.233  1.00  0.00    -0.173 C  
HETATM   23  C   UNL     1      -9.191  15.468  66.966  1.00  0.00    -0.242 C  
HETATM   24  C   UNL     1      -9.502  16.940  67.242  1.00  0.00    -0.242 A  
HETATM   25  C   UNL     1     -10.333  14.737  66.265  1.00  0.00    -0.305 A  
HETATM   26  C   UNL     1     -11.577  14.565  66.896  1.00  0.00    -0.399 A  
HETATM   27  C   UNL     1      -9.294  17.888  66.222  1.00  0.00    -0.213 A  
HETATM   28  C   UNL     1      -9.516  19.247  66.455  1.00  0.00    -0.411 A  
HETATM   29  C   UNL     1     -12.571  13.785  66.307  1.00  0.00    -0.372 A  
HETATM   30  C   UNL     1      -9.957  19.665  67.704  1.00  0.00    -0.387 A  
HETATM   31  C   UNL     1     -12.331  13.180  65.082  1.00  0.00    -0.473 A  
HETATM   32  F   UNL     1     -13.276  12.407  64.532  1.00  0.00    -0.489 F  
HETATM   33  C   UNL     1     -11.119  13.353  64.424  1.00  0.00    -0.408 A  
HETATM   34  F   UNL     1     -10.154  20.970  67.933  1.00  0.00    -0.444 F  
HETATM   35  C   UNL     1     -10.191  18.751  68.720  1.00  0.00    -0.318 A  
HETATM   36  C   UNL     1      -9.969  17.393  68.488  1.00  0.00    -0.331 A  
HETATM   37  C   UNL     1     -10.122  14.135  65.010  1.00  0.00    -0.326 A  
ENDBRANCH  21  22
ENDBRANCH  20  21
ENDBRANCH  17  20
ENDBRANCH  13  14
ENDBRANCH  10  13
ENDBRANCH   8   9
TORSDOF 6
ENDMDL
MODEL       10
REMARK 921   NORMALIZED FREE ENERGY PREDICTED BY IDOCK:   -7.01 KCAL/MOL
REMARK 922        TOTAL FREE ENERGY PREDICTED BY IDOCK:  -10.74 KCAL/MOL
REMARK 923 INTER-LIGAND FREE ENERGY PREDICTED BY IDOCK:  -10.01 KCAL/MOL
REMARK 924 INTRA-LIGAND FREE ENERGY PREDICTED BY IDOCK:   -0.72 KCAL/MOL
REMARK 927      BINDING AFFINITY PREDICTED BY RF-SCORE:    0.00 PKD
ROOT
HETATM    1  C   UNL     1     -10.568   7.233  73.081  1.00  0.00    -0.400 C  
HETATM    2  C   UNL     1     -10.506   5.743  72.875  1.00  0.00    -0.244 A  
HETATM    3  C   UNL     1     -10.904   4.936  73.960  1.00  0.00    -0.307 A  
HETATM    4  C   UNL     1     -10.784   3.553  73.908  1.00  0.00    -0.298 A  
HETATM    5  C   UNL     1     -10.236   2.954  72.780  1.00  0.00    -0.237 A  
HETATM    6  C   UNL     1      -9.827   3.729  71.677  1.00  0.00    -0.240 A  
HETATM    7  C   UNL     1      -9.256   3.005  70.486  1.00  0.00    -0.210 C  
HETATM    8  C   UNL     1     -10.014   5.131  71.697  1.00  0.00    -0.184 A  
ENDROOT
BRANCH   8   9
HETATM    9  N   UNL     1      -9.666   5.875  70.534  1.00  0.00    -0.171 N  
HETATM   10  C   UNL     1     -10.602   6.450  69.688  1.00  0.00    -0.254 C  
HETATM   11  H   UNL     1      -8.678   5.990  70.311  1.00  0.00     0.000 HD 
HETATM   12  O   UNL     1     -11.820   6.385  69.837  1.00  0.00    -0.384 OA 
BRANCH  10  13
HETATM   13  C   UNL     1     -10.044   7.079  68.403  1.00  0.00    -0.164 C  
BRANCH  13  14
HETATM   14  N   UNL     1      -9.140   8.240  68.602  1.00  0.00    -0.140 NA 
HETATM   15  C   UNL     1      -8.881   8.887  67.285  1.00  0.00    -0.128 C  
HETATM   16  C   UNL     1     -10.056   9.718  66.695  1.00  0.00    -0.237 C  
HETATM   17  N   UNL     1     -10.668  10.690  67.624  1.00  0.00    -0.246 NA 
HETATM   18  C   UNL     1     -10.929  10.040  68.920  1.00  0.00    -0.207 C  
HETATM   19  C   UNL     1      -9.724   9.265  69.498  1.00  0.00    -0.173 C  
BRANCH  17  20
HETATM   20  C   UNL     1      -9.877  11.918  67.772  1.00  0.00    -0.184 C  
BRANCH  20  21
HETATM   21  C   UNL     1     -10.727  13.096  68.271  1.00  0.00    -0.261 C  
BRANCH  21  22
HETATM   22  C   UNL     1      -9.988  14.445  68.282  1.00  0.00    -0.232 C  
HETATM   23  C   UNL     1     -10.895  15.680  68.528  1.00  0.00    -0.282 C  
HETATM   24  C   UNL     1     -10.170  17.010  68.318  1.00  0.00    -0.326 A  
HETATM   25  C   UNL     1     -11.574  15.578  69.892  1.00  0.00    -0.348 A  
HETATM   26  C   UNL     1     -10.820  15.585  71.077  1.00  0.00    -0.203 A  
HETATM   27  C   UNL     1     -10.903  18.129  67.880  1.00  0.00    -0.225 A  
HETATM   28  C   UNL     1     -10.265  19.346  67.626  1.00  0.00    -0.526 A  
HETATM   29  C   UNL     1     -11.431  15.359  72.310  1.00  0.00    -0.506 A  
HETATM   30  C   UNL     1      -8.893  19.454  67.820  1.00  0.00    -0.313 A  
HETATM   31  C   UNL     1     -12.799  15.134  72.365  1.00  0.00    -0.356 A  
HETATM   32  F   UNL     1     -13.380  14.889  73.547  1.00  0.00    -0.536 F  
HETATM   33  C   UNL     1     -13.573  15.146  71.211  1.00  0.00    -0.559 A  
HETATM   34  F   UNL     1      -8.278  20.615  67.561  1.00  0.00    -0.353 F  
HETATM   35  C   UNL     1      -8.151  18.374  68.273  1.00  0.00    -0.315 A  
HETATM   36  C   UNL     1      -8.787  17.159  68.526  1.00  0.00    -0.265 A  
HETATM   37  C   UNL     1     -12.964  15.373  69.975  1.00  0.00     0.002 A  
ENDBRANCH  21  22
ENDBRANCH  20  21
ENDBRANCH  17  20
ENDBRANCH  13  14
ENDBRANCH  10  13
ENDBRANCH   8   9
TORSDOF 6
ENDMDL
MODEL       11
REMARK 921   NORMALIZED FREE ENERGY PREDICTED BY IDOCK:   -7.00 KCAL/MOL
REMARK 922        TOTAL FREE ENERGY PREDICTED BY IDOCK:  -10.72 KCAL/MOL
REMARK 923 INTER-LIGAND FREE ENERGY PREDICTED BY IDOCK:   -9.99 KCAL/MOL
REMARK 924 INTRA-LIGAND FREE ENERGY PREDICTED BY IDOCK:   -0.73 KCAL/MOL
REMARK 927      BINDING AFFINITY PREDICTED BY RF-SCORE:    0.00 PKD
ROOT
HETATM    1  C   UNL     1     -11.610   7.537  71.154  1.00  0.00    -0.304 C  
HETATM    2  C   UNL     1     -11.165   6.138  71.489  1.00  0.00    -0.346 A  
HETATM    3  C   UNL     1     -11.561   5.631  72.743  1.00  0.00    -0.289 A  
HETATM    4  C   UNL     1     -11.115   4.394  73.191  1.00  0.00    -0.326 A  
HETATM    5  C   UNL     1     -10.241   3.654  72.404  1.00  0.00    -0.215 A  
HETATM    6  C   UNL     1      -9.824   4.129  71.146  1.00  0.00    -0.244 A  
HETATM    7  C   UNL     1      -8.887   3.263  70.345  1.00  0.00    -0.148 C  
HETATM    8  C   UNL     1     -10.332   5.355  70.655  1.00  0.00    -0.262 A  
ENDROOT
BRANCH   8   9
HETATM    9  N   UNL     1      -9.955   5.766  69.345  1.00  0.00    -0.172 N  
HETATM   10  C   UNL     1      -8.770   6.428  69.063  1.00  0.00    -0.123 C  
HETATM   11  H   UNL     1     -10.590   5.562  68.573  1.00  0.00     0.000 HD 
HETATM   12  O   UNL     1      -7.922   6.737  69.897  1.00  0.00    -0.115 OA 
BRANCH  10  13
HETATM   13  C   UNL     1      -8.610   6.928  67.620  1.00  0.00    -0.121 C  
BRANCH  13  14
HETATM   14  N   UNL     1      -9.502   8.050  67.231  1.00  0.00    -0.149 NA 
HETATM   15  C   UNL     1      -9.401   9.129  68.252  1.00  0.00    -0.135 C  
HETATM   16  C   UNL     1      -8.093   9.969  68.226  1.00  0.00    -0.104 C  
HETATM   17  N   UNL     1      -7.706  10.491  66.900  1.00  0.00    -0.110 NA 
HETATM   18  C   UNL     1      -7.800   9.416  65.897  1.00  0.00    -0.099 C  
HETATM   19  C   UNL     1      -9.134   8.636  65.921  1.00  0.00    -0.205 C  
BRANCH  17  20
HETATM   20  C   UNL     1      -8.474  11.680  66.507  1.00  0.00    -0.141 C  
BRANCH  20  21
HETATM   21  C   UNL     1      -8.389  12.796  67.559  1.00  0.00    -0.179 C  
BRANCH  21  22
HETATM   22  C   UNL     1      -9.569  12.824  68.544  1.00  0.00    -0.113 C  
HETATM   23  C   UNL     1     -10.524  14.036  68.380  1.00  0.00    -0.254 C  
HETATM   24  C   UNL     1     -11.554  14.148  69.506  1.00  0.00    -0.349 A  
HETATM   25  C   UNL     1     -11.155  14.032  66.990  1.00  0.00    -0.312 A  
HETATM   26  C   UNL     1     -12.008  12.990  66.588  1.00  0.00    -0.453 A  
HETATM   27  C   UNL     1     -12.032  15.419  69.874  1.00  0.00    -0.384 A  
HETATM   28  C   UNL     1     -12.932  15.565  70.933  1.00  0.00    -0.526 A  
HETATM   29  C   UNL     1     -12.476  12.922  65.275  1.00  0.00    -0.552 A  
HETATM   30  C   UNL     1     -13.366  14.439  71.622  1.00  0.00    -0.363 A  
HETATM   31  C   UNL     1     -12.102  13.899  64.363  1.00  0.00    -0.443 A  
HETATM   32  F   UNL     1     -12.529  13.815  63.097  1.00  0.00    -0.527 F  
HETATM   33  C   UNL     1     -11.280  14.953  64.742  1.00  0.00    -0.393 A  
HETATM   34  F   UNL     1     -14.217  14.579  72.647  1.00  0.00    -0.504 F  
HETATM   35  C   UNL     1     -12.928  13.173  71.266  1.00  0.00    -0.339 A  
HETATM   36  C   UNL     1     -12.030  13.027  70.209  1.00  0.00    -0.360 A  
HETATM   37  C   UNL     1     -10.811  15.025  66.054  1.00  0.00    -0.334 A  
ENDBRANCH  21  22
ENDBRANCH  20  21
ENDBRANCH  17  20
ENDBRANCH  13  14
ENDBRANCH  10  13
ENDBRANCH   8   9
TORSDOF 6
ENDMDL
MODEL       12
REMARK 921   NORMALIZED FREE ENERGY PREDICTED BY IDOCK:   -6.98 KCAL/MOL
REMARK 922        TOTAL FREE ENERGY PREDICTED BY IDOCK:  -10.69 KCAL/MOL
REMARK 923 INTER-LIGAND FREE ENERGY PREDICTED BY IDOCK:   -9.87 KCAL/MOL
REMARK 924 INTRA-LIGAND FREE ENERGY PREDICTED BY IDOCK:   -0.82 KCAL/MOL
REMARK 927      BINDING AFFINITY PREDICTED BY RF-SCORE:    0.00 PKD
ROOT
HETATM    1  C   UNL     1      -7.696   7.090  72.817  1.00  0.00    -0.092 C  
HETATM    2  C   UNL     1      -8.153   5.733  73.284  1.00  0.00    -0.113 A  
HETATM    3  C   UNL     1      -7.146   4.805  73.617  1.00  0.00    -0.073 A  
HETATM    4  C   UNL     1      -7.460   3.495  73.957  1.00  0.00    -0.057 A  
HETATM    5  C   UNL     1      -8.786   3.082  73.940  1.00  0.00    -0.076 A  
HETATM    6  C   UNL     1      -9.819   3.981  73.611  1.00  0.00    -0.153 A  
HETATM    7  C   UNL     1     -11.233   3.461  73.629  1.00  0.00    -0.278 C  
HETATM    8  C   UNL     1      -9.510   5.334  73.335  1.00  0.00    -0.137 A  
ENDROOT
BRANCH   8   9
HETATM    9  N   UNL     1     -10.584   6.235  73.088  1.00  0.00    -0.237 N  
HETATM   10  C   UNL     1     -11.140   6.435  71.833  1.00  0.00    -0.268 C  
HETATM   11  H   UNL     1     -10.965   6.761  73.874  1.00  0.00     0.000 HD 
HETATM   12  O   UNL     1     -10.776   5.871  70.804  1.00  0.00    -0.247 OA 
BRANCH  10  13
HETATM   13  C   UNL     1     -12.183   7.558  71.736  1.00  0.00    -0.314 C  
BRANCH  13  14
HETATM   14  N   UNL     1     -11.698   8.912  72.105  1.00  0.00    -0.362 NA 
HETATM   15  C   UNL     1     -10.633   9.325  71.149  1.00  0.00    -0.332 C  
HETATM   16  C   UNL     1     -11.115   9.727  69.726  1.00  0.00    -0.237 C  
HETATM   17  N   UNL     1     -12.230  10.695  69.690  1.00  0.00    -0.261 NA 
HETATM   18  C   UNL     1     -13.282  10.275  70.630  1.00  0.00    -0.141 C  
HETATM   19  C   UNL     1     -12.772   9.932  72.047  1.00  0.00    -0.366 C  
BRANCH  17  20
HETATM   20  C   UNL     1     -11.795  12.078  69.930  1.00  0.00    -0.331 C  
BRANCH  20  21
HETATM   21  C   UNL     1     -10.741  12.537  68.912  1.00  0.00    -0.202 C  
BRANCH  21  22
HETATM   22  C   UNL     1     -10.757  14.048  68.627  1.00  0.00    -0.269 C  
HETATM   23  C   UNL     1     -10.098  14.463  67.284  1.00  0.00    -0.251 C  
HETATM   24  C   UNL     1      -9.939  15.977  67.135  1.00  0.00    -0.249 A  
HETATM   25  C   UNL     1     -10.832  13.820  66.110  1.00  0.00    -0.279 A  
HETATM   26  C   UNL     1     -12.174  14.138  65.835  1.00  0.00    -0.458 A  
HETATM   27  C   UNL     1      -8.869  16.482  66.372  1.00  0.00    -0.345 A  
HETATM   28  C   UNL     1      -8.661  17.859  66.258  1.00  0.00    -0.197 A  
HETATM   29  C   UNL     1     -12.878  13.452  64.846  1.00  0.00    -0.292 A  
HETATM   30  C   UNL     1      -9.527  18.738  66.896  1.00  0.00    -0.310 A  
HETATM   31  C   UNL     1     -12.243  12.453  64.122  1.00  0.00    -0.468 A  
HETATM   32  F   UNL     1     -12.929  11.776  63.192  1.00  0.00    -0.708 F  
HETATM   33  C   UNL     1     -10.911  12.136  64.356  1.00  0.00    -0.372 A  
HETATM   34  F   UNL     1      -9.320  20.057  66.800  1.00  0.00    -0.386 F  
HETATM   35  C   UNL     1     -10.602  18.268  67.635  1.00  0.00    -0.427 A  
HETATM   36  C   UNL     1     -10.811  16.893  67.750  1.00  0.00    -0.281 A  
HETATM   37  C   UNL     1     -10.203  12.821  65.345  1.00  0.00    -0.299 A  
ENDBRANCH  21  22
ENDBRANCH  20  21
ENDBRANCH  17  20
ENDBRANCH  13  14
ENDBRANCH  10  13
ENDBRANCH   8   9
TORSDOF 6
ENDMDL
MODEL       13
REMARK 921   NORMALIZED FREE ENERGY PREDICTED BY IDOCK:   -6.97 KCAL/MOL
REMARK 922        TOTAL FREE ENERGY PREDICTED BY IDOCK:  -10.69 KCAL/MOL
REMARK 923 INTER-LIGAND FREE ENERGY PREDICTED BY IDOCK:   -9.86 KCAL/MOL
REMARK 924 INTRA-LIGAND FREE ENERGY PREDICTED BY IDOCK:   -0.83 KCAL/MOL
REMARK 927      BINDING AFFINITY PREDICTED BY RF-SCORE:    0.00 PKD
ROOT
HETATM    1  C   UNL     1     -10.487  19.816  65.991  1.00  0.00    -0.609 C  
HETATM    2  C   UNL     1      -9.255  19.354  66.723  1.00  0.00    -0.387 A  
HETATM    3  C   UNL     1      -8.521  20.340  67.413  1.00  0.00    -0.405 A  
HETATM    4  C   UNL     1      -7.314  20.036  68.031  1.00  0.00    -0.326 A  
HETATM    5  C   UNL     1      -6.806  18.746  67.944  1.00  0.00    -0.226 A  
HETATM    6  C   UNL     1      -7.511  17.736  67.263  1.00  0.00    -0.214 A  
HETATM    7  C   UNL     1      -6.901  16.359  67.225  1.00  0.00    -0.222 C  
HETATM    8  C   UNL     1      -8.774  18.023  66.694  1.00  0.00    -0.259 A  
ENDROOT
BRANCH   8   9
HETATM    9  N   UNL     1      -9.498  16.959  66.085  1.00  0.00    -0.267 N  
HETATM   10  C   UNL     1     -10.535  16.284  66.712  1.00  0.00    -0.287 C  
HETATM   11  H   UNL     1      -9.241  16.678  65.139  1.00  0.00     0.000 HD 
HETATM   12  O   UNL     1     -10.942  16.518  67.847  1.00  0.00    -0.343 OA 
BRANCH  10  13
HETATM   13  C   UNL     1     -11.091  15.067  65.960  1.00  0.00    -0.329 C  
BRANCH  13  14
HETATM   14  N   UNL     1     -10.072  14.157  65.377  1.00  0.00    -0.344 NA 
HETATM   15  C   UNL     1      -9.371  13.441  66.479  1.00  0.00    -0.215 C  
HETATM   16  C   UNL     1     -10.182  12.318  67.183  1.00  0.00    -0.211 C  
HETATM   17  N   UNL     1     -10.825  11.344  66.278  1.00  0.00    -0.276 NA 
HETATM   18  C   UNL     1     -11.523  12.059  65.196  1.00  0.00    -0.287 C  
HETATM   19  C   UNL     1     -10.670  13.134  64.488  1.00  0.00    -0.398 C  
BRANCH  17  20
HETATM   20  C   UNL     1      -9.888  10.339  65.759  1.00  0.00    -0.257 C  
BRANCH  20  21
HETATM   21  C   UNL     1     -10.239   8.922  66.236  1.00  0.00    -0.203 C  
BRANCH  21  22
HETATM   22  C   UNL     1     -10.065   8.705  67.749  1.00  0.00    -0.266 C  
HETATM   23  C   UNL     1     -10.637   7.365  68.283  1.00  0.00    -0.204 C  
HETATM   24  C   UNL     1     -10.642   7.280  69.811  1.00  0.00    -0.247 A  
HETATM   25  C   UNL     1      -9.932   6.184  67.620  1.00  0.00    -0.150 A  
HETATM   26  C   UNL     1      -8.558   5.961  67.815  1.00  0.00    -0.105 A  
HETATM   27  C   UNL     1     -11.632   6.511  70.451  1.00  0.00    -0.470 A  
HETATM   28  C   UNL     1     -11.700   6.453  71.845  1.00  0.00    -0.378 A  
HETATM   29  C   UNL     1      -7.893   4.962  67.104  1.00  0.00    -0.095 A  
HETATM   30  C   UNL     1     -10.773   7.154  72.606  1.00  0.00    -0.268 A  
HETATM   31  C   UNL     1      -8.599   4.176  66.205  1.00  0.00    -0.113 A  
HETATM   32  F   UNL     1      -7.953   3.236  65.502  1.00  0.00    -0.082 F  
HETATM   33  C   UNL     1      -9.963   4.359  66.012  1.00  0.00    -0.256 A  
HETATM   34  F   UNL     1     -10.847   7.112  73.943  1.00  0.00    -0.399 F  
HETATM   35  C   UNL     1      -9.774   7.901  72.001  1.00  0.00    -0.244 A  
HETATM   36  C   UNL     1      -9.705   7.959  70.609  1.00  0.00    -0.175 A  
HETATM   37  C   UNL     1     -10.632   5.357  66.722  1.00  0.00    -0.339 A  
ENDBRANCH  21  22
ENDBRANCH  20  21
ENDBRANCH  17  20
ENDBRANCH  13  14
ENDBRANCH  10  13
ENDBRANCH   8   9
TORSDOF 6
ENDMDL
MODEL       14
REMARK 921   NORMALIZED FREE ENERGY PREDICTED BY IDOCK:   -6.97 KCAL/MOL
REMARK 922        TOTAL FREE ENERGY PREDICTED BY IDOCK:  -10.68 KCAL/MOL
REMARK 923 INTER-LIGAND FREE ENERGY PREDICTED BY IDOCK:   -9.83 KCAL/MOL
REMARK 924 INTRA-LIGAND FREE ENERGY PREDICTED BY IDOCK:   -0.85 KCAL/MOL
REMARK 927      BINDING AFFINITY PREDICTED BY RF-SCORE:    0.00 PKD
ROOT
HETATM    1  C   UNL     1      -9.109   4.593  69.249  1.00  0.00    -0.159 C  
HETATM    2  C   UNL     1      -9.147   3.739  70.489  1.00  0.00    -0.189 A  
HETATM    3  C   UNL     1      -8.310   2.605  70.502  1.00  0.00    -0.080 A  
HETATM    4  C   UNL     1      -8.348   1.696  71.553  1.00  0.00    -0.056 A  
HETATM    5  C   UNL     1      -9.247   1.891  72.594  1.00  0.00    -0.108 A  
HETATM    6  C   UNL     1     -10.099   3.012  72.614  1.00  0.00    -0.231 A  
HETATM    7  C   UNL     1     -11.035   3.160  73.784  1.00  0.00    -0.310 C  
HETATM    8  C   UNL     1     -10.013   3.977  71.583  1.00  0.00    -0.162 A  
ENDROOT
BRANCH   8   9
HETATM    9  N   UNL     1     -10.829   5.139  71.676  1.00  0.00    -0.119 N  
HETATM   10  C   UNL     1     -10.424   6.310  72.300  1.00  0.00    -0.199 C  
HETATM   11  H   UNL     1     -11.761   5.110  71.263  1.00  0.00     0.000 HD 
HETATM   12  O   UNL     1      -9.332   6.477  72.840  1.00  0.00    -0.137 OA 
BRANCH  10  13
HETATM   13  C   UNL     1     -11.495   7.400  72.438  1.00  0.00    -0.300 C  
BRANCH  13  14
HETATM   14  N   UNL     1     -12.136   7.828  71.168  1.00  0.00    -0.304 NA 
HETATM   15  C   UNL     1     -13.137   8.891  71.462  1.00  0.00    -0.329 C  
HETATM   16  C   UNL     1     -12.559  10.291  71.812  1.00  0.00    -0.389 C  
HETATM   17  N   UNL     1     -11.540  10.804  70.874  1.00  0.00    -0.248 NA 
HETATM   18  C   UNL     1     -10.549   9.751  70.595  1.00  0.00    -0.313 C  
HETATM   19  C   UNL     1     -11.160   8.387  70.203  1.00  0.00    -0.182 C  
BRANCH  17  20
HETATM   20  C   UNL     1     -12.121  11.354  69.642  1.00  0.00    -0.305 C  
BRANCH  20  21
HETATM   21  C   UNL     1     -11.043  11.843  68.664  1.00  0.00    -0.295 C  
BRANCH  21  22
HETATM   22  C   UNL     1     -11.004  13.370  68.482  1.00  0.00    -0.292 C  
HETATM   23  C   UNL     1     -10.283  13.853  67.196  1.00  0.00    -0.258 C  
HETATM   24  C   UNL     1     -10.073  15.368  67.156  1.00  0.00    -0.245 A  
HETATM   25  C   UNL     1     -10.991  13.314  65.955  1.00  0.00    -0.288 A  
HETATM   26  C   UNL     1     -12.310  13.693  65.655  1.00  0.00    -0.518 A  
HETATM   27  C   UNL     1      -8.960  15.888  66.469  1.00  0.00    -0.331 A  
HETATM   28  C   UNL     1      -8.708  17.262  66.456  1.00  0.00    -0.293 A  
HETATM   29  C   UNL     1     -12.997  13.098  64.596  1.00  0.00    -0.115 A  
HETATM   30  C   UNL     1      -9.571  18.124  67.122  1.00  0.00    -0.277 A  
HETATM   31  C   UNL     1     -12.365  12.130  63.828  1.00  0.00    -0.532 A  
HETATM   32  F   UNL     1     -13.036  11.540  62.831  1.00  0.00    -0.572 F  
HETATM   33  C   UNL     1     -11.053  11.755  64.088  1.00  0.00    -0.442 A  
HETATM   34  F   UNL     1      -9.320  19.439  67.124  1.00  0.00    -0.322 F  
HETATM   35  C   UNL     1     -10.686  17.640  67.788  1.00  0.00    -0.336 A  
HETATM   36  C   UNL     1     -10.940  16.268  67.801  1.00  0.00    -0.281 A  
HETATM   37  C   UNL     1     -10.362  12.349  65.146  1.00  0.00    -0.313 A  
ENDBRANCH  21  22
ENDBRANCH  20  21
ENDBRANCH  17  20
ENDBRANCH  13  14
ENDBRANCH  10  13
ENDBRANCH   8   9
TORSDOF 6
ENDMDL
MODEL       15
REMARK 921   NORMALIZED FREE ENERGY PREDICTED BY IDOCK:   -6.97 KCAL/MOL
REMARK 922        TOTAL FREE ENERGY PREDICTED BY IDOCK:  -10.68 KCAL/MOL
REMARK 923 INTER-LIGAND FREE ENERGY PREDICTED BY IDOCK:   -9.91 KCAL/MOL
REMARK 924 INTRA-LIGAND FREE ENERGY PREDICTED BY IDOCK:   -0.76 KCAL/MOL
REMARK 927      BINDING AFFINITY PREDICTED BY RF-SCORE:    0.00 PKD
ROOT
HETATM    1  C   UNL     1      -6.707  17.129  68.794  1.00  0.00    -0.200 C  
HETATM    2  C   UNL     1      -7.102  18.411  68.110  1.00  0.00    -0.256 A  
HETATM    3  C   UNL     1      -6.219  19.501  68.251  1.00  0.00    -0.258 A  
HETATM    4  C   UNL     1      -6.542  20.756  67.748  1.00  0.00    -0.385 A  
HETATM    5  C   UNL     1      -7.767  20.949  67.122  1.00  0.00    -0.259 A  
HETATM    6  C   UNL     1      -8.674  19.883  66.964  1.00  0.00    -0.402 A  
HETATM    7  C   UNL     1      -9.975  20.168  66.262  1.00  0.00    -0.557 C  
HETATM    8  C   UNL     1      -8.319  18.588  67.410  1.00  0.00    -0.256 A  
ENDROOT
BRANCH   8   9
HETATM    9  N   UNL     1      -9.223  17.517  67.160  1.00  0.00    -0.239 N  
HETATM   10  C   UNL     1     -10.218  17.135  68.047  1.00  0.00    -0.332 C  
HETATM   11  H   UNL     1      -9.133  17.003  66.284  1.00  0.00     0.000 HD 
HETATM   12  O   UNL     1     -10.433  17.665  69.135  1.00  0.00    -0.331 OA 
BRANCH  10  13
HETATM   13  C   UNL     1     -10.992  15.862  67.676  1.00  0.00    -0.298 C  
BRANCH  13  14
HETATM   14  N   UNL     1     -10.181  14.778  67.065  1.00  0.00    -0.251 NA 
HETATM   15  C   UNL     1      -9.868  13.760  68.106  1.00  0.00    -0.239 C  
HETATM   16  C   UNL     1     -11.046  12.838  68.530  1.00  0.00    -0.266 C  
HETATM   17  N   UNL     1     -11.787  12.211  67.417  1.00  0.00    -0.565 NA 
HETATM   18  C   UNL     1     -12.101  13.226  66.397  1.00  0.00    -0.394 C  
HETATM   19  C   UNL     1     -10.896  14.090  65.965  1.00  0.00    -0.295 C  
BRANCH  17  20
HETATM   20  C   UNL     1     -11.089  11.052  66.845  1.00  0.00    -0.213 C  
BRANCH  20  21
HETATM   21  C   UNL     1     -10.715  10.017  67.917  1.00  0.00    -0.322 C  
BRANCH  21  22
HETATM   22  C   UNL     1     -10.650   8.570  67.399  1.00  0.00    -0.304 C  
HETATM   23  C   UNL     1      -9.662   7.650  68.164  1.00  0.00    -0.168 C  
HETATM   24  C   UNL     1      -9.463   6.290  67.492  1.00  0.00    -0.115 A  
HETATM   25  C   UNL     1     -10.068   7.538  69.632  1.00  0.00    -0.189 A  
HETATM   26  C   UNL     1     -11.290   6.950  70.000  1.00  0.00    -0.343 A  
HETATM   27  C   UNL     1      -8.228   5.628  67.637  1.00  0.00    -0.101 A  
HETATM   28  C   UNL     1      -7.992   4.411  66.994  1.00  0.00    -0.101 A  
HETATM   29  C   UNL     1     -11.715   6.968  71.329  1.00  0.00    -0.356 A  
HETATM   30  C   UNL     1      -8.990   3.844  66.212  1.00  0.00    -0.132 A  
HETATM   31  C   UNL     1     -10.919   7.566  72.295  1.00  0.00    -0.262 A  
HETATM   32  F   UNL     1     -11.343   7.609  73.564  1.00  0.00    -0.372 F  
HETATM   33  C   UNL     1      -9.695   8.133  71.961  1.00  0.00    -0.292 A  
HETATM   34  F   UNL     1      -8.758   2.685  65.582  1.00  0.00    -0.101 F  
HETATM   35  C   UNL     1     -10.222   4.463  66.071  1.00  0.00    -0.246 A  
HETATM   36  C   UNL     1     -10.460   5.679  66.712  1.00  0.00    -0.353 A  
HETATM   37  C   UNL     1      -9.265   8.116  70.633  1.00  0.00    -0.162 A  
ENDBRANCH  21  22
ENDBRANCH  20  21
ENDBRANCH  17  20
ENDBRANCH  13  14
ENDBRANCH  10  13
ENDBRANCH   8   9
TORSDOF 6
ENDMDL
MODEL       16
REMARK 921   NORMALIZED FREE ENERGY PREDICTED BY IDOCK:   -6.93 KCAL/MOL
REMARK 922        TOTAL FREE ENERGY PREDICTED BY IDOCK:  -10.63 KCAL/MOL
REMARK 923 INTER-LIGAND FREE ENERGY PREDICTED BY IDOCK:   -9.85 KCAL/MOL
REMARK 924 INTRA-LIGAND FREE ENERGY PREDICTED BY IDOCK:   -0.78 KCAL/MOL
REMARK 927      BINDING AFFINITY PREDICTED BY RF-SCORE:    0.00 PKD
ROOT
HETATM    1  C   UNL     1      -9.214   4.366  74.478  1.00  0.00    -0.118 C  
HETATM    2  C   UNL     1      -9.303   3.815  73.080  1.00  0.00    -0.131 A  
HETATM    3  C   UNL     1      -8.850   2.493  72.890  1.00  0.00    -0.079 A  
HETATM    4  C   UNL     1      -8.791   1.930  71.621  1.00  0.00    -0.107 A  
HETATM    5  C   UNL     1      -9.156   2.689  70.516  1.00  0.00    -0.185 A  
HETATM    6  C   UNL     1      -9.613   4.012  70.668  1.00  0.00    -0.260 A  
HETATM    7  C   UNL     1     -10.003   4.765  69.424  1.00  0.00    -0.269 C  
HETATM    8  C   UNL     1      -9.742   4.566  71.963  1.00  0.00    -0.170 A  
ENDROOT
BRANCH   8   9
HETATM    9  N   UNL     1     -10.285   5.876  72.087  1.00  0.00    -0.191 N  
HETATM   10  C   UNL     1     -11.583   6.129  72.506  1.00  0.00    -0.250 C  
HETATM   11  H   UNL     1      -9.689   6.670  71.854  1.00  0.00     0.000 HD 
HETATM   12  O   UNL     1     -12.404   5.267  72.812  1.00  0.00    -0.045 OA 
BRANCH  10  13
HETATM   13  C   UNL     1     -12.037   7.593  72.427  1.00  0.00    -0.214 C  
BRANCH  13  14
HETATM   14  N   UNL     1     -12.492   8.048  71.089  1.00  0.00    -0.245 NA 
HETATM   15  C   UNL     1     -13.506   9.126  71.260  1.00  0.00    -0.225 C  
HETATM   16  C   UNL     1     -12.957  10.511  71.704  1.00  0.00    -0.476 C  
HETATM   17  N   UNL     1     -11.812  11.015  70.920  1.00  0.00    -0.275 NA 
HETATM   18  C   UNL     1     -10.810   9.947  70.763  1.00  0.00    -0.317 C  
HETATM   19  C   UNL     1     -11.386   8.600  70.272  1.00  0.00    -0.136 C  
BRANCH  17  20
HETATM   20  C   UNL     1     -12.212  11.591  69.629  1.00  0.00    -0.229 C  
BRANCH  20  21
HETATM   21  C   UNL     1     -11.003  12.068  68.810  1.00  0.00    -0.282 C  
BRANCH  21  22
HETATM   22  C   UNL     1     -10.954  13.589  68.587  1.00  0.00    -0.289 C  
HETATM   23  C   UNL     1     -10.213  14.033  67.299  1.00  0.00    -0.260 C  
HETATM   24  C   UNL     1      -9.996  15.546  67.220  1.00  0.00    -0.238 A  
HETATM   25  C   UNL     1     -10.905  13.463  66.063  1.00  0.00    -0.281 A  
HETATM   26  C   UNL     1     -12.219  13.838  65.733  1.00  0.00    -0.495 A  
HETATM   27  C   UNL     1      -8.872  16.043  66.534  1.00  0.00    -0.340 A  
HETATM   28  C   UNL     1      -8.613  17.415  66.487  1.00  0.00    -0.293 A  
HETATM   29  C   UNL     1     -12.892  13.217  64.682  1.00  0.00    -0.235 A  
HETATM   30  C   UNL     1      -9.482  18.297  67.116  1.00  0.00    -0.268 A  
HETATM   31  C   UNL     1     -12.254  12.225  63.950  1.00  0.00    -0.515 A  
HETATM   32  F   UNL     1     -12.912  11.610  62.960  1.00  0.00    -0.682 F  
HETATM   33  C   UNL     1     -10.947  11.853  64.239  1.00  0.00    -0.411 A  
HETATM   34  F   UNL     1      -9.226  19.612  67.086  1.00  0.00    -0.334 F  
HETATM   35  C   UNL     1     -10.609  17.836  67.779  1.00  0.00    -0.392 A  
HETATM   36  C   UNL     1     -10.868  16.467  67.827  1.00  0.00    -0.306 A  
HETATM   37  C   UNL     1     -10.269  12.473  65.290  1.00  0.00    -0.302 A  
ENDBRANCH  21  22
ENDBRANCH  20  21
ENDBRANCH  17  20
ENDBRANCH  13  14
ENDBRANCH  10  13
ENDBRANCH   8   9
TORSDOF 6
ENDMDL
MODEL       17
REMARK 921   NORMALIZED FREE ENERGY PREDICTED BY IDOCK:   -6.89 KCAL/MOL
REMARK 922        TOTAL FREE ENERGY PREDICTED BY IDOCK:  -10.58 KCAL/MOL
REMARK 923 INTER-LIGAND FREE ENERGY PREDICTED BY IDOCK:   -9.58 KCAL/MOL
REMARK 924 INTRA-LIGAND FREE ENERGY PREDICTED BY IDOCK:   -1.00 KCAL/MOL
REMARK 927      BINDING AFFINITY PREDICTED BY RF-SCORE:    0.00 PKD
ROOT
HETATM    1  C   UNL     1     -11.403   7.621  72.519  1.00  0.00    -0.409 C  
HETATM    2  C   UNL     1     -10.865   6.225  72.349  1.00  0.00    -0.277 A  
HETATM    3  C   UNL     1     -11.258   5.273  73.310  1.00  0.00    -0.359 A  
HETATM    4  C   UNL     1     -10.734   3.986  73.303  1.00  0.00    -0.286 A  
HETATM    5  C   UNL     1      -9.784   3.639  72.351  1.00  0.00    -0.215 A  
HETATM    6  C   UNL     1      -9.366   4.564  71.375  1.00  0.00    -0.206 A  
HETATM    7  C   UNL     1      -8.343   4.108  70.369  1.00  0.00    -0.083 C  
HETATM    8  C   UNL     1      -9.950   5.853  71.335  1.00  0.00    -0.185 A  
ENDROOT
BRANCH   8   9
HETATM    9  N   UNL     1      -9.567   6.735  70.286  1.00  0.00    -0.165 N  
HETATM   10  C   UNL     1     -10.288   6.885  69.111  1.00  0.00    -0.195 C  
HETATM   11  H   UNL     1      -8.717   7.286  70.404  1.00  0.00     0.000 HD 
HETATM   12  O   UNL     1     -11.324   6.281  68.840  1.00  0.00    -0.373 OA 
BRANCH  10  13
HETATM   13  C   UNL     1      -9.637   7.764  68.034  1.00  0.00    -0.150 C  
BRANCH  13  14
HETATM   14  N   UNL     1      -9.136   9.081  68.503  1.00  0.00    -0.133 NA 
HETATM   15  C   UNL     1      -8.354   9.722  67.409  1.00  0.00    -0.114 C  
HETATM   16  C   UNL     1      -9.185  10.295  66.226  1.00  0.00    -0.159 C  
HETATM   17  N   UNL     1     -10.315  11.163  66.614  1.00  0.00    -0.232 NA 
HETATM   18  C   UNL     1     -11.088  10.519  67.689  1.00  0.00    -0.309 C  
HETATM   19  C   UNL     1     -10.234  10.006  68.869  1.00  0.00    -0.193 C  
BRANCH  17  20
HETATM   20  C   UNL     1      -9.895  12.524  66.975  1.00  0.00    -0.217 C  
BRANCH  20  21
HETATM   21  C   UNL     1     -10.969  13.568  66.638  1.00  0.00    -0.293 C  
BRANCH  21  22
HETATM   22  C   UNL     1     -11.748  14.087  67.859  1.00  0.00    -0.397 C  
HETATM   23  C   UNL     1     -10.881  14.813  68.922  1.00  0.00    -0.259 C  
HETATM   24  C   UNL     1     -11.644  15.121  70.212  1.00  0.00    -0.325 A  
HETATM   25  C   UNL     1     -10.214  16.044  68.314  1.00  0.00    -0.237 A  
HETATM   26  C   UNL     1     -10.981  17.123  67.842  1.00  0.00    -0.208 A  
HETATM   27  C   UNL     1     -10.940  15.167  71.430  1.00  0.00    -0.119 A  
HETATM   28  C   UNL     1     -11.612  15.393  72.634  1.00  0.00    -0.504 A  
HETATM   29  C   UNL     1     -10.377  18.184  67.168  1.00  0.00    -0.391 A  
HETATM   30  C   UNL     1     -12.988  15.583  72.626  1.00  0.00    -0.445 A  
HETATM   31  C   UNL     1      -9.003  18.177  66.972  1.00  0.00    -0.263 A  
HETATM   32  F   UNL     1      -8.428  19.182  66.300  1.00  0.00    -0.295 F  
HETATM   33  C   UNL     1      -8.218  17.135  67.450  1.00  0.00    -0.197 A  
HETATM   34  F   UNL     1     -13.635  15.783  73.782  1.00  0.00    -0.451 F  
HETATM   35  C   UNL     1     -13.702  15.565  71.438  1.00  0.00    -0.532 A  
HETATM   36  C   UNL     1     -13.033  15.340  70.235  1.00  0.00    -0.228 A  
HETATM   37  C   UNL     1      -8.819  16.071  68.125  1.00  0.00    -0.178 A  
ENDBRANCH  21  22
ENDBRANCH  20  21
ENDBRANCH  17  20
ENDBRANCH  13  14
ENDBRANCH  10  13
ENDBRANCH   8   9
TORSDOF 6
ENDMDL
MODEL       18
REMARK 921   NORMALIZED FREE ENERGY PREDICTED BY IDOCK:   -6.88 KCAL/MOL
REMARK 922        TOTAL FREE ENERGY PREDICTED BY IDOCK:  -10.57 KCAL/MOL
REMARK 923 INTER-LIGAND FREE ENERGY PREDICTED BY IDOCK:  -10.13 KCAL/MOL
REMARK 924 INTRA-LIGAND FREE ENERGY PREDICTED BY IDOCK:   -0.44 KCAL/MOL
REMARK 927      BINDING AFFINITY PREDICTED BY RF-SCORE:    0.00 PKD
ROOT
HETATM    1  C   UNL     1     -12.193  11.284  71.069  1.00  0.00    -0.417 C  
HETATM    2  C   UNL     1     -12.501   9.811  71.122  1.00  0.00    -0.443 A  
HETATM    3  C   UNL     1     -13.745   9.443  71.672  1.00  0.00    -0.393 A  
HETATM    4  C   UNL     1     -14.080   8.108  71.863  1.00  0.00    -0.493 A  
HETATM    5  C   UNL     1     -13.162   7.118  71.535  1.00  0.00    -0.419 A  
HETATM    6  C   UNL     1     -11.909   7.448  70.984  1.00  0.00    -0.336 A  
HETATM    7  C   UNL     1     -10.974   6.318  70.642  1.00  0.00    -0.370 C  
HETATM    8  C   UNL     1     -11.593   8.802  70.721  1.00  0.00    -0.251 A  
ENDROOT
BRANCH   8   9
HETATM    9  N   UNL     1     -10.352   9.095  70.088  1.00  0.00    -0.200 N  
HETATM   10  C   UNL     1     -10.163   9.038  68.715  1.00  0.00    -0.208 C  
HETATM   11  H   UNL     1      -9.560   9.360  70.674  1.00  0.00     0.000 HD 
HETATM   12  O   UNL     1     -11.028   8.730  67.898  1.00  0.00    -0.075 OA 
BRANCH  10  13
HETATM   13  C   UNL     1      -8.719   9.234  68.231  1.00  0.00    -0.129 C  
BRANCH  13  14
HETATM   14  N   UNL     1      -8.215  10.631  68.278  1.00  0.00    -0.115 NA 
HETATM   15  C   UNL     1      -7.732  11.020  66.923  1.00  0.00    -0.140 C  
HETATM   16  C   UNL     1      -8.835  11.300  65.864  1.00  0.00    -0.169 C  
HETATM   17  N   UNL     1      -9.909  12.215  66.299  1.00  0.00    -0.229 NA 
HETATM   18  C   UNL     1     -10.387  11.818  67.634  1.00  0.00    -0.200 C  
HETATM   19  C   UNL     1      -9.266  11.597  68.674  1.00  0.00    -0.108 C  
BRANCH  17  20
HETATM   20  C   UNL     1      -9.510  13.628  66.253  1.00  0.00    -0.191 C  
BRANCH  20  21
HETATM   21  C   UNL     1     -10.715  14.563  66.070  1.00  0.00    -0.306 C  
BRANCH  21  22
HETATM   22  C   UNL     1     -11.545  14.777  67.347  1.00  0.00    -0.377 C  
HETATM   23  C   UNL     1     -10.763  15.403  68.532  1.00  0.00    -0.256 C  
HETATM   24  C   UNL     1     -11.554  15.402  69.842  1.00  0.00    -0.342 A  
HETATM   25  C   UNL     1     -10.238  16.786  68.153  1.00  0.00    -0.301 A  
HETATM   26  C   UNL     1     -11.122  17.838  67.856  1.00  0.00     0.070 A  
HETATM   27  C   UNL     1     -10.858  15.318  71.063  1.00  0.00    -0.183 A  
HETATM   28  C   UNL     1     -11.549  15.260  72.276  1.00  0.00    -0.530 A  
HETATM   29  C   UNL     1     -10.640  19.058  67.383  1.00  0.00    -0.559 A  
HETATM   30  C   UNL     1     -12.938  15.296  72.276  1.00  0.00    -0.369 A  
HETATM   31  C   UNL     1      -9.275  19.236  67.212  1.00  0.00    -0.303 A  
HETATM   32  F   UNL     1      -8.817  20.398  66.730  1.00  0.00    -0.372 F  
HETATM   33  C   UNL     1      -8.378  18.220  67.521  1.00  0.00    -0.247 A  
HETATM   34  F   UNL     1     -13.601  15.224  73.437  1.00  0.00    -0.516 F  
HETATM   35  C   UNL     1     -13.647  15.401  71.089  1.00  0.00    -0.536 A  
HETATM   36  C   UNL     1     -12.958  15.459  69.878  1.00  0.00     0.111 A  
HETATM   37  C   UNL     1      -8.856  16.998  67.996  1.00  0.00    -0.223 A  
ENDBRANCH  21  22
ENDBRANCH  20  21
ENDBRANCH  17  20
ENDBRANCH  13  14
ENDBRANCH  10  13
ENDBRANCH   8   9
TORSDOF 6
ENDMDL
MODEL       19
REMARK 921   NORMALIZED FREE ENERGY PREDICTED BY IDOCK:   -6.83 KCAL/MOL
REMARK 922        TOTAL FREE ENERGY PREDICTED BY IDOCK:  -10.49 KCAL/MOL
REMARK 923 INTER-LIGAND FREE ENERGY PREDICTED BY IDOCK:   -9.80 KCAL/MOL
REMARK 924 INTRA-LIGAND FREE ENERGY PREDICTED BY IDOCK:   -0.69 KCAL/MOL
REMARK 927      BINDING AFFINITY PREDICTED BY RF-SCORE:    0.00 PKD
ROOT
HETATM    1  C   UNL     1      -8.369   7.007  73.553  1.00  0.00    -0.139 C  
HETATM    2  C   UNL     1      -8.677   5.559  73.829  1.00  0.00    -0.118 A  
HETATM    3  C   UNL     1      -7.600   4.751  74.248  1.00  0.00    -0.089 A  
HETATM    4  C   UNL     1      -7.757   3.382  74.426  1.00  0.00    -0.061 A  
HETATM    5  C   UNL     1      -8.986   2.792  74.160  1.00  0.00    -0.081 A  
HETATM    6  C   UNL     1     -10.084   3.567  73.740  1.00  0.00    -0.189 A  
HETATM    7  C   UNL     1     -11.387   2.857  73.484  1.00  0.00    -0.264 C  
HETATM    8  C   UNL     1      -9.949   4.971  73.626  1.00  0.00    -0.162 A  
ENDROOT
BRANCH   8   9
HETATM    9  N   UNL     1     -11.099   5.735  73.279  1.00  0.00    -0.422 N  
HETATM   10  C   UNL     1     -11.450   6.038  71.972  1.00  0.00    -0.287 C  
HETATM   11  H   UNL     1     -11.697   6.077  74.032  1.00  0.00     0.000 HD 
HETATM   12  O   UNL     1     -10.818   5.692  70.976  1.00  0.00    -0.260 OA 
BRANCH  10  13
HETATM   13  C   UNL     1     -12.634   7.000  71.804  1.00  0.00    -0.350 C  
BRANCH  13  14
HETATM   14  N   UNL     1     -12.516   8.290  72.529  1.00  0.00    -0.301 NA 
HETATM   15  C   UNL     1     -11.286   8.995  72.072  1.00  0.00    -0.324 C  
HETATM   16  C   UNL     1     -11.356   9.632  70.655  1.00  0.00    -0.312 C  
HETATM   17  N   UNL     1     -12.543  10.472  70.400  1.00  0.00    -0.318 NA 
HETATM   18  C   UNL     1     -13.756   9.764  70.847  1.00  0.00     0.069 C  
HETATM   19  C   UNL     1     -13.667   9.188  72.277  1.00  0.00    -0.487 C  
BRANCH  17  20
HETATM   20  C   UNL     1     -12.436  11.811  70.994  1.00  0.00    -0.309 C  
BRANCH  20  21
HETATM   21  C   UNL     1     -12.069  12.877  69.951  1.00  0.00    -0.335 C  
BRANCH  21  22
HETATM   22  C   UNL     1     -11.469  12.309  68.654  1.00  0.00    -0.355 C  
HETATM   23  C   UNL     1     -11.566  13.252  67.426  1.00  0.00    -0.396 C  
HETATM   24  C   UNL     1     -11.160  12.577  66.115  1.00  0.00    -0.336 A  
HETATM   25  C   UNL     1     -10.806  14.550  67.690  1.00  0.00    -0.275 A  
HETATM   26  C   UNL     1      -9.415  14.544  67.889  1.00  0.00    -0.212 A  
HETATM   27  C   UNL     1     -11.752  13.004  64.911  1.00  0.00    -0.381 A  
HETATM   28  C   UNL     1     -11.446  12.375  63.702  1.00  0.00    -0.568 A  
HETATM   29  C   UNL     1      -8.745  15.710  68.260  1.00  0.00    -0.174 A  
HETATM   30  C   UNL     1     -10.538  11.323  63.688  1.00  0.00    -0.388 A  
HETATM   31  C   UNL     1      -9.461  16.887  68.426  1.00  0.00    -0.258 A  
HETATM   32  F   UNL     1      -8.821  17.999  68.811  1.00  0.00    -0.291 F  
HETATM   33  C   UNL     1     -10.833  16.926  68.212  1.00  0.00    -0.357 A  
HETATM   34  F   UNL     1     -10.256  10.708  62.532  1.00  0.00    -0.208 F  
HETATM   35  C   UNL     1      -9.924  10.897  64.855  1.00  0.00    -0.361 A  
HETATM   36  C   UNL     1     -10.229  11.525  66.063  1.00  0.00    -0.283 A  
HETATM   37  C   UNL     1     -11.506  15.761  67.839  1.00  0.00    -0.221 A  
ENDBRANCH  21  22
ENDBRANCH  20  21
ENDBRANCH  17  20
ENDBRANCH  13  14
ENDBRANCH  10  13
ENDBRANCH   8   9
TORSDOF 6
ENDMDL
MODEL       20
REMARK 921   NORMALIZED FREE ENERGY PREDICTED BY IDOCK:   -6.80 KCAL/MOL
REMARK 922        TOTAL FREE ENERGY PREDICTED BY IDOCK:  -10.45 KCAL/MOL
REMARK 923 INTER-LIGAND FREE ENERGY PREDICTED BY IDOCK:   -9.43 KCAL/MOL
REMARK 924 INTRA-LIGAND FREE ENERGY PREDICTED BY IDOCK:   -1.01 KCAL/MOL
REMARK 927      BINDING AFFINITY PREDICTED BY RF-SCORE:    0.00 PKD
ROOT
HETATM    1  C   UNL     1     -11.328   8.022  72.426  1.00  0.00    -0.443 C  
HETATM    2  C   UNL     1     -10.811   6.641  72.119  1.00  0.00    -0.259 A  
HETATM    3  C   UNL     1     -11.123   5.627  73.046  1.00  0.00    -0.327 A  
HETATM    4  C   UNL     1     -10.606   4.345  72.909  1.00  0.00    -0.264 A  
HETATM    5  C   UNL     1      -9.743   4.062  71.858  1.00  0.00    -0.236 A  
HETATM    6  C   UNL     1      -9.408   5.051  70.913  1.00  0.00    -0.204 A  
HETATM    7  C   UNL     1      -8.478   4.664  69.794  1.00  0.00    -0.088 C  
HETATM    8  C   UNL     1      -9.989   6.338  71.007  1.00  0.00    -0.182 A  
ENDROOT
BRANCH   8   9
HETATM    9  N   UNL     1      -9.694   7.288  69.989  1.00  0.00    -0.175 N  
HETATM   10  C   UNL     1     -10.481   7.468  68.861  1.00  0.00    -0.203 C  
HETATM   11  H   UNL     1      -8.861   7.867  70.094  1.00  0.00     0.000 HD 
HETATM   12  O   UNL     1     -11.505   6.837  68.610  1.00  0.00    -0.069 OA 
BRANCH  10  13
HETATM   13  C   UNL     1      -9.921   8.427  67.802  1.00  0.00    -0.186 C  
BRANCH  13  14
HETATM   14  N   UNL     1     -10.461   9.809  67.843  1.00  0.00    -0.224 NA 
HETATM   15  C   UNL     1      -9.831  10.545  68.975  1.00  0.00    -0.212 C  
HETATM   16  C   UNL     1      -8.351  10.974  68.766  1.00  0.00    -0.144 C  
HETATM   17  N   UNL     1      -8.072  11.670  67.494  1.00  0.00    -0.137 NA 
HETATM   18  C   UNL     1      -8.690  10.932  66.379  1.00  0.00    -0.170 C  
HETATM   19  C   UNL     1     -10.174  10.566  66.602  1.00  0.00    -0.233 C  
BRANCH  17  20
HETATM   20  C   UNL     1      -8.476  13.082  67.513  1.00  0.00    -0.190 C  
BRANCH  20  21
HETATM   21  C   UNL     1      -8.061  13.785  68.813  1.00  0.00    -0.022 C  
BRANCH  21  22
HETATM   22  C   UNL     1      -8.231  15.313  68.786  1.00  0.00    -0.169 C  
HETATM   23  C   UNL     1      -9.645  15.801  68.371  1.00  0.00    -0.200 C  
HETATM   24  C   UNL     1      -9.717  17.312  68.145  1.00  0.00    -0.284 A  
HETATM   25  C   UNL     1     -10.694  15.293  69.357  1.00  0.00    -0.266 A  
HETATM   26  C   UNL     1     -10.677  15.699  70.702  1.00  0.00    -0.242 A  
HETATM   27  C   UNL     1     -10.638  17.823  67.211  1.00  0.00    -0.322 A  
HETATM   28  C   UNL     1     -10.696  19.192  66.939  1.00  0.00    -0.515 A  
HETATM   29  C   UNL     1     -11.555  15.132  71.627  1.00  0.00    -0.463 A  
HETATM   30  C   UNL     1      -9.840  20.059  67.608  1.00  0.00    -0.413 A  
HETATM   31  C   UNL     1     -12.457  14.163  71.210  1.00  0.00    -0.370 A  
HETATM   32  F   UNL     1     -13.278  13.599  72.104  1.00  0.00    -0.413 F  
HETATM   33  C   UNL     1     -12.511  13.762  69.880  1.00  0.00    -0.259 A  
HETATM   34  F   UNL     1      -9.883  21.370  67.336  1.00  0.00    -0.581 F  
HETATM   35  C   UNL     1      -8.939  19.585  68.549  1.00  0.00    -0.395 A  
HETATM   36  C   UNL     1      -8.882  18.219  68.821  1.00  0.00    -0.235 A  
HETATM   37  C   UNL     1     -11.636  14.328  68.952  1.00  0.00    -0.340 A  
ENDBRANCH  21  22
ENDBRANCH  20  21
ENDBRANCH  17  20
ENDBRANCH  13  14
ENDBRANCH  10  13
ENDBRANCH   8   9
TORSDOF 6
ENDMDL
MODEL       21
REMARK 921   NORMALIZED FREE ENERGY PREDICTED BY IDOCK:   -6.74 KCAL/MOL
REMARK 922        TOTAL FREE ENERGY PREDICTED BY IDOCK:  -10.38 KCAL/MOL
REMARK 923 INTER-LIGAND FREE ENERGY PREDICTED BY IDOCK:   -9.27 KCAL/MOL
REMARK 924 INTRA-LIGAND FREE ENERGY PREDICTED BY IDOCK:   -1.11 KCAL/MOL
REMARK 927      BINDING AFFINITY PREDICTED BY RF-SCORE:    0.00 PKD
ROOT
HETATM    1  C   UNL     1      -9.050   5.008  69.523  1.00  0.00    -0.150 C  
HETATM    2  C   UNL     1      -9.905   5.822  70.458  1.00  0.00    -0.240 A  
HETATM    3  C   UNL     1     -10.522   5.128  71.518  1.00  0.00    -0.256 A  
HETATM    4  C   UNL     1     -11.413   5.767  72.372  1.00  0.00    -0.343 A  
HETATM    5  C   UNL     1     -11.726   7.104  72.161  1.00  0.00    -0.322 A  
HETATM    6  C   UNL     1     -11.130   7.828  71.111  1.00  0.00    -0.269 A  
HETATM    7  C   UNL     1     -11.509   9.277  70.955  1.00  0.00    -0.387 C  
HETATM    8  C   UNL     1     -10.168   7.202  70.284  1.00  0.00    -0.198 A  
ENDROOT
BRANCH   8   9
HETATM    9  N   UNL     1      -9.523   7.985  69.285  1.00  0.00    -0.155 N  
HETATM   10  C   UNL     1      -9.939   8.030  67.963  1.00  0.00    -0.179 C  
HETATM   11  H   UNL     1      -8.713   8.542  69.555  1.00  0.00     0.000 HD 
HETATM   12  O   UNL     1     -10.895   7.407  67.504  1.00  0.00    -0.242 OA 
BRANCH  10  13
HETATM   13  C   UNL     1      -9.028   8.806  67.001  1.00  0.00    -0.131 C  
BRANCH  13  14
HETATM   14  N   UNL     1      -9.400  10.227  66.778  1.00  0.00    -0.157 NA 
HETATM   15  C   UNL     1      -9.400  10.941  68.086  1.00  0.00    -0.165 C  
HETATM   16  C   UNL     1      -8.002  11.250  68.691  1.00  0.00    -0.145 C  
HETATM   17  N   UNL     1      -7.043  11.890  67.767  1.00  0.00    -0.094 NA 
HETATM   18  C   UNL     1      -7.042  11.172  66.481  1.00  0.00    -0.124 C  
HETATM   19  C   UNL     1      -8.446  10.927  65.886  1.00  0.00    -0.158 C  
BRANCH  17  20
HETATM   20  C   UNL     1      -7.285  13.328  67.596  1.00  0.00    -0.162 C  
BRANCH  20  21
HETATM   21  C   UNL     1      -7.453  14.049  68.942  1.00  0.00    -0.095 C  
BRANCH  21  22
HETATM   22  C   UNL     1      -7.790  15.545  68.817  1.00  0.00    -0.160 C  
HETATM   23  C   UNL     1      -9.158  15.848  68.149  1.00  0.00    -0.182 C  
HETATM   24  C   UNL     1      -9.363  17.334  67.846  1.00  0.00    -0.258 A  
HETATM   25  C   UNL     1     -10.296  15.242  68.967  1.00  0.00    -0.242 A  
HETATM   26  C   UNL     1     -10.557  15.680  70.276  1.00  0.00    -0.329 A  
HETATM   27  C   UNL     1     -10.162  17.706  66.748  1.00  0.00    -0.335 A  
HETATM   28  C   UNL     1     -10.328  19.051  66.410  1.00  0.00    -0.520 A  
HETATM   29  C   UNL     1     -11.510  15.035  71.065  1.00  0.00    -0.344 A  
HETATM   30  C   UNL     1      -9.706  20.031  67.172  1.00  0.00    -0.411 A  
HETATM   31  C   UNL     1     -12.210  13.955  70.547  1.00  0.00    -0.373 A  
HETATM   32  F   UNL     1     -13.102  13.318  71.315  1.00  0.00    -0.400 F  
HETATM   33  C   UNL     1     -11.988  13.516  69.247  1.00  0.00    -0.378 A  
HETATM   34  F   UNL     1      -9.851  21.320  66.839  1.00  0.00    -0.405 F  
HETATM   35  C   UNL     1      -8.932  19.693  68.272  1.00  0.00    -0.378 A  
HETATM   36  C   UNL     1      -8.765  18.351  68.611  1.00  0.00    -0.306 A  
HETATM   37  C   UNL     1     -11.037  14.161  68.454  1.00  0.00    -0.273 A  
ENDBRANCH  21  22
ENDBRANCH  20  21
ENDBRANCH  17  20
ENDBRANCH  13  14
ENDBRANCH  10  13
ENDBRANCH   8   9
TORSDOF 6
ENDMDL
MODEL       22
REMARK 921   NORMALIZED FREE ENERGY PREDICTED BY IDOCK:   -6.74 KCAL/MOL
REMARK 922        TOTAL FREE ENERGY PREDICTED BY IDOCK:  -10.38 KCAL/MOL
REMARK 923 INTER-LIGAND FREE ENERGY PREDICTED BY IDOCK:   -9.50 KCAL/MOL
REMARK 924 INTRA-LIGAND FREE ENERGY PREDICTED BY IDOCK:   -0.88 KCAL/MOL
REMARK 927      BINDING AFFINITY PREDICTED BY RF-SCORE:    0.00 PKD
ROOT
HETATM    1  C   UNL     1     -10.417   5.565  67.019  1.00  0.00    -0.336 C  
HETATM    2  C   UNL     1      -9.129   4.785  66.989  1.00  0.00    -0.121 A  
HETATM    3  C   UNL     1      -8.809   4.137  65.778  1.00  0.00    -0.122 A  
HETATM    4  C   UNL     1      -7.698   3.308  65.679  1.00  0.00    -0.081 A  
HETATM    5  C   UNL     1      -6.905   3.088  66.798  1.00  0.00    -0.049 A  
HETATM    6  C   UNL     1      -7.195   3.717  68.024  1.00  0.00    -0.058 A  
HETATM    7  C   UNL     1      -6.280   3.440  69.188  1.00  0.00    -0.029 C  
HETATM    8  C   UNL     1      -8.282   4.619  68.111  1.00  0.00    -0.091 A  
ENDROOT
BRANCH   8   9
HETATM    9  N   UNL     1      -8.497   5.301  69.342  1.00  0.00    -0.094 N  
HETATM   10  C   UNL     1      -9.216   4.763  70.398  1.00  0.00    -0.136 C  
HETATM   11  H   UNL     1      -8.102   6.235  69.452  1.00  0.00     0.000 HD 
HETATM   12  O   UNL     1      -9.746   3.654  70.396  1.00  0.00    -0.189 OA 
BRANCH  10  13
HETATM   13  C   UNL     1      -9.473   5.707  71.581  1.00  0.00    -0.150 C  
BRANCH  13  14
HETATM   14  N   UNL     1     -10.896   6.062  71.815  1.00  0.00    -0.251 NA 
HETATM   15  C   UNL     1     -10.968   7.123  72.859  1.00  0.00    -0.320 C  
HETATM   16  C   UNL     1     -10.535   8.547  72.410  1.00  0.00    -0.297 C  
HETATM   17  N   UNL     1     -11.154   9.028  71.158  1.00  0.00    -0.275 NA 
HETATM   18  C   UNL     1     -11.071   7.977  70.129  1.00  0.00    -0.191 C  
HETATM   19  C   UNL     1     -11.556   6.587  70.597  1.00  0.00    -0.381 C  
BRANCH  17  20
HETATM   20  C   UNL     1     -12.530   9.508  71.347  1.00  0.00    -0.362 C  
BRANCH  20  21
HETATM   21  C   UNL     1     -12.614  11.041  71.325  1.00  0.00    -0.517 C  
BRANCH  21  22
HETATM   22  C   UNL     1     -11.746  11.704  70.243  1.00  0.00    -0.355 C  
HETATM   23  C   UNL     1     -12.349  12.994  69.626  1.00  0.00    -0.104 C  
HETATM   24  C   UNL     1     -11.568  13.502  68.412  1.00  0.00    -0.378 A  
HETATM   25  C   UNL     1     -12.539  14.060  70.703  1.00  0.00    -0.414 A  
HETATM   26  C   UNL     1     -11.437  14.603  71.384  1.00  0.00    -0.123 A  
HETATM   27  C   UNL     1     -12.254  14.201  67.400  1.00  0.00    -0.278 A  
HETATM   28  C   UNL     1     -11.585  14.632  66.252  1.00  0.00    -0.344 A  
HETATM   29  C   UNL     1     -11.624  15.477  72.455  1.00  0.00    -0.531 A  
HETATM   30  C   UNL     1     -10.226  14.378  66.114  1.00  0.00    -0.306 A  
HETATM   31  C   UNL     1     -12.912  15.818  72.844  1.00  0.00    -0.500 A  
HETATM   32  F   UNL     1     -13.090  16.633  73.891  1.00  0.00    -0.453 F  
HETATM   33  C   UNL     1     -14.019  15.314  72.172  1.00  0.00    -0.650 A  
HETATM   34  F   UNL     1      -9.587  14.777  65.007  1.00  0.00    -0.271 F  
HETATM   35  C   UNL     1      -9.523  13.711  67.106  1.00  0.00    -0.244 A  
HETATM   36  C   UNL     1     -10.189  13.280  68.252  1.00  0.00    -0.250 A  
HETATM   37  C   UNL     1     -13.835  14.440  71.099  1.00  0.00    -0.249 A  
ENDBRANCH  21  22
ENDBRANCH  20  21
ENDBRANCH  17  20
ENDBRANCH  13  14
ENDBRANCH  10  13
ENDBRANCH   8   9
TORSDOF 6
ENDMDL
MODEL       23
REMARK 921   NORMALIZED FREE ENERGY PREDICTED BY IDOCK:   -6.72 KCAL/MOL
REMARK 922        TOTAL FREE ENERGY PREDICTED BY IDOCK:  -10.35 KCAL/MOL
REMARK 923 INTER-LIGAND FREE ENERGY PREDICTED BY IDOCK:   -9.81 KCAL/MOL
REMARK 924 INTRA-LIGAND FREE ENERGY PREDICTED BY IDOCK:   -0.54 KCAL/MOL
REMARK 927      BINDING AFFINITY PREDICTED BY RF-SCORE:    0.00 PKD
ROOT
HETATM    1  C   UNL     1     -11.788  16.752  73.000  1.00  0.00    -0.153 C  
HETATM    2  C   UNL     1     -12.447  15.609  72.274  1.00  0.00    -0.512 A  
HETATM    3  C   UNL     1     -13.750  15.263  72.687  1.00  0.00    -0.608 A  
HETATM    4  C   UNL     1     -14.403  14.158  72.155  1.00  0.00    -0.606 A  
HETATM    5  C   UNL     1     -13.752  13.362  71.220  1.00  0.00     0.143 A  
HETATM    6  C   UNL     1     -12.450  13.677  70.785  1.00  0.00    -0.432 A  
HETATM    7  C   UNL     1     -11.817  12.773  69.760  1.00  0.00    -0.380 C  
HETATM    8  C   UNL     1     -11.809  14.841  71.271  1.00  0.00    -0.335 A  
ENDROOT
BRANCH   8   9
HETATM    9  N   UNL     1     -10.528  15.175  70.748  1.00  0.00    -0.481 N  
HETATM   10  C   UNL     1     -10.345  15.913  69.589  1.00  0.00    -0.299 C  
HETATM   11  H   UNL     1      -9.701  14.854  71.252  1.00  0.00     0.000 HD 
HETATM   12  O   UNL     1     -11.251  16.356  68.886  1.00  0.00    -0.332 OA 
BRANCH  10  13
HETATM   13  C   UNL     1      -8.896  16.040  69.099  1.00  0.00    -0.245 C  
BRANCH  13  14
HETATM   14  N   UNL     1      -8.575  15.291  67.857  1.00  0.00    -0.150 NA 
HETATM   15  C   UNL     1      -7.099  15.292  67.655  1.00  0.00    -0.182 C  
HETATM   16  C   UNL     1      -6.283  14.364  68.598  1.00  0.00    -0.087 C  
HETATM   17  N   UNL     1      -6.777  12.976  68.697  1.00  0.00    -0.089 NA 
HETATM   18  C   UNL     1      -8.235  12.983  68.906  1.00  0.00     0.236 C  
HETATM   19  C   UNL     1      -9.017  13.878  67.919  1.00  0.00    -0.191 C  
BRANCH  17  20
HETATM   20  C   UNL     1      -6.388  12.147  67.549  1.00  0.00    -0.129 C  
BRANCH  20  21
HETATM   21  C   UNL     1      -7.562  11.906  66.588  1.00  0.00     0.039 C  
BRANCH  21  22
HETATM   22  C   UNL     1      -7.871  10.421  66.332  1.00  0.00    -0.128 C  
HETATM   23  C   UNL     1      -9.356  10.022  66.539  1.00  0.00    -0.201 C  
HETATM   24  C   UNL     1      -9.586   8.510  66.489  1.00  0.00    -0.303 A  
HETATM   25  C   UNL     1     -10.254  10.795  65.577  1.00  0.00    -0.330 A  
HETATM   26  C   UNL     1     -10.143  10.621  64.187  1.00  0.00    -0.402 A  
HETATM   27  C   UNL     1     -10.635   7.950  67.242  1.00  0.00    -0.365 A  
HETATM   28  C   UNL     1     -10.841   6.569  67.262  1.00  0.00    -0.463 A  
HETATM   29  C   UNL     1     -10.872  11.423  63.310  1.00  0.00    -0.292 A  
HETATM   30  C   UNL     1     -10.006   5.741  66.523  1.00  0.00    -0.163 A  
HETATM   31  C   UNL     1     -11.720  12.398  63.817  1.00  0.00    -0.483 A  
HETATM   32  F   UNL     1     -12.396  13.187  62.973  1.00  0.00    -0.606 F  
HETATM   33  C   UNL     1     -11.867  12.575  65.187  1.00  0.00    -0.450 A  
HETATM   34  F   UNL     1     -10.193   4.415  66.555  1.00  0.00    -0.230 F  
HETATM   35  C   UNL     1      -8.979   6.267  65.755  1.00  0.00    -0.083 A  
HETATM   36  C   UNL     1      -8.773   7.647  65.734  1.00  0.00    -0.151 A  
HETATM   37  C   UNL     1     -11.140  11.772  66.068  1.00  0.00    -0.363 A  
ENDBRANCH  21  22
ENDBRANCH  20  21
ENDBRANCH  17  20
ENDBRANCH  13  14
ENDBRANCH  10  13
ENDBRANCH   8   9
TORSDOF 6
ENDMDL
MODEL       24
REMARK 921   NORMALIZED FREE ENERGY PREDICTED BY IDOCK:   -6.69 KCAL/MOL
REMARK 922        TOTAL FREE ENERGY PREDICTED BY IDOCK:  -10.30 KCAL/MOL
REMARK 923 INTER-LIGAND FREE ENERGY PREDICTED BY IDOCK:   -9.46 KCAL/MOL
REMARK 924 INTRA-LIGAND FREE ENERGY PREDICTED BY IDOCK:   -0.84 KCAL/MOL
REMARK 927      BINDING AFFINITY PREDICTED BY RF-SCORE:    0.00 PKD
ROOT
HETATM    1  C   UNL     1      -9.363   3.854  69.542  1.00  0.00    -0.246 C  
HETATM    2  C   UNL     1      -9.998   4.537  70.724  1.00  0.00    -0.269 A  
HETATM    3  C   UNL     1      -9.947   3.851  71.955  1.00  0.00    -0.238 A  
HETATM    4  C   UNL     1     -10.595   4.346  73.080  1.00  0.00    -0.272 A  
HETATM    5  C   UNL     1     -11.330   5.522  72.987  1.00  0.00    -0.323 A  
HETATM    6  C   UNL     1     -11.404   6.233  71.774  1.00  0.00    -0.346 A  
HETATM    7  C   UNL     1     -12.208   7.506  71.756  1.00  0.00    -0.345 C  
HETATM    8  C   UNL     1     -10.687   5.771  70.644  1.00  0.00    -0.281 A  
ENDROOT
BRANCH   8   9
HETATM    9  N   UNL     1     -10.716   6.558  69.458  1.00  0.00    -0.243 N  
HETATM   10  C   UNL     1      -9.789   7.550  69.177  1.00  0.00    -0.170 C  
HETATM   11  H   UNL     1     -11.457   6.383  68.780  1.00  0.00     0.000 HD 
HETATM   12  O   UNL     1      -8.851   7.864  69.907  1.00  0.00    -0.140 OA 
BRANCH  10  13
HETATM   13  C   UNL     1     -10.072   8.395  67.927  1.00  0.00    -0.203 C  
BRANCH  13  14
HETATM   14  N   UNL     1      -9.190   9.574  67.741  1.00  0.00    -0.125 NA 
HETATM   15  C   UNL     1      -9.018   9.830  66.283  1.00  0.00    -0.153 C  
HETATM   16  C   UNL     1     -10.243  10.449  65.553  1.00  0.00    -0.246 C  
HETATM   17  N   UNL     1     -10.832  11.635  66.207  1.00  0.00    -0.277 NA 
HETATM   18  C   UNL     1     -11.007  11.372  67.646  1.00  0.00    -0.250 C  
HETATM   19  C   UNL     1      -9.753  10.803  68.347  1.00  0.00    -0.174 C  
BRANCH  17  20
HETATM   20  C   UNL     1     -10.066  12.864  65.961  1.00  0.00    -0.285 C  
BRANCH  20  21
HETATM   21  C   UNL     1     -10.831  14.119  66.406  1.00  0.00    -0.304 C  
BRANCH  21  22
HETATM   22  C   UNL     1      -9.943  15.360  66.603  1.00  0.00    -0.271 C  
HETATM   23  C   UNL     1     -10.622  16.529  67.366  1.00  0.00    -0.300 C  
HETATM   24  C   UNL     1      -9.794  17.815  67.355  1.00  0.00    -0.311 A  
HETATM   25  C   UNL     1     -11.021  16.087  68.772  1.00  0.00    -0.320 A  
HETATM   26  C   UNL     1     -10.048  15.709  69.713  1.00  0.00    -0.291 A  
HETATM   27  C   UNL     1     -10.455  19.057  67.405  1.00  0.00    -0.539 A  
HETATM   28  C   UNL     1      -9.735  20.253  67.343  1.00  0.00    -0.584 A  
HETATM   29  C   UNL     1     -10.422  15.182  70.949  1.00  0.00     0.197 A  
HETATM   30  C   UNL     1      -8.351  20.214  67.240  1.00  0.00    -0.341 A  
HETATM   31  C   UNL     1     -11.768  15.037  71.253  1.00  0.00    -0.347 A  
HETATM   32  F   UNL     1     -12.125  14.504  72.428  1.00  0.00    -0.371 F  
HETATM   33  C   UNL     1     -12.751  15.426  70.350  1.00  0.00    -0.407 A  
HETATM   34  F   UNL     1      -7.660  21.359  67.164  1.00  0.00    -0.347 F  
HETATM   35  C   UNL     1      -7.672  19.005  67.211  1.00  0.00    -0.254 A  
HETATM   36  C   UNL     1      -8.390  17.811  67.274  1.00  0.00    -0.228 A  
HETATM   37  C   UNL     1     -12.380  15.955  69.113  1.00  0.00     0.141 A  
ENDBRANCH  21  22
ENDBRANCH  20  21
ENDBRANCH  17  20
ENDBRANCH  13  14
ENDBRANCH  10  13
ENDBRANCH   8   9
TORSDOF 6
ENDMDL
MODEL       25
REMARK 921   NORMALIZED FREE ENERGY PREDICTED BY IDOCK:   -6.67 KCAL/MOL
REMARK 922        TOTAL FREE ENERGY PREDICTED BY IDOCK:  -10.28 KCAL/MOL
REMARK 923 INTER-LIGAND FREE ENERGY PREDICTED BY IDOCK:   -9.48 KCAL/MOL
REMARK 924 INTRA-LIGAND FREE ENERGY PREDICTED BY IDOCK:   -0.80 KCAL/MOL
REMARK 927      BINDING AFFINITY PREDICTED BY RF-SCORE:    0.00 PKD
ROOT
HETATM    1  C   UNL     1      -8.009   6.673  70.707  1.00  0.00    -0.111 C  
HETATM    2  C   UNL     1      -8.451   5.460  71.483  1.00  0.00    -0.127 A  
HETATM    3  C   UNL     1      -7.548   4.380  71.539  1.00  0.00    -0.073 A  
HETATM    4  C   UNL     1      -7.902   3.178  72.139  1.00  0.00    -0.058 A  
HETATM    5  C   UNL     1      -9.178   3.025  72.667  1.00  0.00    -0.128 A  
HETATM    6  C   UNL     1     -10.107   4.082  72.628  1.00  0.00    -0.225 A  
HETATM    7  C   UNL     1     -11.465   3.844  73.234  1.00  0.00    -0.145 C  
HETATM    8  C   UNL     1      -9.727   5.332  72.083  1.00  0.00    -0.164 A  
ENDROOT
BRANCH   8   9
HETATM    9  N   UNL     1     -10.662   6.404  72.135  1.00  0.00    -0.220 N  
HETATM   10  C   UNL     1     -11.524   6.716  71.095  1.00  0.00    -0.320 C  
HETATM   11  H   UNL     1     -10.699   6.972  72.981  1.00  0.00     0.000 HD 
HETATM   12  O   UNL     1     -11.579   6.117  70.023  1.00  0.00    -0.392 OA 
BRANCH  10  13
HETATM   13  C   UNL     1     -12.348   7.999  71.272  1.00  0.00    -0.271 C  
BRANCH  13  14
HETATM   14  N   UNL     1     -11.564   9.226  71.565  1.00  0.00    -0.356 NA 
HETATM   15  C   UNL     1     -10.514   9.393  70.521  1.00  0.00    -0.274 C  
HETATM   16  C   UNL     1     -11.012   9.869  69.127  1.00  0.00    -0.200 C  
HETATM   17  N   UNL     1     -11.899  11.049  69.145  1.00  0.00    -0.325 NA 
HETATM   18  C   UNL     1     -12.939  10.872  70.172  1.00  0.00     0.028 C  
HETATM   19  C   UNL     1     -12.402  10.448  71.557  1.00  0.00    -0.368 C  
BRANCH  17  20
HETATM   20  C   UNL     1     -11.168  12.312  69.312  1.00  0.00    -0.213 C  
BRANCH  20  21
HETATM   21  C   UNL     1     -11.338  13.243  68.102  1.00  0.00    -0.323 C  
BRANCH  21  22
HETATM   22  C   UNL     1     -10.435  14.487  68.133  1.00  0.00    -0.239 C  
HETATM   23  C   UNL     1     -11.159  15.805  68.515  1.00  0.00    -0.335 C  
HETATM   24  C   UNL     1     -10.286  17.048  68.326  1.00  0.00    -0.347 A  
HETATM   25  C   UNL     1     -11.752  15.699  69.918  1.00  0.00    -0.372 A  
HETATM   26  C   UNL     1     -10.924  15.537  71.042  1.00  0.00    -0.314 A  
HETATM   27  C   UNL     1     -10.899  18.274  68.007  1.00  0.00    -0.178 A  
HETATM   28  C   UNL     1     -10.130  19.417  67.775  1.00  0.00    -0.508 A  
HETATM   29  C   UNL     1     -11.474  15.308  72.303  1.00  0.00    -0.480 A  
HETATM   30  C   UNL     1      -8.746  19.343  67.871  1.00  0.00    -0.317 A  
HETATM   31  C   UNL     1     -12.853  15.249  72.448  1.00  0.00    -0.363 A  
HETATM   32  F   UNL     1     -13.379  15.001  73.654  1.00  0.00    -0.514 F  
HETATM   33  C   UNL     1     -13.695  15.431  71.358  1.00  0.00    -0.591 A  
HETATM   34  F   UNL     1      -8.008  20.435  67.632  1.00  0.00    -0.329 F  
HETATM   35  C   UNL     1      -8.119  18.153  68.205  1.00  0.00    -0.306 A  
HETATM   36  C   UNL     1      -8.885  17.012  68.438  1.00  0.00    -0.247 A  
HETATM   37  C   UNL     1     -13.148  15.661  70.095  1.00  0.00     0.219 A  
ENDBRANCH  21  22
ENDBRANCH  20  21
ENDBRANCH  17  20
ENDBRANCH  13  14
ENDBRANCH  10  13
ENDBRANCH   8   9
TORSDOF 6
ENDMDL
MODEL       26
REMARK 921   NORMALIZED FREE ENERGY PREDICTED BY IDOCK:   -6.64 KCAL/MOL
REMARK 922        TOTAL FREE ENERGY PREDICTED BY IDOCK:  -10.24 KCAL/MOL
REMARK 923 INTER-LIGAND FREE ENERGY PREDICTED BY IDOCK:  -10.06 KCAL/MOL
REMARK 924 INTRA-LIGAND FREE ENERGY PREDICTED BY IDOCK:   -0.17 KCAL/MOL
REMARK 927      BINDING AFFINITY PREDICTED BY RF-SCORE:    0.00 PKD
ROOT
HETATM    1  C   UNL     1      -9.412  10.192  69.265  1.00  0.00    -0.231 C  
HETATM    2  C   UNL     1      -9.922   8.776  69.292  1.00  0.00    -0.194 A  
HETATM    3  C   UNL     1      -9.969   8.144  70.551  1.00  0.00    -0.195 A  
HETATM    4  C   UNL     1     -10.324   6.806  70.671  1.00  0.00    -0.225 A  
HETATM    5  C   UNL     1     -10.609   6.068  69.528  1.00  0.00    -0.363 A  
HETATM    6  C   UNL     1     -10.572   6.666  68.254  1.00  0.00    -0.291 A  
HETATM    7  C   UNL     1     -10.908   5.804  67.066  1.00  0.00    -0.328 C  
HETATM    8  C   UNL     1     -10.282   8.045  68.134  1.00  0.00    -0.207 A  
ENDROOT
BRANCH   8   9
HETATM    9  N   UNL     1     -10.334   8.637  66.840  1.00  0.00    -0.293 N  
HETATM   10  C   UNL     1      -9.229   8.762  66.013  1.00  0.00    -0.222 C  
HETATM   11  H   UNL     1     -11.231   8.987  66.505  1.00  0.00     0.000 HD 
HETATM   12  O   UNL     1      -8.093   8.388  66.295  1.00  0.00    -0.099 OA 
BRANCH  10  13
HETATM   13  C   UNL     1      -9.448   9.565  64.723  1.00  0.00    -0.108 C  
BRANCH  13  14
HETATM   14  N   UNL     1      -8.874  10.935  64.719  1.00  0.00    -0.147 NA 
HETATM   15  C   UNL     1      -9.423  11.690  63.558  1.00  0.00    -0.172 C  
HETATM   16  C   UNL     1     -10.902  12.152  63.686  1.00  0.00    -0.464 C  
HETATM   17  N   UNL     1     -11.236  12.849  64.945  1.00  0.00    -0.292 NA 
HETATM   18  C   UNL     1     -10.698  12.092  66.088  1.00  0.00    -0.272 C  
HETATM   19  C   UNL     1      -9.212  11.693  65.946  1.00  0.00    -0.196 C  
BRANCH  17  20
HETATM   20  C   UNL     1     -10.799  14.251  64.957  1.00  0.00    -0.403 C  
BRANCH  20  21
HETATM   21  C   UNL     1     -10.110  14.630  66.276  1.00  0.00    -0.307 C  
BRANCH  21  22
HETATM   22  C   UNL     1     -11.074  14.807  67.461  1.00  0.00    -0.323 C  
HETATM   23  C   UNL     1     -10.429  15.410  68.738  1.00  0.00    -0.231 C  
HETATM   24  C   UNL     1     -11.355  15.370  69.955  1.00  0.00    -0.322 A  
HETATM   25  C   UNL     1      -9.881  16.805  68.449  1.00  0.00    -0.253 A  
HETATM   26  C   UNL     1     -10.738  17.857  68.085  1.00  0.00    -0.287 A  
HETATM   27  C   UNL     1     -10.793  15.262  71.241  1.00  0.00    -0.084 A  
HETATM   28  C   UNL     1     -11.608  15.169  72.372  1.00  0.00    -0.457 A  
HETATM   29  C   UNL     1     -10.221  19.092  67.694  1.00  0.00    -0.492 A  
HETATM   30  C   UNL     1     -12.989  15.195  72.224  1.00  0.00    -0.354 A  
HETATM   31  C   UNL     1      -8.847  19.284  67.675  1.00  0.00    -0.299 A  
HETATM   32  F   UNL     1      -8.351  20.461  67.272  1.00  0.00    -0.348 F  
HETATM   33  C   UNL     1      -7.978  18.268  68.054  1.00  0.00    -0.273 A  
HETATM   34  F   UNL     1     -13.773  15.090  73.305  1.00  0.00    -0.495 F  
HETATM   35  C   UNL     1     -13.569  15.324  70.971  1.00  0.00    -0.486 A  
HETATM   36  C   UNL     1     -12.756  15.417  69.842  1.00  0.00    -0.112 A  
HETATM   37  C   UNL     1      -8.491  17.031  68.446  1.00  0.00    -0.239 A  
ENDBRANCH  21  22
ENDBRANCH  20  21
ENDBRANCH  17  20
ENDBRANCH  13  14
ENDBRANCH  10  13
ENDBRANCH   8   9
TORSDOF 6
ENDMDL
MODEL       27
REMARK 921   NORMALIZED FREE ENERGY PREDICTED BY IDOCK:   -6.61 KCAL/MOL
REMARK 922        TOTAL FREE ENERGY PREDICTED BY IDOCK:  -10.20 KCAL/MOL
REMARK 923 INTER-LIGAND FREE ENERGY PREDICTED BY IDOCK:   -9.41 KCAL/MOL
REMARK 924 INTRA-LIGAND FREE ENERGY PREDICTED BY IDOCK:   -0.79 KCAL/MOL
REMARK 927      BINDING AFFINITY PREDICTED BY RF-SCORE:    0.00 PKD
ROOT
HETATM    1  C   UNL     1      -8.311   5.520  67.517  1.00  0.00    -0.100 C  
HETATM    2  C   UNL     1      -8.111   4.214  68.239  1.00  0.00    -0.081 A  
HETATM    3  C   UNL     1      -7.097   3.367  67.747  1.00  0.00    -0.051 A  
HETATM    4  C   UNL     1      -6.903   2.097  68.275  1.00  0.00    -0.039 A  
HETATM    5  C   UNL     1      -7.741   1.640  69.285  1.00  0.00    -0.044 A  
HETATM    6  C   UNL     1      -8.765   2.458  69.801  1.00  0.00    -0.125 A  
HETATM    7  C   UNL     1      -9.622   1.896  70.905  1.00  0.00    -0.182 C  
HETATM    8  C   UNL     1      -8.919   3.778  69.316  1.00  0.00    -0.113 A  
ENDROOT
BRANCH   8   9
HETATM    9  N   UNL     1      -9.910   4.606  69.916  1.00  0.00    -0.213 N  
HETATM   10  C   UNL     1      -9.626   5.557  70.884  1.00  0.00    -0.170 C  
HETATM   11  H   UNL     1     -10.879   4.494  69.618  1.00  0.00     0.000 HD 
HETATM   12  O   UNL     1      -8.506   5.790  71.334  1.00  0.00    -0.125 OA 
BRANCH  10  13
HETATM   13  C   UNL     1     -10.841   6.243  71.524  1.00  0.00    -0.254 C  
BRANCH  13  14
HETATM   14  N   UNL     1     -11.742   6.953  70.581  1.00  0.00    -0.358 NA 
HETATM   15  C   UNL     1     -12.728   7.754  71.360  1.00  0.00    -0.308 C  
HETATM   16  C   UNL     1     -12.176   9.043  72.032  1.00  0.00    -0.375 C  
HETATM   17  N   UNL     1     -11.392   9.929  71.147  1.00  0.00    -0.376 NA 
HETATM   18  C   UNL     1     -10.414   9.130  70.387  1.00  0.00    -0.223 C  
HETATM   19  C   UNL     1     -11.009   7.885  69.693  1.00  0.00    -0.110 C  
BRANCH  17  20
HETATM   20  C   UNL     1     -12.235  10.750  70.268  1.00  0.00    -0.348 C  
BRANCH  20  21
HETATM   21  C   UNL     1     -11.458  11.279  69.053  1.00  0.00    -0.369 C  
BRANCH  21  22
HETATM   22  C   UNL     1     -11.295  12.809  69.028  1.00  0.00    -0.346 C  
HETATM   23  C   UNL     1     -10.383  13.346  67.893  1.00  0.00    -0.238 C  
HETATM   24  C   UNL     1     -10.070  14.837  68.028  1.00  0.00    -0.218 A  
HETATM   25  C   UNL     1     -10.957  12.976  66.528  1.00  0.00    -0.307 A  
HETATM   26  C   UNL     1     -12.199  13.481  66.106  1.00  0.00    -0.484 A  
HETATM   27  C   UNL     1      -8.846  15.328  67.536  1.00  0.00    -0.188 A  
HETATM   28  C   UNL     1      -8.503  16.674  67.689  1.00  0.00    -0.200 A  
HETATM   29  C   UNL     1     -12.780  13.038  64.918  1.00  0.00    -0.456 A  
HETATM   30  C   UNL     1      -9.386  17.538  68.324  1.00  0.00    -0.281 A  
HETATM   31  C   UNL     1     -12.120  12.095  64.143  1.00  0.00    -0.409 A  
HETATM   32  F   UNL     1     -12.693  11.649  63.018  1.00  0.00    -0.677 F  
HETATM   33  C   UNL     1     -10.880  11.598  64.524  1.00  0.00    -0.383 A  
HETATM   34  F   UNL     1      -9.052  18.825  68.486  1.00  0.00    -0.321 F  
HETATM   35  C   UNL     1     -10.608  17.085  68.798  1.00  0.00    -0.346 A  
HETATM   36  C   UNL     1     -10.951  15.742  68.645  1.00  0.00    -0.307 A  
HETATM   37  C   UNL     1     -10.295  12.040  65.712  1.00  0.00    -0.289 A  
ENDBRANCH  21  22
ENDBRANCH  20  21
ENDBRANCH  17  20
ENDBRANCH  13  14
ENDBRANCH  10  13
ENDBRANCH   8   9
TORSDOF 6
ENDMDL
MODEL       28
REMARK 921   NORMALIZED FREE ENERGY PREDICTED BY IDOCK:   -6.58 KCAL/MOL
REMARK 922        TOTAL FREE ENERGY PREDICTED BY IDOCK:  -10.16 KCAL/MOL
REMARK 923 INTER-LIGAND FREE ENERGY PREDICTED BY IDOCK:   -9.34 KCAL/MOL
REMARK 924 INTRA-LIGAND FREE ENERGY PREDICTED BY IDOCK:   -0.81 KCAL/MOL
REMARK 927      BINDING AFFINITY PREDICTED BY RF-SCORE:    0.00 PKD
ROOT
HETATM    1  C   UNL     1      -9.869   3.921  65.954  1.00  0.00    -0.137 C  
HETATM    2  C   UNL     1      -9.767   4.012  67.454  1.00  0.00    -0.190 A  
HETATM    3  C   UNL     1      -9.314   2.860  68.129  1.00  0.00    -0.258 A  
HETATM    4  C   UNL     1      -9.285   2.807  69.517  1.00  0.00    -0.204 A  
HETATM    5  C   UNL     1      -9.736   3.894  70.255  1.00  0.00    -0.245 A  
HETATM    6  C   UNL     1     -10.196   5.061  69.614  1.00  0.00    -0.306 A  
HETATM    7  C   UNL     1     -10.656   6.202  70.483  1.00  0.00    -0.312 C  
HETATM    8  C   UNL     1     -10.160   5.147  68.202  1.00  0.00    -0.129 A  
ENDROOT
BRANCH   8   9
HETATM    9  N   UNL     1     -10.554   6.371  67.590  1.00  0.00    -0.236 N  
HETATM   10  C   UNL     1      -9.654   7.294  67.081  1.00  0.00    -0.160 C  
HETATM   11  H   UNL     1     -11.550   6.579  67.524  1.00  0.00     0.000 HD 
HETATM   12  O   UNL     1      -8.431   7.169  67.099  1.00  0.00    -0.119 OA 
BRANCH  10  13
HETATM   13  C   UNL     1     -10.257   8.621  66.601  1.00  0.00    -0.273 C  
BRANCH  13  14
HETATM   14  N   UNL     1      -9.289   9.592  66.030  1.00  0.00    -0.190 NA 
HETATM   15  C   UNL     1      -9.985  10.436  65.018  1.00  0.00    -0.330 C  
HETATM   16  C   UNL     1     -10.955  11.512  65.581  1.00  0.00    -0.236 C  
HETATM   17  N   UNL     1     -10.397  12.364  66.650  1.00  0.00    -0.224 NA 
HETATM   18  C   UNL     1      -9.719  11.523  67.652  1.00  0.00    -0.174 C  
HETATM   19  C   UNL     1      -8.726  10.499  67.058  1.00  0.00    -0.130 C  
BRANCH  17  20
HETATM   20  C   UNL     1      -9.520  13.426  66.138  1.00  0.00    -0.140 C  
BRANCH  20  21
HETATM   21  C   UNL     1     -10.140  14.820  66.310  1.00  0.00    -0.299 C  
BRANCH  21  22
HETATM   22  C   UNL     1     -11.080  14.945  67.521  1.00  0.00    -0.319 C  
HETATM   23  C   UNL     1     -10.417  15.520  68.801  1.00  0.00    -0.234 C  
HETATM   24  C   UNL     1     -11.314  15.429  70.037  1.00  0.00    -0.322 A  
HETATM   25  C   UNL     1      -9.896  16.932  68.543  1.00  0.00    -0.267 A  
HETATM   26  C   UNL     1     -10.778  17.981  68.230  1.00  0.00    -0.208 A  
HETATM   27  C   UNL     1     -10.721  15.291  71.306  1.00  0.00     0.077 A  
HETATM   28  C   UNL     1     -11.510  15.151  72.451  1.00  0.00    -0.395 A  
HETATM   29  C   UNL     1     -10.289  19.235  67.866  1.00  0.00    -0.518 A  
HETATM   30  C   UNL     1     -12.894  15.159  72.335  1.00  0.00    -0.356 A  
HETATM   31  C   UNL     1      -8.919  19.450  67.822  1.00  0.00    -0.313 A  
HETATM   32  F   UNL     1      -8.452  20.647  67.444  1.00  0.00    -0.383 F  
HETATM   33  C   UNL     1      -8.026  18.438  68.151  1.00  0.00    -0.303 A  
HETATM   34  F   UNL     1     -13.651  15.008  73.429  1.00  0.00    -0.499 F  
HETATM   35  C   UNL     1     -13.504  15.316  71.099  1.00  0.00    -0.559 A  
HETATM   36  C   UNL     1     -12.717  15.456  69.956  1.00  0.00    -0.189 A  
HETATM   37  C   UNL     1      -8.511  17.181  68.517  1.00  0.00    -0.262 A  
ENDBRANCH  21  22
ENDBRANCH  20  21
ENDBRANCH  17  20
ENDBRANCH  13  14
ENDBRANCH  10  13
ENDBRANCH   8   9
TORSDOF 6
ENDMDL
MODEL       29
REMARK 921   NORMALIZED FREE ENERGY PREDICTED BY IDOCK:   -6.57 KCAL/MOL
REMARK 922        TOTAL FREE ENERGY PREDICTED BY IDOCK:  -10.14 KCAL/MOL
REMARK 923 INTER-LIGAND FREE ENERGY PREDICTED BY IDOCK:   -8.73 KCAL/MOL
REMARK 924 INTRA-LIGAND FREE ENERGY PREDICTED BY IDOCK:   -1.41 KCAL/MOL
REMARK 927      BINDING AFFINITY PREDICTED BY RF-SCORE:    0.00 PKD
ROOT
HETATM    1  C   UNL     1      -7.740   5.402  69.739  1.00  0.00    -0.077 C  
HETATM    2  C   UNL     1      -7.859   4.088  70.465  1.00  0.00    -0.051 A  
HETATM    3  C   UNL     1      -6.731   3.243  70.433  1.00  0.00    -0.033 A  
HETATM    4  C   UNL     1      -6.774   1.967  70.981  1.00  0.00    -0.027 A  
HETATM    5  C   UNL     1      -7.956   1.503  71.545  1.00  0.00    -0.040 A  
HETATM    6  C   UNL     1      -9.102   2.319  71.595  1.00  0.00    -0.151 A  
HETATM    7  C   UNL     1     -10.341   1.750  72.235  1.00  0.00    -0.224 C  
HETATM    8  C   UNL     1      -9.042   3.644  71.102  1.00  0.00    -0.109 A  
ENDROOT
BRANCH   8   9
HETATM    9  N   UNL     1     -10.193   4.470  71.243  1.00  0.00    -0.143 N  
HETATM   10  C   UNL     1     -10.349   5.396  72.263  1.00  0.00    -0.209 C  
HETATM   11  H   UNL     1     -10.943   4.375  70.558  1.00  0.00     0.000 HD 
HETATM   12  O   UNL     1      -9.527   5.609  73.152  1.00  0.00    -0.146 OA 
BRANCH  10  13
HETATM   13  C   UNL     1     -11.721   6.081  72.340  1.00  0.00    -0.271 C  
BRANCH  13  14
HETATM   14  N   UNL     1     -12.138   6.813  71.116  1.00  0.00    -0.369 NA 
HETATM   15  C   UNL     1     -13.460   7.454  71.360  1.00  0.00    -0.330 C  
HETATM   16  C   UNL     1     -13.448   8.707  72.280  1.00  0.00    -0.374 C  
HETATM   17  N   UNL     1     -12.445   9.734  71.932  1.00  0.00    -0.382 NA 
HETATM   18  C   UNL     1     -11.139   9.093  71.702  1.00  0.00    -0.375 C  
HETATM   19  C   UNL     1     -11.183   7.882  70.744  1.00  0.00    -0.266 C  
BRANCH  17  20
HETATM   20  C   UNL     1     -12.855  10.574  70.798  1.00  0.00    -0.367 C  
BRANCH  20  21
HETATM   21  C   UNL     1     -11.786  11.616  70.436  1.00  0.00    -0.385 C  
BRANCH  21  22
HETATM   22  C   UNL     1     -12.018  12.311  69.084  1.00  0.00    -0.303 C  
HETATM   23  C   UNL     1     -10.731  12.561  68.254  1.00  0.00    -0.246 C  
HETATM   24  C   UNL     1     -10.970  13.441  67.025  1.00  0.00    -0.298 A  
HETATM   25  C   UNL     1     -10.048  11.238  67.918  1.00  0.00    -0.195 A  
HETATM   26  C   UNL     1     -10.684  10.283  67.107  1.00  0.00    -0.303 A  
HETATM   27  C   UNL     1      -9.926  14.261  66.555  1.00  0.00    -0.289 A  
HETATM   28  C   UNL     1     -10.124  15.116  65.469  1.00  0.00    -0.402 A  
HETATM   29  C   UNL     1     -10.114   9.025  66.912  1.00  0.00    -0.338 A  
HETATM   30  C   UNL     1     -11.363  15.150  64.840  1.00  0.00    -0.399 A  
HETATM   31  C   UNL     1      -8.904   8.719  67.519  1.00  0.00    -0.134 A  
HETATM   32  F   UNL     1      -8.374   7.501  67.354  1.00  0.00    -0.109 F  
HETATM   33  C   UNL     1      -8.243   9.654  68.306  1.00  0.00    -0.106 A  
HETATM   34  F   UNL     1     -11.558  15.981  63.808  1.00  0.00    -0.249 F  
HETATM   35  C   UNL     1     -12.401  14.337  65.268  1.00  0.00    -0.427 A  
HETATM   36  C   UNL     1     -12.204  13.482  66.352  1.00  0.00    -0.454 A  
HETATM   37  C   UNL     1      -8.809  10.914  68.502  1.00  0.00    -0.153 A  
ENDBRANCH  21  22
ENDBRANCH  20  21
ENDBRANCH  17  20
ENDBRANCH  13  14
ENDBRANCH  10  13
ENDBRANCH   8   9
TORSDOF 6
ENDMDL
MODEL       30
REMARK 921   NORMALIZED FREE ENERGY PREDICTED BY IDOCK:   -6.54 KCAL/MOL
REMARK 922        TOTAL FREE ENERGY PREDICTED BY IDOCK:  -10.10 KCAL/MOL
REMARK 923 INTER-LIGAND FREE ENERGY PREDICTED BY IDOCK:   -9.80 KCAL/MOL
REMARK 924 INTRA-LIGAND FREE ENERGY PREDICTED BY IDOCK:   -0.31 KCAL/MOL
REMARK 927      BINDING AFFINITY PREDICTED BY RF-SCORE:    0.00 PKD
ROOT
HETATM    1  C   UNL     1     -10.030  19.927  66.129  1.00  0.00    -0.593 C  
HETATM    2  C   UNL     1      -8.699  19.232  66.244  1.00  0.00    -0.333 A  
HETATM    3  C   UNL     1      -7.583  19.908  65.710  1.00  0.00    -0.309 A  
HETATM    4  C   UNL     1      -6.330  19.309  65.672  1.00  0.00    -0.263 A  
HETATM    5  C   UNL     1      -6.178  18.010  66.141  1.00  0.00    -0.262 A  
HETATM    6  C   UNL     1      -7.270  17.304  66.681  1.00  0.00    -0.278 A  
HETATM    7  C   UNL     1      -7.022  15.905  67.181  1.00  0.00    -0.227 C  
HETATM    8  C   UNL     1      -8.531  17.936  66.788  1.00  0.00    -0.249 A  
ENDROOT
BRANCH   8   9
HETATM    9  N   UNL     1      -9.593  17.224  67.414  1.00  0.00    -0.249 N  
HETATM   10  C   UNL     1     -10.218  17.651  68.575  1.00  0.00    -0.386 C  
HETATM   11  H   UNL     1      -9.910  16.354  66.986  1.00  0.00     0.000 HD 
HETATM   12  O   UNL     1      -9.933  18.676  69.192  1.00  0.00    -0.348 OA 
BRANCH  10  13
HETATM   13  C   UNL     1     -11.234  16.675  69.186  1.00  0.00    -0.148 C  
BRANCH  13  14
HETATM   14  N   UNL     1     -10.659  15.627  70.068  1.00  0.00    -0.315 NA 
HETATM   15  C   UNL     1     -11.472  15.539  71.313  1.00  0.00    -0.404 C  
HETATM   16  C   UNL     1     -12.864  14.860  71.169  1.00  0.00    -0.359 C  
HETATM   17  N   UNL     1     -12.859  13.556  70.475  1.00  0.00    -0.133 NA 
HETATM   18  C   UNL     1     -12.061  13.654  69.241  1.00  0.00    -0.314 C  
HETATM   19  C   UNL     1     -10.666  14.288  69.433  1.00  0.00    -0.128 C  
BRANCH  17  20
HETATM   20  C   UNL     1     -12.413  12.452  71.335  1.00  0.00    -0.100 C  
BRANCH  20  21
HETATM   21  C   UNL     1     -12.879  11.086  70.809  1.00  0.00    -0.354 C  
BRANCH  21  22
HETATM   22  C   UNL     1     -12.121  10.600  69.563  1.00  0.00    -0.285 C  
HETATM   23  C   UNL     1     -10.694  10.056  69.841  1.00  0.00    -0.328 C  
HETATM   24  C   UNL     1      -9.894   9.785  68.566  1.00  0.00    -0.169 A  
HETATM   25  C   UNL     1     -10.757   8.850  70.775  1.00  0.00    -0.287 A  
HETATM   26  C   UNL     1     -11.400   7.664  70.381  1.00  0.00    -0.235 A  
HETATM   27  C   UNL     1      -8.492   9.913  68.596  1.00  0.00    -0.114 A  
HETATM   28  C   UNL     1      -7.733   9.726  67.438  1.00  0.00    -0.095 A  
HETATM   29  C   UNL     1     -11.570   6.614  71.283  1.00  0.00    -0.374 A  
HETATM   30  C   UNL     1      -8.370   9.401  66.247  1.00  0.00    -0.115 A  
HETATM   31  C   UNL     1     -11.091   6.740  72.579  1.00  0.00    -0.264 A  
HETATM   32  F   UNL     1     -11.281   5.743  73.452  1.00  0.00    -0.283 F  
HETATM   33  C   UNL     1     -10.429   7.892  72.987  1.00  0.00    -0.410 A  
HETATM   34  F   UNL     1      -7.645   9.237  65.133  1.00  0.00    -0.099 F  
HETATM   35  C   UNL     1      -9.747   9.247  66.194  1.00  0.00    -0.349 A  
HETATM   36  C   UNL     1     -10.505   9.433  67.350  1.00  0.00    -0.343 A  
HETATM   37  C   UNL     1     -10.256   8.944  72.087  1.00  0.00    -0.292 A  
ENDBRANCH  21  22
ENDBRANCH  20  21
ENDBRANCH  17  20
ENDBRANCH  13  14
ENDBRANCH  10  13
ENDBRANCH   8   9
TORSDOF 6
ENDMDL
MODEL       31
REMARK 921   NORMALIZED FREE ENERGY PREDICTED BY IDOCK:   -6.53 KCAL/MOL
REMARK 922        TOTAL FREE ENERGY PREDICTED BY IDOCK:  -10.09 KCAL/MOL
REMARK 923 INTER-LIGAND FREE ENERGY PREDICTED BY IDOCK:   -9.28 KCAL/MOL
REMARK 924 INTRA-LIGAND FREE ENERGY PREDICTED BY IDOCK:   -0.81 KCAL/MOL
REMARK 927      BINDING AFFINITY PREDICTED BY RF-SCORE:    0.00 PKD
ROOT
HETATM    1  C   UNL     1     -10.957  19.746  67.252  1.00  0.00    -0.345 C  
HETATM    2  C   UNL     1      -9.481  19.451  67.220  1.00  0.00    -0.398 A  
HETATM    3  C   UNL     1      -8.613  20.561  67.208  1.00  0.00    -0.372 A  
HETATM    4  C   UNL     1      -7.240  20.398  67.073  1.00  0.00    -0.347 A  
HETATM    5  C   UNL     1      -6.713  19.122  66.917  1.00  0.00    -0.204 A  
HETATM    6  C   UNL     1      -7.550  17.989  66.923  1.00  0.00    -0.237 A  
HETATM    7  C   UNL     1      -6.903  16.639  66.763  1.00  0.00    -0.252 C  
HETATM    8  C   UNL     1      -8.941  18.145  67.132  1.00  0.00    -0.256 A  
ENDROOT
BRANCH   8   9
HETATM    9  N   UNL     1      -9.746  16.975  67.216  1.00  0.00    -0.247 N  
HETATM   10  C   UNL     1     -10.427  16.437  66.135  1.00  0.00    -0.314 C  
HETATM   11  H   UNL     1      -9.827  16.507  68.119  1.00  0.00     0.000 HD 
HETATM   12  O   UNL     1     -10.419  16.902  64.997  1.00  0.00    -0.675 OA 
BRANCH  10  13
HETATM   13  C   UNL     1     -11.367  15.265  66.452  1.00  0.00    -0.161 C  
BRANCH  13  14
HETATM   14  N   UNL     1     -10.951  13.949  65.905  1.00  0.00    -0.283 NA 
HETATM   15  C   UNL     1      -9.545  13.675  66.312  1.00  0.00    -0.239 C  
HETATM   16  C   UNL     1      -9.333  13.286  67.803  1.00  0.00    -0.209 C  
HETATM   17  N   UNL     1     -10.221  12.220  68.308  1.00  0.00    -0.216 NA 
HETATM   18  C   UNL     1     -11.611  12.503  67.909  1.00  0.00    -0.347 C  
HETATM   19  C   UNL     1     -11.789  12.836  66.412  1.00  0.00    -0.408 C  
BRANCH  17  20
HETATM   20  C   UNL     1      -9.793  10.876  67.900  1.00  0.00    -0.172 C  
BRANCH  20  21
HETATM   21  C   UNL     1     -10.588   9.774  68.615  1.00  0.00    -0.249 C  
BRANCH  21  22
HETATM   22  C   UNL     1     -10.625   8.434  67.862  1.00  0.00    -0.218 C  
HETATM   23  C   UNL     1      -9.610   7.376  68.369  1.00  0.00    -0.149 C  
HETATM   24  C   UNL     1      -9.523   6.144  67.466  1.00  0.00    -0.114 A  
HETATM   25  C   UNL     1      -9.888   7.028  69.829  1.00  0.00    -0.171 A  
HETATM   26  C   UNL     1     -11.095   6.415  70.208  1.00  0.00    -0.416 A  
HETATM   27  C   UNL     1      -8.308   5.438  67.382  1.00  0.00    -0.103 A  
HETATM   28  C   UNL     1      -8.176   4.341  66.528  1.00  0.00    -0.102 A  
HETATM   29  C   UNL     1     -11.400   6.220  71.555  1.00  0.00    -0.352 A  
HETATM   30  C   UNL     1      -9.261   3.937  65.760  1.00  0.00    -0.154 A  
HETATM   31  C   UNL     1     -10.498   6.629  72.528  1.00  0.00    -0.205 A  
HETATM   32  F   UNL     1     -10.806   6.467  73.821  1.00  0.00    -0.283 F  
HETATM   33  C   UNL     1      -9.288   7.215  72.179  1.00  0.00    -0.148 A  
HETATM   34  F   UNL     1      -9.131   2.895  64.928  1.00  0.00    -0.119 F  
HETATM   35  C   UNL     1     -10.476   4.600  65.839  1.00  0.00    -0.305 A  
HETATM   36  C   UNL     1     -10.609   5.696  66.692  1.00  0.00    -0.361 A  
HETATM   37  C   UNL     1      -8.978   7.410  70.833  1.00  0.00    -0.149 A  
ENDBRANCH  21  22
ENDBRANCH  20  21
ENDBRANCH  17  20
ENDBRANCH  13  14
ENDBRANCH  10  13
ENDBRANCH   8   9
TORSDOF 6
ENDMDL
MODEL       32
REMARK 921   NORMALIZED FREE ENERGY PREDICTED BY IDOCK:   -6.51 KCAL/MOL
REMARK 922        TOTAL FREE ENERGY PREDICTED BY IDOCK:  -10.06 KCAL/MOL
REMARK 923 INTER-LIGAND FREE ENERGY PREDICTED BY IDOCK:   -9.33 KCAL/MOL
REMARK 924 INTRA-LIGAND FREE ENERGY PREDICTED BY IDOCK:   -0.73 KCAL/MOL
REMARK 927      BINDING AFFINITY PREDICTED BY RF-SCORE:    0.00 PKD
ROOT
HETATM    1  C   UNL     1      -8.977   1.986  70.701  1.00  0.00    -0.143 C  
HETATM    2  C   UNL     1      -9.694   2.840  71.713  1.00  0.00    -0.225 A  
HETATM    3  C   UNL     1     -10.469   2.164  72.677  1.00  0.00    -0.224 A  
HETATM    4  C   UNL     1     -11.252   2.863  73.588  1.00  0.00    -0.305 A  
HETATM    5  C   UNL     1     -11.297   4.250  73.530  1.00  0.00    -0.316 A  
HETATM    6  C   UNL     1     -10.537   4.959  72.580  1.00  0.00    -0.271 A  
HETATM    7  C   UNL     1     -10.628   6.462  72.590  1.00  0.00    -0.250 C  
HETATM    8  C   UNL     1      -9.683   4.255  71.698  1.00  0.00    -0.173 A  
ENDROOT
BRANCH   8   9
HETATM    9  N   UNL     1      -8.866   5.007  70.806  1.00  0.00    -0.128 N  
HETATM   10  C   UNL     1      -9.284   5.417  69.549  1.00  0.00    -0.117 C  
HETATM   11  H   UNL     1      -7.924   5.256  71.107  1.00  0.00     0.000 HD 
HETATM   12  O   UNL     1     -10.389   5.181  69.064  1.00  0.00    -0.199 OA 
BRANCH  10  13
HETATM   13  C   UNL     1      -8.213   6.080  68.672  1.00  0.00    -0.107 C  
BRANCH  13  14
HETATM   14  N   UNL     1      -7.560   7.278  69.260  1.00  0.00    -0.099 NA 
HETATM   15  C   UNL     1      -6.653   7.885  68.246  1.00  0.00    -0.059 C  
HETATM   16  C   UNL     1      -7.349   8.654  67.087  1.00  0.00    -0.088 C  
HETATM   17  N   UNL     1      -8.368   9.637  67.507  1.00  0.00    -0.117 NA 
HETATM   18  C   UNL     1      -9.265   9.026  68.502  1.00  0.00    -0.136 C  
HETATM   19  C   UNL     1      -8.538   8.314  69.664  1.00  0.00    -0.129 C  
BRANCH  17  20
HETATM   20  C   UNL     1      -7.784  10.896  67.989  1.00  0.00    -0.101 C  
BRANCH  20  21
HETATM   21  C   UNL     1      -8.637  12.113  67.601  1.00  0.00    -0.166 C  
BRANCH  21  22
HETATM   22  C   UNL     1      -9.795  12.405  68.570  1.00  0.00    -0.156 C  
HETATM   23  C   UNL     1     -10.469  13.789  68.377  1.00  0.00    -0.256 C  
HETATM   24  C   UNL     1     -11.464  14.133  69.487  1.00  0.00    -0.334 A  
HETATM   25  C   UNL     1     -11.073  13.897  66.979  1.00  0.00    -0.311 A  
HETATM   26  C   UNL     1     -12.122  13.053  66.578  1.00  0.00    -0.410 A  
HETATM   27  C   UNL     1     -11.667  15.483  69.832  1.00  0.00    -0.368 A  
HETATM   28  C   UNL     1     -12.527  15.832  70.876  1.00  0.00    -0.451 A  
HETATM   29  C   UNL     1     -12.580  13.065  65.260  1.00  0.00    -0.516 A  
HETATM   30  C   UNL     1     -13.197  14.834  71.574  1.00  0.00    -0.356 A  
HETATM   31  C   UNL     1     -11.998  13.926  64.341  1.00  0.00    -0.450 A  
HETATM   32  F   UNL     1     -12.419  13.916  63.070  1.00  0.00    -0.425 F  
HETATM   33  C   UNL     1     -10.975  14.789  64.717  1.00  0.00    -0.393 A  
HETATM   34  F   UNL     1     -14.010  15.166  72.585  1.00  0.00    -0.495 F  
HETATM   35  C   UNL     1     -13.033  13.499  71.240  1.00  0.00    -0.384 A  
HETATM   36  C   UNL     1     -12.175  13.150  70.198  1.00  0.00    -0.360 A  
HETATM   37  C   UNL     1     -10.516  14.780  66.035  1.00  0.00    -0.312 A  
ENDBRANCH  21  22
ENDBRANCH  20  21
ENDBRANCH  17  20
ENDBRANCH  13  14
ENDBRANCH  10  13
ENDBRANCH   8   9
TORSDOF 6
ENDMDL
MODEL       33
REMARK 921   NORMALIZED FREE ENERGY PREDICTED BY IDOCK:   -6.50 KCAL/MOL
REMARK 922        TOTAL FREE ENERGY PREDICTED BY IDOCK:  -10.05 KCAL/MOL
REMARK 923 INTER-LIGAND FREE ENERGY PREDICTED BY IDOCK:   -9.07 KCAL/MOL
REMARK 924 INTRA-LIGAND FREE ENERGY PREDICTED BY IDOCK:   -0.98 KCAL/MOL
REMARK 927      BINDING AFFINITY PREDICTED BY RF-SCORE:    0.00 PKD
ROOT
HETATM    1  C   UNL     1      -9.439   1.667  70.467  1.00  0.00    -0.162 C  
HETATM    2  C   UNL     1      -9.804   2.439  71.708  1.00  0.00    -0.228 A  
HETATM    3  C   UNL     1     -10.063   1.684  72.870  1.00  0.00    -0.178 A  
HETATM    4  C   UNL     1     -10.509   2.292  74.037  1.00  0.00    -0.209 A  
HETATM    5  C   UNL     1     -10.733   3.663  74.053  1.00  0.00    -0.284 A  
HETATM    6  C   UNL     1     -10.486   4.449  72.911  1.00  0.00    -0.253 A  
HETATM    7  C   UNL     1     -10.739   5.930  73.011  1.00  0.00    -0.286 C  
HETATM    8  C   UNL     1      -9.963   3.845  71.743  1.00  0.00    -0.163 A  
ENDROOT
BRANCH   8   9
HETATM    9  N   UNL     1      -9.647   4.680  70.634  1.00  0.00    -0.175 N  
HETATM   10  C   UNL     1      -8.384   5.207  70.411  1.00  0.00    -0.105 C  
HETATM   11  H   UNL     1     -10.388   4.902  69.970  1.00  0.00     0.000 HD 
HETATM   12  O   UNL     1      -7.407   5.022  71.133  1.00  0.00    -0.068 OA 
BRANCH  10  13
HETATM   13  C   UNL     1      -8.273   6.209  69.254  1.00  0.00    -0.116 C  
BRANCH  13  14
HETATM   14  N   UNL     1      -7.928   7.600  69.645  1.00  0.00    -0.121 NA 
HETATM   15  C   UNL     1      -7.826   8.439  68.418  1.00  0.00    -0.113 C  
HETATM   16  C   UNL     1      -9.172   8.811  67.735  1.00  0.00    -0.134 C  
HETATM   17  N   UNL     1     -10.205   9.358  68.636  1.00  0.00    -0.194 NA 
HETATM   18  C   UNL     1     -10.307   8.518  69.842  1.00  0.00    -0.210 C  
HETATM   19  C   UNL     1      -8.954   8.211  70.522  1.00  0.00    -0.145 C  
BRANCH  17  20
HETATM   20  C   UNL     1      -9.986  10.773  68.967  1.00  0.00    -0.199 C  
BRANCH  20  21
HETATM   21  C   UNL     1     -11.306  11.546  69.101  1.00  0.00    -0.351 C  
BRANCH  21  22
HETATM   22  C   UNL     1     -11.150  13.074  69.033  1.00  0.00    -0.281 C  
HETATM   23  C   UNL     1     -10.289  13.587  67.849  1.00  0.00    -0.249 C  
HETATM   24  C   UNL     1      -9.976  15.082  67.935  1.00  0.00    -0.222 A  
HETATM   25  C   UNL     1     -10.919  13.184  66.518  1.00  0.00    -0.303 A  
HETATM   26  C   UNL     1     -12.180  13.676  66.138  1.00  0.00    -0.490 A  
HETATM   27  C   UNL     1      -8.775  15.565  67.380  1.00  0.00    -0.194 A  
HETATM   28  C   UNL     1      -8.432  16.915  67.487  1.00  0.00    -0.204 A  
HETATM   29  C   UNL     1     -12.809  13.203  64.987  1.00  0.00    -0.370 A  
HETATM   30  C   UNL     1      -9.290  17.791  68.139  1.00  0.00    -0.281 A  
HETATM   31  C   UNL     1     -12.179  12.245  64.206  1.00  0.00    -0.425 A  
HETATM   32  F   UNL     1     -12.798  11.771  63.117  1.00  0.00    -0.714 F  
HETATM   33  C   UNL     1     -10.922  11.759  64.546  1.00  0.00    -0.382 A  
HETATM   34  F   UNL     1      -8.954  19.082  68.256  1.00  0.00    -0.312 F  
HETATM   35  C   UNL     1     -10.489  17.346  68.675  1.00  0.00    -0.355 A  
HETATM   36  C   UNL     1     -10.834  15.999  68.568  1.00  0.00    -0.304 A  
HETATM   37  C   UNL     1     -10.289  12.231  65.697  1.00  0.00    -0.287 A  
ENDBRANCH  21  22
ENDBRANCH  20  21
ENDBRANCH  17  20
ENDBRANCH  13  14
ENDBRANCH  10  13
ENDBRANCH   8   9
TORSDOF 6
ENDMDL
MODEL       34
REMARK 921   NORMALIZED FREE ENERGY PREDICTED BY IDOCK:   -6.49 KCAL/MOL
REMARK 922        TOTAL FREE ENERGY PREDICTED BY IDOCK:  -10.04 KCAL/MOL
REMARK 923 INTER-LIGAND FREE ENERGY PREDICTED BY IDOCK:   -9.17 KCAL/MOL
REMARK 924 INTRA-LIGAND FREE ENERGY PREDICTED BY IDOCK:   -0.86 KCAL/MOL
REMARK 927      BINDING AFFINITY PREDICTED BY RF-SCORE:    0.00 PKD
ROOT
HETATM    1  C   UNL     1      -7.889   5.881  69.643  1.00  0.00    -0.097 C  
HETATM    2  C   UNL     1      -7.897   4.558  70.363  1.00  0.00    -0.053 A  
HETATM    3  C   UNL     1      -6.696   3.820  70.346  1.00  0.00    -0.033 A  
HETATM    4  C   UNL     1      -6.630   2.543  70.889  1.00  0.00    -0.031 A  
HETATM    5  C   UNL     1      -7.773   1.970  71.433  1.00  0.00    -0.040 A  
HETATM    6  C   UNL     1      -8.990   2.677  71.466  1.00  0.00    -0.145 A  
HETATM    7  C   UNL     1     -10.181   1.993  72.085  1.00  0.00    -0.214 C  
HETATM    8  C   UNL     1      -9.045   4.004  70.979  1.00  0.00    -0.116 A  
ENDROOT
BRANCH   8   9
HETATM    9  N   UNL     1     -10.269   4.720  71.104  1.00  0.00    -0.188 N  
HETATM   10  C   UNL     1     -10.539   5.596  72.145  1.00  0.00    -0.223 C  
HETATM   11  H   UNL     1     -10.985   4.581  70.391  1.00  0.00     0.000 HD 
HETATM   12  O   UNL     1      -9.768   5.851  73.068  1.00  0.00    -0.154 OA 
BRANCH  10  13
HETATM   13  C   UNL     1     -11.968   6.154  72.194  1.00  0.00    -0.260 C  
BRANCH  13  14
HETATM   14  N   UNL     1     -12.402   6.904  70.988  1.00  0.00    -0.383 NA 
HETATM   15  C   UNL     1     -13.717   7.550  71.263  1.00  0.00    -0.251 C  
HETATM   16  C   UNL     1     -13.681   8.790  72.200  1.00  0.00    -0.447 C  
HETATM   17  N   UNL     1     -12.679   9.816  71.848  1.00  0.00    -0.404 NA 
HETATM   18  C   UNL     1     -11.381   9.171  71.587  1.00  0.00    -0.376 C  
HETATM   19  C   UNL     1     -11.448   7.974  70.614  1.00  0.00    -0.232 C  
BRANCH  17  20
HETATM   20  C   UNL     1     -13.103  10.673  70.733  1.00  0.00    -0.219 C  
BRANCH  20  21
HETATM   21  C   UNL     1     -11.992  11.636  70.291  1.00  0.00    -0.445 C  
BRANCH  21  22
HETATM   22  C   UNL     1     -11.419  11.338  68.895  1.00  0.00    -0.363 C  
HETATM   23  C   UNL     1     -11.745  12.405  67.817  1.00  0.00    -0.413 C  
HETATM   24  C   UNL     1     -11.349  11.974  66.404  1.00  0.00    -0.411 A  
HETATM   25  C   UNL     1     -11.161  13.759  68.215  1.00  0.00    -0.301 A  
HETATM   26  C   UNL     1      -9.772  13.941  68.330  1.00  0.00    -0.226 A  
HETATM   27  C   UNL     1     -12.088  12.456  65.307  1.00  0.00    -0.451 A  
HETATM   28  C   UNL     1     -11.789  12.042  64.007  1.00  0.00    -0.500 A  
HETATM   29  C   UNL     1      -9.251  15.138  68.820  1.00  0.00    -0.200 A  
HETATM   30  C   UNL     1     -10.744  11.152  63.795  1.00  0.00    -0.329 A  
HETATM   31  C   UNL     1     -10.113  16.161  69.189  1.00  0.00    -0.252 A  
HETATM   32  F   UNL     1      -9.612  17.298  69.686  1.00  0.00    -0.013 F  
HETATM   33  C   UNL     1     -11.490  16.016  69.062  1.00  0.00    -0.360 A  
HETATM   34  F   UNL     1     -10.466  10.741  62.551  1.00  0.00    -0.077 F  
HETATM   35  C   UNL     1      -9.986  10.678  64.855  1.00  0.00    -0.382 A  
HETATM   36  C   UNL     1     -10.283  11.092  66.154  1.00  0.00    -0.298 A  
HETATM   37  C   UNL     1     -12.015  14.820  68.570  1.00  0.00    -0.284 A  
ENDBRANCH  21  22
ENDBRANCH  20  21
ENDBRANCH  17  20
ENDBRANCH  13  14
ENDBRANCH  10  13
ENDBRANCH   8   9
TORSDOF 6
ENDMDL
MODEL       35
REMARK 921   NORMALIZED FREE ENERGY PREDICTED BY IDOCK:   -6.48 KCAL/MOL
REMARK 922        TOTAL FREE ENERGY PREDICTED BY IDOCK:  -10.02 KCAL/MOL
REMARK 923 INTER-LIGAND FREE ENERGY PREDICTED BY IDOCK:   -9.14 KCAL/MOL
REMARK 924 INTRA-LIGAND FREE ENERGY PREDICTED BY IDOCK:   -0.88 KCAL/MOL
REMARK 927      BINDING AFFINITY PREDICTED BY RF-SCORE:    0.00 PKD
ROOT
HETATM    1  C   UNL     1     -11.220  16.152  70.108  1.00  0.00    -0.374 C  
HETATM    2  C   UNL     1     -12.174  15.187  70.762  1.00  0.00    -0.392 A  
HETATM    3  C   UNL     1     -13.170  15.743  71.589  1.00  0.00    -0.462 A  
HETATM    4  C   UNL     1     -14.031  14.934  72.320  1.00  0.00    -0.602 A  
HETATM    5  C   UNL     1     -13.891  13.553  72.259  1.00  0.00    -0.680 A  
HETATM    6  C   UNL     1     -12.907  12.962  71.444  1.00  0.00    -0.377 A  
HETATM    7  C   UNL     1     -12.828  11.458  71.420  1.00  0.00    -0.502 C  
HETATM    8  C   UNL     1     -12.075  13.780  70.643  1.00  0.00    -0.333 A  
ENDROOT
BRANCH   8   9
HETATM    9  N   UNL     1     -11.148  13.147  69.768  1.00  0.00    -0.471 N  
HETATM   10  C   UNL     1     -11.280  13.143  68.387  1.00  0.00    -0.271 C  
HETATM   11  H   UNL     1     -10.343  12.672  70.177  1.00  0.00     0.000 HD 
HETATM   12  O   UNL     1     -12.200  13.673  67.767  1.00  0.00    -0.321 OA 
BRANCH  10  13
HETATM   13  C   UNL     1     -10.268  12.280  67.621  1.00  0.00    -0.203 C  
BRANCH  13  14
HETATM   14  N   UNL     1      -9.396  11.421  68.463  1.00  0.00    -0.186 NA 
HETATM   15  C   UNL     1      -9.670   9.991  68.148  1.00  0.00    -0.140 C  
HETATM   16  C   UNL     1      -9.113   9.476  66.790  1.00  0.00    -0.146 C  
HETATM   17  N   UNL     1      -7.692   9.786  66.535  1.00  0.00    -0.104 NA 
HETATM   18  C   UNL     1      -7.432  11.204  66.840  1.00  0.00    -0.138 C  
HETATM   19  C   UNL     1      -7.955  11.666  68.217  1.00  0.00    -0.143 C  
BRANCH  17  20
HETATM   20  C   UNL     1      -6.773   8.890  67.249  1.00  0.00    -0.066 C  
BRANCH  20  21
HETATM   21  C   UNL     1      -7.235   7.427  67.194  1.00  0.00    -0.089 C  
BRANCH  21  22
HETATM   22  C   UNL     1      -7.741   6.876  68.538  1.00  0.00    -0.113 C  
HETATM   23  C   UNL     1      -9.215   6.389  68.526  1.00  0.00    -0.124 C  
HETATM   24  C   UNL     1      -9.748   6.053  69.920  1.00  0.00    -0.200 A  
HETATM   25  C   UNL     1      -9.391   5.249  67.527  1.00  0.00    -0.125 A  
HETATM   26  C   UNL     1      -8.728   4.022  67.706  1.00  0.00    -0.119 A  
HETATM   27  C   UNL     1     -11.121   6.219  70.188  1.00  0.00    -0.443 A  
HETATM   28  C   UNL     1     -11.634   5.973  71.463  1.00  0.00    -0.238 A  
HETATM   29  C   UNL     1      -8.787   3.033  66.726  1.00  0.00    -0.159 A  
HETATM   30  C   UNL     1     -10.781   5.550  72.475  1.00  0.00    -0.240 A  
HETATM   31  C   UNL     1      -9.515   3.260  65.566  1.00  0.00    -0.107 A  
HETATM   32  F   UNL     1      -9.547   2.320  64.613  1.00  0.00    -0.141 F  
HETATM   33  C   UNL     1     -10.200   4.453  65.375  1.00  0.00    -0.247 A  
HETATM   34  F   UNL     1     -11.270   5.329  73.703  1.00  0.00    -0.331 F  
HETATM   35  C   UNL     1      -9.430   5.357  72.233  1.00  0.00    -0.165 A  
HETATM   36  C   UNL     1      -8.916   5.602  70.960  1.00  0.00    -0.151 A  
HETATM   37  C   UNL     1     -10.145   5.446  66.355  1.00  0.00    -0.239 A  
ENDBRANCH  21  22
ENDBRANCH  20  21
ENDBRANCH  17  20
ENDBRANCH  13  14
ENDBRANCH  10  13
ENDBRANCH   8   9
TORSDOF 6
ENDMDL
MODEL       36
REMARK 921   NORMALIZED FREE ENERGY PREDICTED BY IDOCK:   -6.48 KCAL/MOL
REMARK 922        TOTAL FREE ENERGY PREDICTED BY IDOCK:  -10.02 KCAL/MOL
REMARK 923 INTER-LIGAND FREE ENERGY PREDICTED BY IDOCK:   -9.41 KCAL/MOL
REMARK 924 INTRA-LIGAND FREE ENERGY PREDICTED BY IDOCK:   -0.61 KCAL/MOL
REMARK 927      BINDING AFFINITY PREDICTED BY RF-SCORE:    0.00 PKD
ROOT
HETATM    1  C   UNL     1      -7.885  17.171  66.400  1.00  0.00    -0.352 C  
HETATM    2  C   UNL     1      -9.077  16.946  67.293  1.00  0.00    -0.225 A  
HETATM    3  C   UNL     1      -9.383  17.971  68.211  1.00  0.00    -0.299 A  
HETATM    4  C   UNL     1     -10.396  17.816  69.149  1.00  0.00    -0.157 A  
HETATM    5  C   UNL     1     -11.101  16.621  69.204  1.00  0.00    -0.219 A  
HETATM    6  C   UNL     1     -10.823  15.575  68.304  1.00  0.00    -0.292 A  
HETATM    7  C   UNL     1     -11.640  14.315  68.418  1.00  0.00    -0.354 C  
HETATM    8  C   UNL     1      -9.841  15.755  67.301  1.00  0.00    -0.230 A  
ENDROOT
BRANCH   8   9
HETATM    9  N   UNL     1      -9.642  14.710  66.355  1.00  0.00    -0.286 N  
HETATM   10  C   UNL     1     -10.462  14.509  65.255  1.00  0.00    -0.390 C  
HETATM   11  H   UNL     1      -8.856  14.075  66.494  1.00  0.00     0.000 HD 
HETATM   12  O   UNL     1     -11.441  15.196  64.972  1.00  0.00    -0.368 OA 
BRANCH  10  13
HETATM   13  C   UNL     1     -10.183  13.241  64.436  1.00  0.00    -0.277 C  
BRANCH  13  14
HETATM   14  N   UNL     1     -11.092  12.097  64.703  1.00  0.00    -0.306 NA 
HETATM   15  C   UNL     1     -10.558  10.882  64.027  1.00  0.00    -0.240 C  
HETATM   16  C   UNL     1      -9.309  10.232  64.688  1.00  0.00    -0.266 C  
HETATM   17  N   UNL     1      -9.418   9.994  66.141  1.00  0.00    -0.178 NA 
HETATM   18  C   UNL     1      -9.939  11.203  66.803  1.00  0.00    -0.208 C  
HETATM   19  C   UNL     1     -11.208  11.792  66.148  1.00  0.00    -0.306 C  
BRANCH  17  20
HETATM   20  C   UNL     1     -10.210   8.802  66.469  1.00  0.00    -0.244 C  
BRANCH  20  21
HETATM   21  C   UNL     1     -10.420   8.646  67.983  1.00  0.00    -0.254 C  
BRANCH  21  22
HETATM   22  C   UNL     1     -10.141   7.231  68.515  1.00  0.00    -0.182 C  
HETATM   23  C   UNL     1      -9.845   7.155  70.036  1.00  0.00    -0.178 C  
HETATM   24  C   UNL     1      -9.362   5.775  70.488  1.00  0.00    -0.189 A  
HETATM   25  C   UNL     1     -11.042   7.662  70.837  1.00  0.00    -0.275 A  
HETATM   26  C   UNL     1     -12.276   6.991  70.793  1.00  0.00    -0.343 A  
HETATM   27  C   UNL     1      -8.487   5.681  71.587  1.00  0.00    -0.131 A  
HETATM   28  C   UNL     1      -7.984   4.443  71.994  1.00  0.00    -0.098 A  
HETATM   29  C   UNL     1     -13.400   7.530  71.420  1.00  0.00    -0.370 A  
HETATM   30  C   UNL     1      -8.360   3.293  71.312  1.00  0.00    -0.063 A  
HETATM   31  C   UNL     1     -13.293   8.735  72.100  1.00  0.00    -0.423 A  
HETATM   32  F   UNL     1     -14.380   9.264  72.676  1.00  0.00    -0.462 F  
HETATM   33  C   UNL     1     -12.079   9.405  72.180  1.00  0.00    -0.293 A  
HETATM   34  F   UNL     1      -7.865   2.107  71.691  1.00  0.00    -0.039 F  
HETATM   35  C   UNL     1      -9.237   3.355  70.240  1.00  0.00    -0.226 A  
HETATM   36  C   UNL     1      -9.741   4.590  69.833  1.00  0.00    -0.288 A  
HETATM   37  C   UNL     1     -10.952   8.869  71.555  1.00  0.00    -0.398 A  
ENDBRANCH  21  22
ENDBRANCH  20  21
ENDBRANCH  17  20
ENDBRANCH  13  14
ENDBRANCH  10  13
ENDBRANCH   8   9
TORSDOF 6
ENDMDL
MODEL       37
REMARK 921   NORMALIZED FREE ENERGY PREDICTED BY IDOCK:   -6.47 KCAL/MOL
REMARK 922        TOTAL FREE ENERGY PREDICTED BY IDOCK:  -10.01 KCAL/MOL
REMARK 923 INTER-LIGAND FREE ENERGY PREDICTED BY IDOCK:   -9.42 KCAL/MOL
REMARK 924 INTRA-LIGAND FREE ENERGY PREDICTED BY IDOCK:   -0.59 KCAL/MOL
REMARK 927      BINDING AFFINITY PREDICTED BY RF-SCORE:    0.00 PKD
ROOT
HETATM    1  C   UNL     1      -6.254  17.861  69.673  1.00  0.00    -0.209 C  
HETATM    2  C   UNL     1      -6.509  18.915  68.628  1.00  0.00    -0.269 A  
HETATM    3  C   UNL     1      -5.536  19.927  68.499  1.00  0.00    -0.231 A  
HETATM    4  C   UNL     1      -5.727  21.001  67.639  1.00  0.00    -0.357 A  
HETATM    5  C   UNL     1      -6.908  21.097  66.914  1.00  0.00    -0.317 A  
HETATM    6  C   UNL     1      -7.902  20.106  67.018  1.00  0.00    -0.354 A  
HETATM    7  C   UNL     1      -9.149  20.274  66.190  1.00  0.00    -0.227 C  
HETATM    8  C   UNL     1      -7.682  18.974  67.838  1.00  0.00    -0.266 A  
ENDROOT
BRANCH   8   9
HETATM    9  N   UNL     1      -8.670  17.950  67.856  1.00  0.00    -0.247 N  
HETATM   10  C   UNL     1      -9.842  18.032  68.593  1.00  0.00    -0.378 C  
HETATM   11  H   UNL     1      -8.509  17.111  67.298  1.00  0.00     0.000 HD 
HETATM   12  O   UNL     1     -10.158  18.981  69.308  1.00  0.00    -0.319 OA 
BRANCH  10  13
HETATM   13  C   UNL     1     -10.712  16.767  68.610  1.00  0.00    -0.352 C  
BRANCH  13  14
HETATM   14  N   UNL     1     -10.190  15.646  69.433  1.00  0.00    -0.242 NA 
HETATM   15  C   UNL     1     -11.075  15.457  70.616  1.00  0.00    -0.335 C  
HETATM   16  C   UNL     1     -12.455  14.800  70.334  1.00  0.00    -0.349 C  
HETATM   17  N   UNL     1     -12.410  13.559  69.535  1.00  0.00    -0.220 NA 
HETATM   18  C   UNL     1     -11.541  13.756  68.362  1.00  0.00    -0.334 C  
HETATM   19  C   UNL     1     -10.159  14.366  68.688  1.00  0.00    -0.242 C  
BRANCH  17  20
HETATM   20  C   UNL     1     -12.015  12.385  70.323  1.00  0.00    -0.289 C  
BRANCH  20  21
HETATM   21  C   UNL     1     -12.284  11.070  69.576  1.00  0.00    -0.352 C  
BRANCH  21  22
HETATM   22  C   UNL     1     -11.070  10.525  68.804  1.00  0.00    -0.315 C  
HETATM   23  C   UNL     1      -9.977   9.871  69.690  1.00  0.00    -0.255 C  
HETATM   24  C   UNL     1      -8.698   9.538  68.920  1.00  0.00    -0.133 A  
HETATM   25  C   UNL     1     -10.550   8.673  70.445  1.00  0.00    -0.244 A  
HETATM   26  C   UNL     1     -11.018   7.542  69.755  1.00  0.00    -0.195 A  
HETATM   27  C   UNL     1      -7.465   9.555  69.599  1.00  0.00    -0.092 A  
HETATM   28  C   UNL     1      -6.271   9.308  68.917  1.00  0.00    -0.043 A  
HETATM   29  C   UNL     1     -11.660   6.509  70.437  1.00  0.00    -0.470 A  
HETATM   30  C   UNL     1      -6.304   9.034  67.556  1.00  0.00    -0.063 A  
HETATM   31  C   UNL     1     -11.829   6.597  71.812  1.00  0.00    -0.335 A  
HETATM   32  F   UNL     1     -12.471   5.618  72.461  1.00  0.00    -0.311 F  
HETATM   33  C   UNL     1     -11.353   7.694  72.521  1.00  0.00    -0.409 A  
HETATM   34  F   UNL     1      -5.158   8.813  66.898  1.00  0.00    -0.032 F  
HETATM   35  C   UNL     1      -7.506   8.989  66.867  1.00  0.00    -0.090 A  
HETATM   36  C   UNL     1      -8.699   9.234  67.547  1.00  0.00    -0.116 A  
HETATM   37  C   UNL     1     -10.710   8.729  71.842  1.00  0.00    -0.429 A  
ENDBRANCH  21  22
ENDBRANCH  20  21
ENDBRANCH  17  20
ENDBRANCH  13  14
ENDBRANCH  10  13
ENDBRANCH   8   9
TORSDOF 6
ENDMDL
MODEL       38
REMARK 921   NORMALIZED FREE ENERGY PREDICTED BY IDOCK:   -6.43 KCAL/MOL
REMARK 922        TOTAL FREE ENERGY PREDICTED BY IDOCK:   -9.96 KCAL/MOL
REMARK 923 INTER-LIGAND FREE ENERGY PREDICTED BY IDOCK:   -9.48 KCAL/MOL
REMARK 924 INTRA-LIGAND FREE ENERGY PREDICTED BY IDOCK:   -0.48 KCAL/MOL
REMARK 927      BINDING AFFINITY PREDICTED BY RF-SCORE:    0.00 PKD
ROOT
HETATM    1  C   UNL     1      -9.524   3.583  67.174  1.00  0.00    -0.219 C  
HETATM    2  C   UNL     1      -9.643   4.008  68.613  1.00  0.00    -0.190 A  
HETATM    3  C   UNL     1      -9.229   3.074  69.585  1.00  0.00    -0.219 A  
HETATM    4  C   UNL     1      -9.396   3.327  70.941  1.00  0.00    -0.220 A  
HETATM    5  C   UNL     1     -10.007   4.506  71.348  1.00  0.00    -0.259 A  
HETATM    6  C   UNL     1     -10.433   5.462  70.405  1.00  0.00    -0.345 A  
HETATM    7  C   UNL     1     -11.074   6.722  70.925  1.00  0.00    -0.322 C  
HETATM    8  C   UNL     1     -10.200   5.241  69.027  1.00  0.00    -0.199 A  
ENDROOT
BRANCH   8   9
HETATM    9  N   UNL     1     -10.568   6.263  68.108  1.00  0.00    -0.227 N  
HETATM   10  C   UNL     1      -9.649   7.070  67.455  1.00  0.00    -0.135 C  
HETATM   11  H   UNL     1     -11.560   6.410  67.919  1.00  0.00     0.000 HD 
HETATM   12  O   UNL     1      -8.429   7.001  67.593  1.00  0.00    -0.122 OA 
BRANCH  10  13
HETATM   13  C   UNL     1     -10.239   8.217  66.622  1.00  0.00    -0.263 C  
BRANCH  13  14
HETATM   14  N   UNL     1      -9.268   9.255  66.189  1.00  0.00    -0.180 NA 
HETATM   15  C   UNL     1     -10.005  10.358  65.511  1.00  0.00    -0.282 C  
HETATM   16  C   UNL     1     -10.821  11.301  66.440  1.00  0.00    -0.251 C  
HETATM   17  N   UNL     1     -10.084  11.829  67.605  1.00  0.00    -0.191 NA 
HETATM   18  C   UNL     1      -9.366  10.731  68.275  1.00  0.00    -0.161 C  
HETATM   19  C   UNL     1      -8.527   9.845  67.328  1.00  0.00    -0.121 C  
BRANCH  17  20
HETATM   20  C   UNL     1      -9.191  12.943  67.261  1.00  0.00    -0.208 C  
BRANCH  20  21
HETATM   21  C   UNL     1      -8.559  13.581  68.507  1.00  0.00    -0.088 C  
BRANCH  21  22
HETATM   22  C   UNL     1      -8.572  15.119  68.502  1.00  0.00    -0.163 C  
HETATM   23  C   UNL     1      -9.973  15.755  68.296  1.00  0.00    -0.221 C  
HETATM   24  C   UNL     1      -9.920  17.269  68.081  1.00  0.00    -0.303 A  
HETATM   25  C   UNL     1     -10.915  15.344  69.424  1.00  0.00    -0.276 A  
HETATM   26  C   UNL     1     -10.663  15.729  70.752  1.00  0.00    -0.124 A  
HETATM   27  C   UNL     1     -10.908  17.884  67.289  1.00  0.00    -0.188 A  
HETATM   28  C   UNL     1     -10.862  19.255  67.026  1.00  0.00    -0.515 A  
HETATM   29  C   UNL     1     -11.451  15.242  71.795  1.00  0.00    -0.494 A  
HETATM   30  C   UNL     1      -9.834  20.021  67.562  1.00  0.00    -0.416 A  
HETATM   31  C   UNL     1     -12.500  14.377  71.515  1.00  0.00    -0.355 A  
HETATM   32  F   UNL     1     -13.237  13.888  72.519  1.00  0.00    -0.454 F  
HETATM   33  C   UNL     1     -12.786  14.001  70.208  1.00  0.00    -0.165 A  
HETATM   34  F   UNL     1      -9.780  21.333  67.298  1.00  0.00    -0.599 F  
HETATM   35  C   UNL     1      -8.861  19.445  68.364  1.00  0.00    -0.397 A  
HETATM   36  C   UNL     1      -8.906  18.076  68.626  1.00  0.00    -0.272 A  
HETATM   37  C   UNL     1     -12.000  14.487  69.162  1.00  0.00    -0.344 A  
ENDBRANCH  21  22
ENDBRANCH  20  21
ENDBRANCH  17  20
ENDBRANCH  13  14
ENDBRANCH  10  13
ENDBRANCH   8   9
TORSDOF 6
ENDMDL
MODEL       39
REMARK 921   NORMALIZED FREE ENERGY PREDICTED BY IDOCK:   -6.43 KCAL/MOL
REMARK 922        TOTAL FREE ENERGY PREDICTED BY IDOCK:   -9.96 KCAL/MOL
REMARK 923 INTER-LIGAND FREE ENERGY PREDICTED BY IDOCK:   -8.97 KCAL/MOL
REMARK 924 INTRA-LIGAND FREE ENERGY PREDICTED BY IDOCK:   -0.99 KCAL/MOL
REMARK 927      BINDING AFFINITY PREDICTED BY RF-SCORE:    0.00 PKD
ROOT
HETATM    1  C   UNL     1      -7.260  19.003  68.997  1.00  0.00    -0.351 C  
HETATM    2  C   UNL     1      -8.328  18.992  67.936  1.00  0.00    -0.320 A  
HETATM    3  C   UNL     1      -8.920  20.232  67.621  1.00  0.00    -0.393 A  
HETATM    4  C   UNL     1      -9.986  20.314  66.733  1.00  0.00    -0.587 A  
HETATM    5  C   UNL     1     -10.498  19.153  66.168  1.00  0.00    -0.558 A  
HETATM    6  C   UNL     1      -9.933  17.897  66.460  1.00  0.00    -0.357 A  
HETATM    7  C   UNL     1     -10.534  16.686  65.797  1.00  0.00    -0.324 C  
HETATM    8  C   UNL     1      -8.802  17.816  67.307  1.00  0.00    -0.238 A  
ENDROOT
BRANCH   8   9
HETATM    9  N   UNL     1      -8.204  16.541  67.515  1.00  0.00    -0.152 N  
HETATM   10  C   UNL     1      -8.552  15.696  68.558  1.00  0.00    -0.180 C  
HETATM   11  H   UNL     1      -7.482  16.234  66.864  1.00  0.00     0.000 HD 
HETATM   12  O   UNL     1      -9.400  15.944  69.412  1.00  0.00    -0.255 OA 
BRANCH  10  13
HETATM   13  C   UNL     1      -7.691  14.434  68.711  1.00  0.00    -0.139 C  
BRANCH  13  14
HETATM   14  N   UNL     1      -7.661  13.535  67.529  1.00  0.00    -0.170 NA 
HETATM   15  C   UNL     1      -7.102  12.215  67.934  1.00  0.00    -0.101 C  
HETATM   16  C   UNL     1      -8.041  11.310  68.780  1.00  0.00    -0.130 C  
HETATM   17  N   UNL     1      -9.403  11.136  68.237  1.00  0.00    -0.169 NA 
HETATM   18  C   UNL     1      -9.953  12.446  67.847  1.00  0.00    -0.204 C  
HETATM   19  C   UNL     1      -9.011  13.296  66.966  1.00  0.00    -0.228 C  
BRANCH  17  20
HETATM   20  C   UNL     1      -9.461  10.164  67.137  1.00  0.00    -0.158 C  
BRANCH  20  21
HETATM   21  C   UNL     1     -10.702   9.264  67.226  1.00  0.00    -0.244 C  
BRANCH  21  22
HETATM   22  C   UNL     1     -10.392   7.758  67.197  1.00  0.00    -0.389 C  
HETATM   23  C   UNL     1      -9.553   7.245  68.397  1.00  0.00    -0.139 C  
HETATM   24  C   UNL     1      -9.082   5.799  68.227  1.00  0.00    -0.117 A  
HETATM   25  C   UNL     1     -10.300   7.480  69.708  1.00  0.00    -0.221 A  
HETATM   26  C   UNL     1     -11.523   6.837  69.968  1.00  0.00    -0.390 A  
HETATM   27  C   UNL     1      -7.872   5.397  68.825  1.00  0.00    -0.087 A  
HETATM   28  C   UNL     1      -7.384   4.101  68.647  1.00  0.00    -0.055 A  
HETATM   29  C   UNL     1     -12.265   7.155  71.105  1.00  0.00    -0.405 A  
HETATM   30  C   UNL     1      -8.106   3.196  67.879  1.00  0.00    -0.078 A  
HETATM   31  C   UNL     1     -11.785   8.109  71.991  1.00  0.00    -0.332 A  
HETATM   32  F   UNL     1     -12.513   8.434  73.067  1.00  0.00    -0.366 F  
HETATM   33  C   UNL     1     -10.567   8.741  71.771  1.00  0.00    -0.417 A  
HETATM   34  F   UNL     1      -7.631   1.957  67.694  1.00  0.00    -0.055 F  
HETATM   35  C   UNL     1      -9.312   3.559  67.298  1.00  0.00    -0.239 A  
HETATM   36  C   UNL     1      -9.800   4.853  67.475  1.00  0.00    -0.207 A  
HETATM   37  C   UNL     1      -9.821   8.425  70.634  1.00  0.00    -0.208 A  
ENDBRANCH  21  22
ENDBRANCH  20  21
ENDBRANCH  17  20
ENDBRANCH  13  14
ENDBRANCH  10  13
ENDBRANCH   8   9
TORSDOF 6
ENDMDL
MODEL       40
REMARK 921   NORMALIZED FREE ENERGY PREDICTED BY IDOCK:   -6.42 KCAL/MOL
REMARK 922        TOTAL FREE ENERGY PREDICTED BY IDOCK:   -9.95 KCAL/MOL
REMARK 923 INTER-LIGAND FREE ENERGY PREDICTED BY IDOCK:   -8.93 KCAL/MOL
REMARK 924 INTRA-LIGAND FREE ENERGY PREDICTED BY IDOCK:   -1.02 KCAL/MOL
REMARK 927      BINDING AFFINITY PREDICTED BY RF-SCORE:    0.00 PKD
ROOT
HETATM    1  C   UNL     1      -9.332  19.656  66.372  1.00  0.00    -0.463 C  
HETATM    2  C   UNL     1      -8.428  19.182  67.478  1.00  0.00    -0.317 A  
HETATM    3  C   UNL     1      -7.742  20.176  68.205  1.00  0.00    -0.186 A  
HETATM    4  C   UNL     1      -6.806  19.839  69.175  1.00  0.00    -0.373 A  
HETATM    5  C   UNL     1      -6.517  18.501  69.413  1.00  0.00    -0.257 A  
HETATM    6  C   UNL     1      -7.181  17.481  68.705  1.00  0.00    -0.257 A  
HETATM    7  C   UNL     1      -6.823  16.055  69.030  1.00  0.00    -0.159 C  
HETATM    8  C   UNL     1      -8.187  17.818  67.769  1.00  0.00    -0.227 A  
ENDROOT
BRANCH   8   9
HETATM    9  N   UNL     1      -8.898  16.761  67.132  1.00  0.00    -0.196 N  
HETATM   10  C   UNL     1     -10.135  16.306  67.560  1.00  0.00    -0.258 C  
HETATM   11  H   UNL     1      -8.474  16.316  66.318  1.00  0.00     0.000 HD 
HETATM   12  O   UNL     1     -10.753  16.750  68.526  1.00  0.00    -0.326 OA 
BRANCH  10  13
HETATM   13  C   UNL     1     -10.673  15.058  66.845  1.00  0.00    -0.308 C  
BRANCH  13  14
HETATM   14  N   UNL     1      -9.687  13.968  66.636  1.00  0.00    -0.279 NA 
HETATM   15  C   UNL     1      -9.351  13.357  67.953  1.00  0.00    -0.216 C  
HETATM   16  C   UNL     1     -10.445  12.445  68.577  1.00  0.00    -0.228 C  
HETATM   17  N   UNL     1     -11.002  11.419  67.672  1.00  0.00    -0.232 NA 
HETATM   18  C   UNL     1     -11.339  12.033  66.376  1.00  0.00    -0.354 C  
HETATM   19  C   UNL     1     -10.211  12.891  65.763  1.00  0.00    -0.288 C  
BRANCH  17  20
HETATM   20  C   UNL     1     -10.122  10.254  67.517  1.00  0.00    -0.198 C  
BRANCH  20  21
HETATM   21  C   UNL     1     -10.911   8.937  67.471  1.00  0.00    -0.108 C  
BRANCH  21  22
HETATM   22  C   UNL     1     -10.151   7.728  68.043  1.00  0.00    -0.227 C  
HETATM   23  C   UNL     1      -9.676   7.895  69.511  1.00  0.00    -0.173 C  
HETATM   24  C   UNL     1      -8.744   6.772  69.973  1.00  0.00    -0.141 A  
HETATM   25  C   UNL     1     -10.871   8.099  70.438  1.00  0.00    -0.237 A  
HETATM   26  C   UNL     1     -11.837   7.091  70.604  1.00  0.00    -0.377 A  
HETATM   27  C   UNL     1      -7.764   7.051  70.944  1.00  0.00    -0.095 A  
HETATM   28  C   UNL     1      -6.862   6.065  71.351  1.00  0.00    -0.067 A  
HETATM   29  C   UNL     1     -12.993   7.330  71.347  1.00  0.00    -0.420 A  
HETATM   30  C   UNL     1      -6.941   4.794  70.797  1.00  0.00    -0.037 A  
HETATM   31  C   UNL     1     -13.186   8.573  71.933  1.00  0.00    -0.369 A  
HETATM   32  F   UNL     1     -14.310   8.810  72.621  1.00  0.00    -0.491 F  
HETATM   33  C   UNL     1     -12.235   9.579  71.805  1.00  0.00    -0.465 A  
HETATM   34  F   UNL     1      -6.066   3.852  71.174  1.00  0.00    -0.012 F  
HETATM   35  C   UNL     1      -7.910   4.486  69.855  1.00  0.00    -0.060 A  
HETATM   36  C   UNL     1      -8.812   5.470  69.448  1.00  0.00    -0.114 A  
HETATM   37  C   UNL     1     -11.077   9.343  71.063  1.00  0.00    -0.414 A  
ENDBRANCH  21  22
ENDBRANCH  20  21
ENDBRANCH  17  20
ENDBRANCH  13  14
ENDBRANCH  10  13
ENDBRANCH   8   9
TORSDOF 6
ENDMDL
MODEL       41
REMARK 921   NORMALIZED FREE ENERGY PREDICTED BY IDOCK:   -6.41 KCAL/MOL
REMARK 922        TOTAL FREE ENERGY PREDICTED BY IDOCK:   -9.93 KCAL/MOL
REMARK 923 INTER-LIGAND FREE ENERGY PREDICTED BY IDOCK:   -9.00 KCAL/MOL
REMARK 924 INTRA-LIGAND FREE ENERGY PREDICTED BY IDOCK:   -0.93 KCAL/MOL
REMARK 927      BINDING AFFINITY PREDICTED BY RF-SCORE:    0.00 PKD
ROOT
HETATM    1  C   UNL     1      -8.882   2.995  69.884  1.00  0.00    -0.152 C  
HETATM    2  C   UNL     1      -9.599   3.584  71.070  1.00  0.00    -0.243 A  
HETATM    3  C   UNL     1     -10.007   2.683  72.074  1.00  0.00    -0.224 A  
HETATM    4  C   UNL     1     -10.767   3.110  73.156  1.00  0.00    -0.261 A  
HETATM    5  C   UNL     1     -11.157   4.441  73.237  1.00  0.00    -0.368 A  
HETATM    6  C   UNL     1     -10.769   5.369  72.252  1.00  0.00    -0.287 A  
HETATM    7  C   UNL     1     -11.220   6.797  72.417  1.00  0.00    -0.300 C  
HETATM    8  C   UNL     1      -9.935   4.954  71.186  1.00  0.00    -0.208 A  
ENDROOT
BRANCH   8   9
HETATM    9  N   UNL     1      -9.493   5.934  70.254  1.00  0.00    -0.159 N  
HETATM   10  C   UNL     1      -8.262   6.566  70.336  1.00  0.00    -0.125 C  
HETATM   11  H   UNL     1     -10.114   6.185  69.485  1.00  0.00     0.000 HD 
HETATM   12  O   UNL     1      -7.422   6.361  71.210  1.00  0.00    -0.086 OA 
BRANCH  10  13
HETATM   13  C   UNL     1      -8.026   7.704  69.332  1.00  0.00    -0.125 C  
BRANCH  13  14
HETATM   14  N   UNL     1      -7.874   9.057  69.926  1.00  0.00    -0.082 NA 
HETATM   15  C   UNL     1      -7.176   9.941  68.952  1.00  0.00    -0.076 C  
HETATM   16  C   UNL     1      -8.021  10.411  67.735  1.00  0.00    -0.102 C  
HETATM   17  N   UNL     1      -9.345  10.974  68.067  1.00  0.00    -0.158 NA 
HETATM   18  C   UNL     1     -10.033  10.089  69.024  1.00  0.00    -0.196 C  
HETATM   19  C   UNL     1      -9.178   9.683  70.245  1.00  0.00    -0.236 C  
BRANCH  17  20
HETATM   20  C   UNL     1      -9.274  12.359  68.550  1.00  0.00    -0.076 C  
BRANCH  20  21
HETATM   21  C   UNL     1     -10.667  12.978  68.736  1.00  0.00    -0.250 C  
BRANCH  21  22
HETATM   22  C   UNL     1     -10.723  14.492  68.474  1.00  0.00    -0.253 C  
HETATM   23  C   UNL     1     -10.047  14.948  67.154  1.00  0.00    -0.240 C  
HETATM   24  C   UNL     1      -9.930  16.469  67.032  1.00  0.00    -0.268 A  
HETATM   25  C   UNL     1     -10.734  14.303  65.953  1.00  0.00    -0.304 A  
HETATM   26  C   UNL     1     -12.077  14.585  65.652  1.00  0.00    -0.295 A  
HETATM   27  C   UNL     1      -8.859  17.019  66.302  1.00  0.00    -0.289 A  
HETATM   28  C   UNL     1      -8.691  18.403  66.214  1.00  0.00    -0.209 A  
HETATM   29  C   UNL     1     -12.737  13.894  64.636  1.00  0.00    -0.179 A  
HETATM   30  C   UNL     1      -9.597  19.244  66.846  1.00  0.00    -0.331 A  
HETATM   31  C   UNL     1     -12.056  12.927  63.911  1.00  0.00    -0.480 A  
HETATM   32  F   UNL     1     -12.700  12.244  62.956  1.00  0.00    -0.566 F  
HETATM   33  C   UNL     1     -10.721  12.646  64.172  1.00  0.00    -0.435 A  
HETATM   34  F   UNL     1      -9.428  20.571  66.775  1.00  0.00    -0.477 F  
HETATM   35  C   UNL     1     -10.674  18.730  67.552  1.00  0.00    -0.474 A  
HETATM   36  C   UNL     1     -10.843  17.349  67.640  1.00  0.00    -0.233 A  
HETATM   37  C   UNL     1     -10.056  13.336  65.187  1.00  0.00    -0.249 A  
ENDBRANCH  21  22
ENDBRANCH  20  21
ENDBRANCH  17  20
ENDBRANCH  13  14
ENDBRANCH  10  13
ENDBRANCH   8   9
TORSDOF 6
ENDMDL
MODEL       42
REMARK 921   NORMALIZED FREE ENERGY PREDICTED BY IDOCK:   -6.34 KCAL/MOL
REMARK 922        TOTAL FREE ENERGY PREDICTED BY IDOCK:   -9.83 KCAL/MOL
REMARK 923 INTER-LIGAND FREE ENERGY PREDICTED BY IDOCK:   -9.22 KCAL/MOL
REMARK 924 INTRA-LIGAND FREE ENERGY PREDICTED BY IDOCK:   -0.61 KCAL/MOL
REMARK 927      BINDING AFFINITY PREDICTED BY RF-SCORE:    0.00 PKD
ROOT
HETATM    1  C   UNL     1     -10.423   9.534  69.055  1.00  0.00    -0.229 C  
HETATM    2  C   UNL     1     -10.566   8.035  69.067  1.00  0.00    -0.169 A  
HETATM    3  C   UNL     1     -10.840   7.436  70.314  1.00  0.00    -0.260 A  
HETATM    4  C   UNL     1     -10.886   6.054  70.451  1.00  0.00    -0.386 A  
HETATM    5  C   UNL     1     -10.629   5.247  69.350  1.00  0.00    -0.215 A  
HETATM    6  C   UNL     1     -10.351   5.810  68.090  1.00  0.00    -0.264 A  
HETATM    7  C   UNL     1     -10.097   4.869  66.942  1.00  0.00    -0.257 C  
HETATM    8  C   UNL     1     -10.374   7.216  67.929  1.00  0.00    -0.198 A  
ENDROOT
BRANCH   8   9
HETATM    9  N   UNL     1     -10.171   7.750  66.626  1.00  0.00    -0.444 N  
HETATM   10  C   UNL     1      -8.938   8.180  66.160  1.00  0.00    -0.178 C  
HETATM   11  H   UNL     1     -10.974   7.821  66.001  1.00  0.00     0.000 HD 
HETATM   12  O   UNL     1      -7.893   8.154  66.807  1.00  0.00    -0.093 OA 
BRANCH  10  13
HETATM   13  C   UNL     1      -8.944   8.868  64.788  1.00  0.00    -0.036 C  
BRANCH  13  14
HETATM   14  N   UNL     1      -8.579  10.308  64.794  1.00  0.00    -0.176 NA 
HETATM   15  C   UNL     1      -9.003  10.924  63.506  1.00  0.00    -0.150 C  
HETATM   16  C   UNL     1     -10.530  11.163  63.338  1.00  0.00    -0.317 C  
HETATM   17  N   UNL     1     -11.188  11.851  64.467  1.00  0.00    -0.321 NA 
HETATM   18  C   UNL     1     -10.770  11.230  65.736  1.00  0.00    -0.223 C  
HETATM   19  C   UNL     1      -9.243  11.054  65.888  1.00  0.00    -0.199 C  
BRANCH  17  20
HETATM   20  C   UNL     1     -10.963  13.303  64.463  1.00  0.00    -0.382 C  
BRANCH  20  21
HETATM   21  C   UNL     1     -10.685  13.848  65.872  1.00  0.00    -0.286 C  
BRANCH  21  22
HETATM   22  C   UNL     1      -9.691  15.021  65.908  1.00  0.00    -0.376 C  
HETATM   23  C   UNL     1     -10.218  16.297  66.615  1.00  0.00    -0.287 C  
HETATM   24  C   UNL     1      -9.295  17.505  66.444  1.00  0.00    -0.265 A  
HETATM   25  C   UNL     1     -10.547  15.999  68.076  1.00  0.00    -0.295 A  
HETATM   26  C   UNL     1      -9.541  15.614  68.979  1.00  0.00    -0.243 A  
HETATM   27  C   UNL     1      -9.852  18.798  66.435  1.00  0.00    -0.403 A  
HETATM   28  C   UNL     1      -9.047  19.921  66.228  1.00  0.00    -0.436 A  
HETATM   29  C   UNL     1      -9.865  15.216  70.276  1.00  0.00     0.209 A  
HETATM   30  C   UNL     1      -7.680  19.758  66.038  1.00  0.00    -0.332 A  
HETATM   31  C   UNL     1     -11.193  15.209  70.678  1.00  0.00    -0.287 A  
HETATM   32  F   UNL     1     -11.505  14.798  71.914  1.00  0.00    -0.409 F  
HETATM   33  C   UNL     1     -12.205  15.608  69.813  1.00  0.00    -0.293 A  
HETATM   34  F   UNL     1      -6.910  20.833  65.822  1.00  0.00    -0.263 F  
HETATM   35  C   UNL     1      -7.103  18.498  66.063  1.00  0.00    -0.306 A  
HETATM   36  C   UNL     1      -7.906  17.377  66.271  1.00  0.00    -0.330 A  
HETATM   37  C   UNL     1     -11.884  16.008  68.515  1.00  0.00    -0.126 A  
ENDBRANCH  21  22
ENDBRANCH  20  21
ENDBRANCH  17  20
ENDBRANCH  13  14
ENDBRANCH  10  13
ENDBRANCH   8   9
TORSDOF 6
ENDMDL
MODEL       43
REMARK 921   NORMALIZED FREE ENERGY PREDICTED BY IDOCK:   -6.33 KCAL/MOL
REMARK 922        TOTAL FREE ENERGY PREDICTED BY IDOCK:   -9.83 KCAL/MOL
REMARK 923 INTER-LIGAND FREE ENERGY PREDICTED BY IDOCK:   -8.97 KCAL/MOL
REMARK 924 INTRA-LIGAND FREE ENERGY PREDICTED BY IDOCK:   -0.86 KCAL/MOL
REMARK 927      BINDING AFFINITY PREDICTED BY RF-SCORE:    0.00 PKD
ROOT
HETATM    1  C   UNL     1     -10.325  19.737  65.980  1.00  0.00    -0.612 C  
HETATM    2  C   UNL     1      -8.996  19.401  66.602  1.00  0.00    -0.385 A  
HETATM    3  C   UNL     1      -8.244  20.479  67.109  1.00  0.00    -0.353 A  
HETATM    4  C   UNL     1      -6.961  20.288  67.608  1.00  0.00    -0.317 A  
HETATM    5  C   UNL     1      -6.396  19.019  67.579  1.00  0.00    -0.199 A  
HETATM    6  C   UNL     1      -7.118  17.918  67.079  1.00  0.00    -0.209 A  
HETATM    7  C   UNL     1      -6.443  16.572  67.095  1.00  0.00    -0.229 C  
HETATM    8  C   UNL     1      -8.451  18.095  66.638  1.00  0.00    -0.264 A  
ENDROOT
BRANCH   8   9
HETATM    9  N   UNL     1      -9.180  16.948  66.216  1.00  0.00    -0.275 N  
HETATM   10  C   UNL     1     -10.144  16.326  66.996  1.00  0.00    -0.270 C  
HETATM   11  H   UNL     1      -8.984  16.562  65.293  1.00  0.00     0.000 HD 
HETATM   12  O   UNL     1     -10.473  16.684  68.125  1.00  0.00    -0.290 OA 
BRANCH  10  13
HETATM   13  C   UNL     1     -10.711  15.013  66.438  1.00  0.00    -0.322 C  
BRANCH  13  14
HETATM   14  N   UNL     1     -11.188  14.041  67.454  1.00  0.00    -0.300 NA 
HETATM   15  C   UNL     1     -12.139  13.092  66.812  1.00  0.00    -0.300 C  
HETATM   16  C   UNL     1     -11.505  12.024  65.876  1.00  0.00    -0.333 C  
HETATM   17  N   UNL     1     -10.364  11.283  66.450  1.00  0.00    -0.237 NA 
HETATM   18  C   UNL     1      -9.423  12.229  67.075  1.00  0.00    -0.204 C  
HETATM   19  C   UNL     1     -10.083  13.243  68.036  1.00  0.00    -0.235 C  
BRANCH  17  20
HETATM   20  C   UNL     1     -10.777  10.222  67.378  1.00  0.00    -0.281 C  
BRANCH  20  21
HETATM   21  C   UNL     1      -9.574   9.508  68.011  1.00  0.00    -0.155 C  
BRANCH  21  22
HETATM   22  C   UNL     1      -9.580   7.981  67.827  1.00  0.00    -0.179 C  
HETATM   23  C   UNL     1      -9.162   7.174  69.084  1.00  0.00    -0.139 C  
HETATM   24  C   UNL     1      -8.969   5.682  68.805  1.00  0.00    -0.117 A  
HETATM   25  C   UNL     1     -10.125   7.447  70.237  1.00  0.00    -0.197 A  
HETATM   26  C   UNL     1     -11.479   7.083  70.149  1.00  0.00    -0.302 A  
HETATM   27  C   UNL     1      -8.037   4.956  69.570  1.00  0.00    -0.074 A  
HETATM   28  C   UNL     1      -7.797   3.605  69.308  1.00  0.00    -0.053 A  
HETATM   29  C   UNL     1     -12.381   7.452  71.146  1.00  0.00    -0.349 A  
HETATM   30  C   UNL     1      -8.493   2.971  68.287  1.00  0.00    -0.081 A  
HETATM   31  C   UNL     1     -11.932   8.179  72.240  1.00  0.00    -0.377 A  
HETATM   32  F   UNL     1     -12.805   8.557  73.182  1.00  0.00    -0.260 F  
HETATM   33  C   UNL     1     -10.594   8.531  72.364  1.00  0.00    -0.368 A  
HETATM   34  F   UNL     1      -8.252   1.680  68.024  1.00  0.00    -0.056 F  
HETATM   35  C   UNL     1      -9.433   3.657  67.533  1.00  0.00    -0.237 A  
HETATM   36  C   UNL     1      -9.674   5.005  67.794  1.00  0.00    -0.192 A  
HETATM   37  C   UNL     1      -9.688   8.162  71.368  1.00  0.00    -0.219 A  
ENDBRANCH  21  22
ENDBRANCH  20  21
ENDBRANCH  17  20
ENDBRANCH  13  14
ENDBRANCH  10  13
ENDBRANCH   8   9
TORSDOF 6
ENDMDL
MODEL       44
REMARK 921   NORMALIZED FREE ENERGY PREDICTED BY IDOCK:   -6.32 KCAL/MOL
REMARK 922        TOTAL FREE ENERGY PREDICTED BY IDOCK:   -9.80 KCAL/MOL
REMARK 923 INTER-LIGAND FREE ENERGY PREDICTED BY IDOCK:   -9.15 KCAL/MOL
REMARK 924 INTRA-LIGAND FREE ENERGY PREDICTED BY IDOCK:   -0.65 KCAL/MOL
REMARK 927      BINDING AFFINITY PREDICTED BY RF-SCORE:    0.00 PKD
ROOT
HETATM    1  C   UNL     1      -7.364   8.926  71.517  1.00  0.00    -0.081 C  
HETATM    2  C   UNL     1      -8.542   8.240  72.157  1.00  0.00    -0.249 A  
HETATM    3  C   UNL     1      -8.396   7.857  73.506  1.00  0.00    -0.271 A  
HETATM    4  C   UNL     1      -9.382   7.126  74.156  1.00  0.00    -0.282 A  
HETATM    5  C   UNL     1     -10.520   6.739  73.458  1.00  0.00    -0.356 A  
HETATM    6  C   UNL     1     -10.699   7.103  72.110  1.00  0.00    -0.245 A  
HETATM    7  C   UNL     1     -11.965   6.657  71.427  1.00  0.00    -0.405 C  
HETATM    8  C   UNL     1      -9.731   7.908  71.465  1.00  0.00    -0.161 A  
ENDROOT
BRANCH   8   9
HETATM    9  N   UNL     1      -9.983   8.327  70.128  1.00  0.00    -0.185 N  
HETATM   10  C   UNL     1      -9.454   7.691  69.016  1.00  0.00    -0.150 C  
HETATM   11  H   UNL     1     -10.583   9.138  69.981  1.00  0.00     0.000 HD 
HETATM   12  O   UNL     1      -8.715   6.709  69.052  1.00  0.00    -0.129 OA 
BRANCH  10  13
HETATM   13  C   UNL     1      -9.709   8.379  67.668  1.00  0.00    -0.160 C  
BRANCH  13  14
HETATM   14  N   UNL     1      -8.603   9.234  67.168  1.00  0.00    -0.127 NA 
HETATM   15  C   UNL     1      -9.115  10.100  66.069  1.00  0.00    -0.154 C  
HETATM   16  C   UNL     1     -10.027  11.282  66.504  1.00  0.00    -0.212 C  
HETATM   17  N   UNL     1      -9.494  12.118  67.598  1.00  0.00    -0.182 NA 
HETATM   18  C   UNL     1      -8.999  11.255  68.685  1.00  0.00    -0.147 C  
HETATM   19  C   UNL     1      -8.056  10.123  68.221  1.00  0.00    -0.102 C  
BRANCH  17  20
HETATM   20  C   UNL     1      -8.475  13.074  67.145  1.00  0.00    -0.174 C  
BRANCH  20  21
HETATM   21  C   UNL     1      -8.827  14.519  67.529  1.00  0.00    -0.193 C  
BRANCH  21  22
HETATM   22  C   UNL     1     -10.098  14.650  68.385  1.00  0.00    -0.237 C  
HETATM   23  C   UNL     1     -10.048  15.775  69.453  1.00  0.00    -0.268 C  
HETATM   24  C   UNL     1     -11.232  15.737  70.423  1.00  0.00    -0.383 A  
HETATM   25  C   UNL     1      -9.866  17.135  68.786  1.00  0.00    -0.293 A  
HETATM   26  C   UNL     1     -10.848  17.656  67.926  1.00  0.00    -0.245 A  
HETATM   27  C   UNL     1     -11.054  16.201  71.740  1.00  0.00     0.216 A  
HETATM   28  C   UNL     1     -12.097  16.132  72.667  1.00  0.00    -0.652 A  
HETATM   29  C   UNL     1     -10.619  18.835  67.217  1.00  0.00    -0.504 A  
HETATM   30  C   UNL     1     -13.324  15.609  72.281  1.00  0.00    -0.478 A  
HETATM   31  C   UNL     1      -9.412  19.503  67.371  1.00  0.00    -0.321 A  
HETATM   32  F   UNL     1      -9.183  20.619  66.667  1.00  0.00    -0.386 F  
HETATM   33  C   UNL     1      -8.434  19.024  68.234  1.00  0.00    -0.366 A  
HETATM   34  F   UNL     1     -14.319  15.528  73.174  1.00  0.00    -0.329 F  
HETATM   35  C   UNL     1     -13.532  15.165  70.984  1.00  0.00    -0.493 A  
HETATM   36  C   UNL     1     -12.493  15.234  70.057  1.00  0.00    -0.330 A  
HETATM   37  C   UNL     1      -8.660  17.845  68.946  1.00  0.00    -0.122 A  
ENDBRANCH  21  22
ENDBRANCH  20  21
ENDBRANCH  17  20
ENDBRANCH  13  14
ENDBRANCH  10  13
ENDBRANCH   8   9
TORSDOF 6
ENDMDL
MODEL       45
REMARK 921   NORMALIZED FREE ENERGY PREDICTED BY IDOCK:   -6.22 KCAL/MOL
REMARK 922        TOTAL FREE ENERGY PREDICTED BY IDOCK:   -9.68 KCAL/MOL
REMARK 923 INTER-LIGAND FREE ENERGY PREDICTED BY IDOCK:   -8.72 KCAL/MOL
REMARK 924 INTRA-LIGAND FREE ENERGY PREDICTED BY IDOCK:   -0.96 KCAL/MOL
REMARK 927      BINDING AFFINITY PREDICTED BY RF-SCORE:    0.00 PKD
ROOT
HETATM    1  C   UNL     1      -6.642   3.071  70.994  1.00  0.00    -0.031 C  
HETATM    2  C   UNL     1      -6.571   3.753  69.653  1.00  0.00    -0.033 A  
HETATM    3  C   UNL     1      -5.739   3.158  68.683  1.00  0.00    -0.022 A  
HETATM    4  C   UNL     1      -5.522   3.765  67.453  1.00  0.00    -0.020 A  
HETATM    5  C   UNL     1      -6.111   4.994  67.182  1.00  0.00    -0.031 A  
HETATM    6  C   UNL     1      -6.947   5.619  68.127  1.00  0.00    -0.065 A  
HETATM    7  C   UNL     1      -7.559   6.944  67.754  1.00  0.00    -0.107 C  
HETATM    8  C   UNL     1      -7.227   4.970  69.353  1.00  0.00    -0.056 A  
ENDROOT
BRANCH   8   9
HETATM    9  N   UNL     1      -8.142   5.590  70.251  1.00  0.00    -0.100 N  
HETATM   10  C   UNL     1      -9.473   5.217  70.364  1.00  0.00    -0.166 C  
HETATM   11  H   UNL     1      -7.801   6.348  70.842  1.00  0.00     0.000 HD 
HETATM   12  O   UNL     1     -10.012   4.326  69.711  1.00  0.00    -0.222 OA 
BRANCH  10  13
HETATM   13  C   UNL     1     -10.340   6.102  71.271  1.00  0.00    -0.217 C  
BRANCH  13  14
HETATM   14  N   UNL     1     -11.476   6.783  70.599  1.00  0.00    -0.329 NA 
HETATM   15  C   UNL     1     -12.198   7.622  71.596  1.00  0.00    -0.317 C  
HETATM   16  C   UNL     1     -11.480   8.931  72.029  1.00  0.00    -0.361 C  
HETATM   17  N   UNL     1     -10.987   9.775  70.922  1.00  0.00    -0.326 NA 
HETATM   18  C   UNL     1     -10.267   8.940  69.946  1.00  0.00    -0.200 C  
HETATM   19  C   UNL     1     -11.032   7.674  69.501  1.00  0.00    -0.097 C  
BRANCH  17  20
HETATM   20  C   UNL     1     -12.049  10.569  70.290  1.00  0.00    -0.318 C  
BRANCH  20  21
HETATM   21  C   UNL     1     -11.605  11.161  68.944  1.00  0.00    -0.385 C  
BRANCH  21  22
HETATM   22  C   UNL     1     -11.428  12.688  68.955  1.00  0.00    -0.354 C  
HETATM   23  C   UNL     1     -10.468  13.239  67.868  1.00  0.00    -0.244 C  
HETATM   24  C   UNL     1     -10.149  14.725  68.044  1.00  0.00    -0.218 A  
HETATM   25  C   UNL     1     -10.991  12.901  66.474  1.00  0.00    -0.300 A  
HETATM   26  C   UNL     1     -12.211  13.425  66.014  1.00  0.00    -0.491 A  
HETATM   27  C   UNL     1      -8.902  15.215  67.611  1.00  0.00    -0.178 A  
HETATM   28  C   UNL     1      -8.555  16.554  67.804  1.00  0.00    -0.180 A  
HETATM   29  C   UNL     1     -12.748  13.010  64.796  1.00  0.00    -0.409 A  
HETATM   30  C   UNL     1      -9.455  17.413  68.421  1.00  0.00    -0.293 A  
HETATM   31  C   UNL     1     -12.066  12.077  64.029  1.00  0.00    -0.406 A  
HETATM   32  F   UNL     1     -12.597  11.658  62.874  1.00  0.00    -0.584 F  
HETATM   33  C   UNL     1     -10.846  11.561  64.449  1.00  0.00    -0.405 A  
HETATM   34  F   UNL     1      -9.117  18.694  68.620  1.00  0.00    -0.324 F  
HETATM   35  C   UNL     1     -10.699  16.962  68.837  1.00  0.00    -0.321 A  
HETATM   36  C   UNL     1     -11.046  15.625  68.644  1.00  0.00    -0.317 A  
HETATM   37  C   UNL     1     -10.304  11.975  65.667  1.00  0.00    -0.288 A  
ENDBRANCH  21  22
ENDBRANCH  20  21
ENDBRANCH  17  20
ENDBRANCH  13  14
ENDBRANCH  10  13
ENDBRANCH   8   9
TORSDOF 6
ENDMDL
MODEL       46
REMARK 921   NORMALIZED FREE ENERGY PREDICTED BY IDOCK:   -6.21 KCAL/MOL
REMARK 922        TOTAL FREE ENERGY PREDICTED BY IDOCK:   -9.66 KCAL/MOL
REMARK 923 INTER-LIGAND FREE ENERGY PREDICTED BY IDOCK:   -8.25 KCAL/MOL
REMARK 924 INTRA-LIGAND FREE ENERGY PREDICTED BY IDOCK:   -1.41 KCAL/MOL
REMARK 927      BINDING AFFINITY PREDICTED BY RF-SCORE:    0.00 PKD
ROOT
HETATM    1  C   UNL     1     -10.586  19.928  65.362  1.00  0.00    -0.187 C  
HETATM    2  C   UNL     1     -10.260  19.473  66.760  1.00  0.00    -0.543 A  
HETATM    3  C   UNL     1      -9.653  20.421  67.609  1.00  0.00    -0.517 A  
HETATM    4  C   UNL     1      -9.217  20.071  68.881  1.00  0.00    -0.009 A  
HETATM    5  C   UNL     1      -9.355  18.758  69.316  1.00  0.00     0.011 A  
HETATM    6  C   UNL     1      -9.956  17.785  68.495  1.00  0.00    -0.370 A  
HETATM    7  C   UNL     1     -10.082  16.387  69.042  1.00  0.00    -0.262 C  
HETATM    8  C   UNL     1     -10.466  18.153  67.227  1.00  0.00    -0.393 A  
ENDROOT
BRANCH   8   9
HETATM    9  N   UNL     1     -11.142  17.164  66.458  1.00  0.00     0.238 N  
HETATM   10  C   UNL     1     -10.500  16.324  65.561  1.00  0.00    -0.362 C  
HETATM   11  H   UNL     1     -12.151  17.068  66.572  1.00  0.00     0.000 HD 
HETATM   12  O   UNL     1      -9.294  16.336  65.325  1.00  0.00    -0.249 OA 
BRANCH  10  13
HETATM   13  C   UNL     1     -11.414  15.430  64.711  1.00  0.00    -0.336 C  
BRANCH  13  14
HETATM   14  N   UNL     1     -11.957  14.233  65.401  1.00  0.00    -0.370 NA 
HETATM   15  C   UNL     1     -12.471  13.275  64.383  1.00  0.00    -0.290 C  
HETATM   16  C   UNL     1     -11.393  12.499  63.574  1.00  0.00    -0.486 C  
HETATM   17  N   UNL     1     -10.340  11.856  64.385  1.00  0.00    -0.281 NA 
HETATM   18  C   UNL     1      -9.830  12.812  65.383  1.00  0.00    -0.128 C  
HETATM   19  C   UNL     1     -10.928  13.527  66.201  1.00  0.00    -0.284 C  
BRANCH  17  20
HETATM   20  C   UNL     1     -10.779  10.598  65.001  1.00  0.00    -0.010 C  
BRANCH  20  21
HETATM   21  C   UNL     1      -9.674   9.955  65.852  1.00  0.00    -0.326 C  
BRANCH  21  22
HETATM   22  C   UNL     1     -10.034   9.802  67.339  1.00  0.00    -0.239 C  
HETATM   23  C   UNL     1      -8.816   9.724  68.297  1.00  0.00    -0.119 C  
HETATM   24  C   UNL     1      -9.201   9.357  69.732  1.00  0.00    -0.209 A  
HETATM   25  C   UNL     1      -7.986  11.003  68.209  1.00  0.00    -0.124 A  
HETATM   26  C   UNL     1      -8.526  12.241  68.596  1.00  0.00     0.007 A  
HETATM   27  C   UNL     1      -8.282   8.648  70.529  1.00  0.00    -0.127 A  
HETATM   28  C   UNL     1      -8.619   8.250  71.825  1.00  0.00    -0.213 A  
HETATM   29  C   UNL     1      -7.813  13.422  68.391  1.00  0.00    -0.138 A  
HETATM   30  C   UNL     1      -9.872   8.567  72.334  1.00  0.00    -0.288 A  
HETATM   31  C   UNL     1      -6.555  13.370  67.806  1.00  0.00    -0.164 A  
HETATM   32  F   UNL     1      -5.885  14.507  67.583  1.00  0.00    -0.142 F  
HETATM   33  C   UNL     1      -5.989  12.156  67.437  1.00  0.00    -0.139 A  
HETATM   34  F   UNL     1     -10.202   8.171  73.571  1.00  0.00    -0.342 F  
HETATM   35  C   UNL     1     -10.787   9.283  71.579  1.00  0.00    -0.442 A  
HETATM   36  C   UNL     1     -10.452   9.682  70.285  1.00  0.00    -0.338 A  
HETATM   37  C   UNL     1      -6.699  10.972  67.642  1.00  0.00    -0.073 A  
ENDBRANCH  21  22
ENDBRANCH  20  21
ENDBRANCH  17  20
ENDBRANCH  13  14
ENDBRANCH  10  13
ENDBRANCH   8   9
TORSDOF 6
ENDMDL
MODEL       47
REMARK 921   NORMALIZED FREE ENERGY PREDICTED BY IDOCK:   -6.19 KCAL/MOL
REMARK 922        TOTAL FREE ENERGY PREDICTED BY IDOCK:   -9.63 KCAL/MOL
REMARK 923 INTER-LIGAND FREE ENERGY PREDICTED BY IDOCK:   -9.35 KCAL/MOL
REMARK 924 INTRA-LIGAND FREE ENERGY PREDICTED BY IDOCK:   -0.28 KCAL/MOL
REMARK 927      BINDING AFFINITY PREDICTED BY RF-SCORE:    0.00 PKD
ROOT
HETATM    1  C   UNL     1     -11.152  17.040  70.055  1.00  0.00     0.408 C  
HETATM    2  C   UNL     1     -11.825  16.067  70.987  1.00  0.00    -0.435 A  
HETATM    3  C   UNL     1     -11.878  16.428  72.348  1.00  0.00    -0.548 A  
HETATM    4  C   UNL     1     -12.384  15.554  73.303  1.00  0.00    -0.599 A  
HETATM    5  C   UNL     1     -12.817  14.292  72.917  1.00  0.00    -0.482 A  
HETATM    6  C   UNL     1     -12.778  13.897  71.566  1.00  0.00    -0.440 A  
HETATM    7  C   UNL     1     -13.278  12.518  71.224  1.00  0.00    -0.098 C  
HETATM    8  C   UNL     1     -12.332  14.809  70.581  1.00  0.00    -0.337 A  
ENDROOT
BRANCH   8   9
HETATM    9  N   UNL     1     -12.383  14.408  69.216  1.00  0.00    -0.543 N  
HETATM   10  C   UNL     1     -11.258  14.095  68.469  1.00  0.00    -0.260 C  
HETATM   11  H   UNL     1     -13.295  14.347  68.764  1.00  0.00     0.000 HD 
HETATM   12  O   UNL     1     -10.103  14.130  68.888  1.00  0.00    -0.220 OA 
BRANCH  10  13
HETATM   13  C   UNL     1     -11.498  13.835  66.975  1.00  0.00    -0.346 C  
BRANCH  13  14
HETATM   14  N   UNL     1     -12.009  12.482  66.637  1.00  0.00    -0.574 NA 
HETATM   15  C   UNL     1     -11.702  12.189  65.209  1.00  0.00    -0.308 C  
HETATM   16  C   UNL     1     -10.216  11.867  64.886  1.00  0.00    -0.271 C  
HETATM   17  N   UNL     1      -9.588  10.852  65.755  1.00  0.00    -0.205 NA 
HETATM   18  C   UNL     1      -9.888  11.155  67.166  1.00  0.00    -0.187 C  
HETATM   19  C   UNL     1     -11.381  11.420  67.457  1.00  0.00    -0.292 C  
BRANCH  17  20
HETATM   20  C   UNL     1      -9.962   9.478  65.394  1.00  0.00    -0.065 C  
BRANCH  20  21
HETATM   21  C   UNL     1      -8.992   8.443  65.983  1.00  0.00    -0.228 C  
BRANCH  21  22
HETATM   22  C   UNL     1      -9.125   8.248  67.502  1.00  0.00    -0.148 C  
HETATM   23  C   UNL     1     -10.123   7.139  67.929  1.00  0.00    -0.211 C  
HETATM   24  C   UNL     1     -10.392   7.119  69.435  1.00  0.00    -0.206 A  
HETATM   25  C   UNL     1      -9.679   5.784  67.383  1.00  0.00    -0.133 A  
HETATM   26  C   UNL     1      -8.470   5.200  67.796  1.00  0.00    -0.104 A  
HETATM   27  C   UNL     1     -11.645   6.678  69.902  1.00  0.00    -0.393 A  
HETATM   28  C   UNL     1     -11.945   6.696  71.266  1.00  0.00    -0.409 A  
HETATM   29  C   UNL     1      -8.005   4.028  67.198  1.00  0.00    -0.095 A  
HETATM   30  C   UNL     1     -10.992   7.145  72.172  1.00  0.00    -0.241 A  
HETATM   31  C   UNL     1      -8.751   3.432  66.191  1.00  0.00    -0.126 A  
HETATM   32  F   UNL     1      -8.289   2.324  65.598  1.00  0.00    -0.081 F  
HETATM   33  C   UNL     1      -9.962   3.975  65.781  1.00  0.00    -0.153 A  
HETATM   34  F   UNL     1     -11.284   7.178  73.478  1.00  0.00    -0.311 F  
HETATM   35  C   UNL     1      -9.742   7.563  71.741  1.00  0.00    -0.187 A  
HETATM   36  C   UNL     1      -9.441   7.545  70.379  1.00  0.00    -0.161 A  
HETATM   37  C   UNL     1     -10.431   5.146  66.378  1.00  0.00    -0.356 A  
ENDBRANCH  21  22
ENDBRANCH  20  21
ENDBRANCH  17  20
ENDBRANCH  13  14
ENDBRANCH  10  13
ENDBRANCH   8   9
TORSDOF 6
ENDMDL
MODEL       48
REMARK 921   NORMALIZED FREE ENERGY PREDICTED BY IDOCK:   -6.18 KCAL/MOL
REMARK 922        TOTAL FREE ENERGY PREDICTED BY IDOCK:   -9.62 KCAL/MOL
REMARK 923 INTER-LIGAND FREE ENERGY PREDICTED BY IDOCK:   -8.41 KCAL/MOL
REMARK 924 INTRA-LIGAND FREE ENERGY PREDICTED BY IDOCK:   -1.21 KCAL/MOL
REMARK 927      BINDING AFFINITY PREDICTED BY RF-SCORE:    0.00 PKD
ROOT
HETATM    1  C   UNL     1     -10.949   7.166  71.729  1.00  0.00    -0.258 C  
HETATM    2  C   UNL     1     -10.746   5.711  72.061  1.00  0.00    -0.291 A  
HETATM    3  C   UNL     1     -11.571   5.170  73.068  1.00  0.00    -0.301 A  
HETATM    4  C   UNL     1     -11.393   3.869  73.521  1.00  0.00    -0.261 A  
HETATM    5  C   UNL     1     -10.366   3.095  72.995  1.00  0.00    -0.246 A  
HETATM    6  C   UNL     1      -9.522   3.602  71.989  1.00  0.00    -0.199 A  
HETATM    7  C   UNL     1      -8.440   2.697  71.460  1.00  0.00    -0.089 C  
HETATM    8  C   UNL     1      -9.745   4.901  71.474  1.00  0.00    -0.172 A  
ENDROOT
BRANCH   8   9
HETATM    9  N   UNL     1      -8.927   5.351  70.399  1.00  0.00    -0.131 N  
HETATM   10  C   UNL     1      -9.335   5.347  69.074  1.00  0.00    -0.127 C  
HETATM   11  H   UNL     1      -7.991   5.695  70.616  1.00  0.00     0.000 HD 
HETATM   12  O   UNL     1     -10.431   4.957  68.677  1.00  0.00    -0.043 OA 
BRANCH  10  13
HETATM   13  C   UNL     1      -8.262   5.722  68.043  1.00  0.00    -0.104 C  
BRANCH  13  14
HETATM   14  N   UNL     1      -8.517   6.973  67.284  1.00  0.00    -0.121 NA 
HETATM   15  C   UNL     1      -9.237   7.937  68.162  1.00  0.00    -0.136 C  
HETATM   16  C   UNL     1      -8.384   8.613  69.272  1.00  0.00    -0.118 C  
HETATM   17  N   UNL     1      -7.109   9.202  68.815  1.00  0.00    -0.072 NA 
HETATM   18  C   UNL     1      -6.399   8.240  67.955  1.00  0.00    -0.056 C  
HETATM   19  C   UNL     1      -7.265   7.626  66.833  1.00  0.00    -0.088 C  
BRANCH  17  20
HETATM   20  C   UNL     1      -7.283  10.505  68.158  1.00  0.00    -0.087 C  
BRANCH  20  21
HETATM   21  C   UNL     1      -8.257  11.412  68.924  1.00  0.00    -0.054 C  
BRANCH  21  22
HETATM   22  C   UNL     1      -8.987  12.439  68.042  1.00  0.00    -0.194 C  
HETATM   23  C   UNL     1     -10.425  12.031  67.626  1.00  0.00    -0.226 C  
HETATM   24  C   UNL     1     -11.036  12.965  66.580  1.00  0.00    -0.318 A  
HETATM   25  C   UNL     1     -11.307  11.856  68.860  1.00  0.00    -0.335 A  
HETATM   26  C   UNL     1     -11.593  12.943  69.703  1.00  0.00    -0.318 A  
HETATM   27  C   UNL     1     -11.973  12.450  65.664  1.00  0.00    -0.449 A  
HETATM   28  C   UNL     1     -12.511  13.261  64.662  1.00  0.00    -0.408 A  
HETATM   29  C   UNL     1     -12.287  12.752  70.897  1.00  0.00    -0.356 A  
HETATM   30  C   UNL     1     -12.125  14.592  64.576  1.00  0.00    -0.475 A  
HETATM   31  C   UNL     1     -12.706  11.477  71.250  1.00  0.00    -0.364 A  
HETATM   32  F   UNL     1     -13.347  11.291  72.410  1.00  0.00    -0.565 F  
HETATM   33  C   UNL     1     -12.458  10.389  70.422  1.00  0.00    -0.348 A  
HETATM   34  F   UNL     1     -12.629  15.366  63.606  1.00  0.00    -0.201 F  
HETATM   35  C   UNL     1     -11.222  15.131  65.479  1.00  0.00    -0.320 A  
HETATM   36  C   UNL     1     -10.683  14.323  66.481  1.00  0.00    -0.297 A  
HETATM   37  C   UNL     1     -11.765  10.576  69.225  1.00  0.00    -0.281 A  
ENDBRANCH  21  22
ENDBRANCH  20  21
ENDBRANCH  17  20
ENDBRANCH  13  14
ENDBRANCH  10  13
ENDBRANCH   8   9
TORSDOF 6
ENDMDL
MODEL       49
REMARK 921   NORMALIZED FREE ENERGY PREDICTED BY IDOCK:   -6.15 KCAL/MOL
REMARK 922        TOTAL FREE ENERGY PREDICTED BY IDOCK:   -9.58 KCAL/MOL
REMARK 923 INTER-LIGAND FREE ENERGY PREDICTED BY IDOCK:   -8.71 KCAL/MOL
REMARK 924 INTRA-LIGAND FREE ENERGY PREDICTED BY IDOCK:   -0.86 KCAL/MOL
REMARK 927      BINDING AFFINITY PREDICTED BY RF-SCORE:    0.00 PKD
ROOT
HETATM    1  C   UNL     1     -10.539   5.445  73.835  1.00  0.00    -0.324 C  
HETATM    2  C   UNL     1     -10.495   4.141  73.083  1.00  0.00    -0.248 A  
HETATM    3  C   UNL     1     -11.137   3.040  73.686  1.00  0.00    -0.323 A  
HETATM    4  C   UNL     1     -11.063   1.771  73.127  1.00  0.00    -0.260 A  
HETATM    5  C   UNL     1     -10.321   1.574  71.969  1.00  0.00    -0.205 A  
HETATM    6  C   UNL     1      -9.665   2.650  71.339  1.00  0.00    -0.217 A  
HETATM    7  C   UNL     1      -8.892   2.359  70.080  1.00  0.00    -0.142 C  
HETATM    8  C   UNL     1      -9.797   3.957  71.866  1.00  0.00    -0.178 A  
ENDROOT
BRANCH   8   9
HETATM    9  N   UNL     1      -9.191   5.033  71.159  1.00  0.00    -0.141 N  
HETATM   10  C   UNL     1      -9.883   5.860  70.287  1.00  0.00    -0.185 C  
HETATM   11  H   UNL     1      -8.196   5.206  71.301  1.00  0.00     0.000 HD 
HETATM   12  O   UNL     1     -11.079   5.760  70.023  1.00  0.00    -0.348 OA 
BRANCH  10  13
HETATM   13  C   UNL     1      -9.030   6.865  69.500  1.00  0.00    -0.143 C  
BRANCH  13  14
HETATM   14  N   UNL     1      -8.409   7.945  70.309  1.00  0.00    -0.124 NA 
HETATM   15  C   UNL     1      -7.116   8.340  69.683  1.00  0.00    -0.056 C  
HETATM   16  C   UNL     1      -7.221   9.178  68.378  1.00  0.00    -0.077 C  
HETATM   17  N   UNL     1      -8.123  10.345  68.451  1.00  0.00    -0.108 NA 
HETATM   18  C   UNL     1      -9.402   9.945  69.062  1.00  0.00    -0.174 C  
HETATM   19  C   UNL     1      -9.259   9.156  70.382  1.00  0.00    -0.233 C  
BRANCH  17  20
HETATM   20  C   UNL     1      -7.519  11.494  69.138  1.00  0.00    -0.025 C  
BRANCH  20  21
HETATM   21  C   UNL     1      -7.658  12.791  68.326  1.00  0.00    -0.134 C  
BRANCH  21  22
HETATM   22  C   UNL     1      -8.456  12.633  67.021  1.00  0.00    -0.150 C  
HETATM   23  C   UNL     1      -9.838  13.338  67.016  1.00  0.00    -0.242 C  
HETATM   24  C   UNL     1     -10.690  12.983  65.796  1.00  0.00    -0.291 A  
HETATM   25  C   UNL     1      -9.669  14.843  67.210  1.00  0.00    -0.228 A  
HETATM   26  C   UNL     1      -8.991  15.623  66.257  1.00  0.00    -0.377 A  
HETATM   27  C   UNL     1     -12.093  12.983  65.915  1.00  0.00    -0.503 A  
HETATM   28  C   UNL     1     -12.901  12.613  64.838  1.00  0.00    -0.312 A  
HETATM   29  C   UNL     1      -8.725  16.970  66.500  1.00  0.00    -0.297 A  
HETATM   30  C   UNL     1     -12.313  12.251  63.633  1.00  0.00    -0.562 A  
HETATM   31  C   UNL     1      -9.141  17.546  67.692  1.00  0.00    -0.243 A  
HETATM   32  F   UNL     1      -8.859  18.831  67.937  1.00  0.00    -0.287 F  
HETATM   33  C   UNL     1      -9.835  16.804  68.641  1.00  0.00    -0.261 A  
HETATM   34  F   UNL     1     -13.086  11.880  62.604  1.00  0.00    -0.312 F  
HETATM   35  C   UNL     1     -10.935  12.264  63.481  1.00  0.00    -0.521 A  
HETATM   36  C   UNL     1     -10.127  12.634  64.556  1.00  0.00    -0.271 A  
HETATM   37  C   UNL     1     -10.105  15.456  68.400  1.00  0.00    -0.215 A  
ENDBRANCH  21  22
ENDBRANCH  20  21
ENDBRANCH  17  20
ENDBRANCH  13  14
ENDBRANCH  10  13
ENDBRANCH   8   9
TORSDOF 6
ENDMDL
MODEL       50
REMARK 921   NORMALIZED FREE ENERGY PREDICTED BY IDOCK:   -6.15 KCAL/MOL
REMARK 922        TOTAL FREE ENERGY PREDICTED BY IDOCK:   -9.57 KCAL/MOL
REMARK 923 INTER-LIGAND FREE ENERGY PREDICTED BY IDOCK:   -8.20 KCAL/MOL
REMARK 924 INTRA-LIGAND FREE ENERGY PREDICTED BY IDOCK:   -1.37 KCAL/MOL
REMARK 927      BINDING AFFINITY PREDICTED BY RF-SCORE:    0.00 PKD
ROOT
HETATM    1  C   UNL     1      -9.715  20.378  66.737  1.00  0.00    -0.528 C  
HETATM    2  C   UNL     1      -8.714  19.531  67.477  1.00  0.00    -0.355 A  
HETATM    3  C   UNL     1      -7.906  20.189  68.426  1.00  0.00    -0.117 A  
HETATM    4  C   UNL     1      -6.881  19.520  69.084  1.00  0.00    -0.381 A  
HETATM    5  C   UNL     1      -6.628  18.188  68.783  1.00  0.00    -0.238 A  
HETATM    6  C   UNL     1      -7.415  17.498  67.840  1.00  0.00    -0.206 A  
HETATM    7  C   UNL     1      -7.087  16.052  67.578  1.00  0.00    -0.199 C  
HETATM    8  C   UNL     1      -8.504  18.155  67.220  1.00  0.00    -0.242 A  
ENDROOT
BRANCH   8   9
HETATM    9  N   UNL     1      -9.329  17.406  66.335  1.00  0.00    -0.263 N  
HETATM   10  C   UNL     1     -10.441  16.689  66.750  1.00  0.00    -0.261 C  
HETATM   11  H   UNL     1      -9.090  17.395  65.343  1.00  0.00     0.000 HD 
HETATM   12  O   UNL     1     -10.837  16.614  67.911  1.00  0.00    -0.347 OA 
BRANCH  10  13
HETATM   13  C   UNL     1     -11.114  15.819  65.679  1.00  0.00    -0.155 C  
BRANCH  13  14
HETATM   14  N   UNL     1     -11.485  14.448  66.112  1.00  0.00    -0.351 NA 
HETATM   15  C   UNL     1     -12.428  13.862  65.118  1.00  0.00    -0.453 C  
HETATM   16  C   UNL     1     -11.800  13.421  63.765  1.00  0.00    -0.431 C  
HETATM   17  N   UNL     1     -10.594  12.576  63.876  1.00  0.00    -0.421 NA 
HETATM   18  C   UNL     1      -9.664  13.167  64.854  1.00  0.00     0.120 C  
HETATM   19  C   UNL     1     -10.313  13.547  66.203  1.00  0.00    -0.296 C  
BRANCH  17  20
HETATM   20  C   UNL     1     -10.903  11.174  64.187  1.00  0.00    -0.285 C  
BRANCH  20  21
HETATM   21  C   UNL     1      -9.702  10.441  64.802  1.00  0.00    -0.383 C  
BRANCH  21  22
HETATM   22  C   UNL     1     -10.062   9.526  65.985  1.00  0.00    -0.319 C  
HETATM   23  C   UNL     1      -8.843   8.920  66.730  1.00  0.00    -0.142 C  
HETATM   24  C   UNL     1      -9.235   7.853  67.755  1.00  0.00    -0.144 A  
HETATM   25  C   UNL     1      -7.977  10.028  67.323  1.00  0.00    -0.106 A  
HETATM   26  C   UNL     1      -8.478  10.881  68.321  1.00  0.00    -0.134 A  
HETATM   27  C   UNL     1      -8.335   6.807  68.033  1.00  0.00    -0.120 A  
HETATM   28  C   UNL     1      -8.680   5.786  68.923  1.00  0.00    -0.111 A  
HETATM   29  C   UNL     1      -7.730  11.972  68.764  1.00  0.00    -0.054 A  
HETATM   30  C   UNL     1      -9.922   5.811  69.546  1.00  0.00    -0.191 A  
HETATM   31  C   UNL     1      -6.477  12.210  68.219  1.00  0.00    -0.055 A  
HETATM   32  F   UNL     1      -5.773  13.275  68.624  1.00  0.00    -0.070 F  
HETATM   33  C   UNL     1      -5.947  11.368  67.248  1.00  0.00    -0.081 A  
HETATM   34  F   UNL     1     -10.260   4.825  70.386  1.00  0.00    -0.289 F  
HETATM   35  C   UNL     1     -10.818   6.842  69.307  1.00  0.00    -0.303 A  
HETATM   36  C   UNL     1     -10.474   7.861  68.419  1.00  0.00    -0.207 A  
HETATM   37  C   UNL     1      -6.692  10.275  66.803  1.00  0.00    -0.083 A  
ENDBRANCH  21  22
ENDBRANCH  20  21
ENDBRANCH  17  20
ENDBRANCH  13  14
ENDBRANCH  10  13
ENDBRANCH   8   9
TORSDOF 6
ENDMDL
MODEL       51
REMARK 921   NORMALIZED FREE ENERGY PREDICTED BY IDOCK:   -6.13 KCAL/MOL
REMARK 922        TOTAL FREE ENERGY PREDICTED BY IDOCK:   -9.55 KCAL/MOL
REMARK 923 INTER-LIGAND FREE ENERGY PREDICTED BY IDOCK:   -8.90 KCAL/MOL
REMARK 924 INTRA-LIGAND FREE ENERGY PREDICTED BY IDOCK:   -0.65 KCAL/MOL
REMARK 927      BINDING AFFINITY PREDICTED BY RF-SCORE:    0.00 PKD
ROOT
HETATM    1  C   UNL     1      -6.348  16.468  67.165  1.00  0.00    -0.220 C  
HETATM    2  C   UNL     1      -6.794  17.708  66.438  1.00  0.00    -0.297 A  
HETATM    3  C   UNL     1      -5.816  18.387  65.683  1.00  0.00    -0.251 A  
HETATM    4  C   UNL     1      -6.100  19.597  65.062  1.00  0.00    -0.292 A  
HETATM    5  C   UNL     1      -7.359  20.165  65.211  1.00  0.00    -0.094 A  
HETATM    6  C   UNL     1      -8.361  19.516  65.959  1.00  0.00    -0.261 A  
HETATM    7  C   UNL     1      -9.705  20.188  66.062  1.00  0.00    -0.431 C  
HETATM    8  C   UNL     1      -8.099  18.250  66.532  1.00  0.00    -0.269 A  
ENDROOT
BRANCH   8   9
HETATM    9  N   UNL     1      -9.158  17.583  67.211  1.00  0.00    -0.236 N  
HETATM   10  C   UNL     1      -9.555  17.897  68.502  1.00  0.00    -0.326 C  
HETATM   11  H   UNL     1      -9.651  16.836  66.722  1.00  0.00     0.000 HD 
HETATM   12  O   UNL     1      -9.045  18.769  69.202  1.00  0.00    -0.174 OA 
BRANCH  10  13
HETATM   13  C   UNL     1     -10.609  16.968  69.122  1.00  0.00    -0.303 C  
BRANCH  13  14
HETATM   14  N   UNL     1     -10.077  15.737  69.760  1.00  0.00    -0.286 NA 
HETATM   15  C   UNL     1     -11.162  15.092  70.553  1.00  0.00    -0.280 C  
HETATM   16  C   UNL     1     -12.263  14.366  69.731  1.00  0.00    -0.321 C  
HETATM   17  N   UNL     1     -11.766  13.430  68.701  1.00  0.00    -0.328 NA 
HETATM   18  C   UNL     1     -10.701  14.078  67.916  1.00  0.00    -0.240 C  
HETATM   19  C   UNL     1      -9.599  14.747  68.767  1.00  0.00    -0.215 C  
BRANCH  17  20
HETATM   20  C   UNL     1     -11.335  12.142  69.258  1.00  0.00    -0.266 C  
BRANCH  20  21
HETATM   21  C   UNL     1     -11.854  10.954  68.434  1.00  0.00    -0.195 C  
BRANCH  21  22
HETATM   22  C   UNL     1     -11.082  10.709  67.127  1.00  0.00    -0.267 C  
HETATM   23  C   UNL     1      -9.707  10.011  67.306  1.00  0.00    -0.206 C  
HETATM   24  C   UNL     1      -8.877   9.979  66.022  1.00  0.00    -0.164 A  
HETATM   25  C   UNL     1      -9.888   8.632  67.936  1.00  0.00    -0.211 A  
HETATM   26  C   UNL     1     -10.594   7.619  67.264  1.00  0.00    -0.388 A  
HETATM   27  C   UNL     1      -7.472   9.992  66.113  1.00  0.00    -0.109 A  
HETATM   28  C   UNL     1      -6.682  10.017  64.961  1.00  0.00    -0.128 A  
HETATM   29  C   UNL     1     -10.870   6.407  67.896  1.00  0.00    -0.404 A  
HETATM   30  C   UNL     1      -7.291  10.020  63.713  1.00  0.00    -0.134 A  
HETATM   31  C   UNL     1     -10.435   6.198  69.197  1.00  0.00    -0.251 A  
HETATM   32  F   UNL     1     -10.726   5.045  69.813  1.00  0.00    -0.344 F  
HETATM   33  C   UNL     1      -9.714   7.174  69.875  1.00  0.00    -0.170 A  
HETATM   34  F   UNL     1      -6.535  10.061  62.608  1.00  0.00    -0.103 F  
HETATM   35  C   UNL     1      -8.672   9.985  63.594  1.00  0.00    -0.227 A  
HETATM   36  C   UNL     1      -9.462   9.960  64.744  1.00  0.00    -0.356 A  
HETATM   37  C   UNL     1      -9.435   8.388  69.245  1.00  0.00    -0.155 A  
ENDBRANCH  21  22
ENDBRANCH  20  21
ENDBRANCH  17  20
ENDBRANCH  13  14
ENDBRANCH  10  13
ENDBRANCH   8   9
TORSDOF 6
ENDMDL
MODEL       52
REMARK 921   NORMALIZED FREE ENERGY PREDICTED BY IDOCK:   -6.11 KCAL/MOL
REMARK 922        TOTAL FREE ENERGY PREDICTED BY IDOCK:   -9.53 KCAL/MOL
REMARK 923 INTER-LIGAND FREE ENERGY PREDICTED BY IDOCK:   -9.28 KCAL/MOL
REMARK 924 INTRA-LIGAND FREE ENERGY PREDICTED BY IDOCK:   -0.24 KCAL/MOL
REMARK 927      BINDING AFFINITY PREDICTED BY RF-SCORE:    0.00 PKD
ROOT
HETATM    1  C   UNL     1      -8.887   5.133  72.456  1.00  0.00    -0.129 C  
HETATM    2  C   UNL     1     -10.060   6.021  72.137  1.00  0.00    -0.208 A  
HETATM    3  C   UNL     1     -11.332   5.556  72.530  1.00  0.00    -0.323 A  
HETATM    4  C   UNL     1     -12.487   6.249  72.190  1.00  0.00    -0.117 A  
HETATM    5  C   UNL     1     -12.392   7.404  71.424  1.00  0.00    -0.394 A  
HETATM    6  C   UNL     1     -11.139   7.898  71.013  1.00  0.00    -0.268 A  
HETATM    7  C   UNL     1     -11.118   9.164  70.198  1.00  0.00    -0.248 C  
HETATM    8  C   UNL     1      -9.957   7.236  71.418  1.00  0.00    -0.187 A  
ENDROOT
BRANCH   8   9
HETATM    9  N   UNL     1      -8.704   7.808  71.055  1.00  0.00    -0.134 N  
HETATM   10  C   UNL     1      -7.935   7.352  69.996  1.00  0.00    -0.119 C  
HETATM   11  H   UNL     1      -8.355   8.593  71.604  1.00  0.00     0.000 HD 
HETATM   12  O   UNL     1      -8.236   6.415  69.260  1.00  0.00    -0.112 OA 
BRANCH  10  13
HETATM   13  C   UNL     1      -6.546   7.991  69.855  1.00  0.00    -0.036 C  
BRANCH  13  14
HETATM   14  N   UNL     1      -6.296   8.698  68.574  1.00  0.00    -0.053 NA 
HETATM   15  C   UNL     1      -7.587   9.224  68.048  1.00  0.00    -0.084 C  
HETATM   16  C   UNL     1      -8.166  10.463  68.787  1.00  0.00    -0.128 C  
HETATM   17  N   UNL     1      -7.216  11.574  68.994  1.00  0.00    -0.114 NA 
HETATM   18  C   UNL     1      -5.945  11.047  69.522  1.00  0.00    -0.064 C  
HETATM   19  C   UNL     1      -5.375   9.848  68.733  1.00  0.00    -0.036 C  
BRANCH  17  20
HETATM   20  C   UNL     1      -7.016  12.389  67.788  1.00  0.00    -0.118 C  
BRANCH  20  21
HETATM   21  C   UNL     1      -8.249  13.242  67.458  1.00  0.00    -0.184 C  
BRANCH  21  22
HETATM   22  C   UNL     1      -9.412  13.079  68.451  1.00  0.00    -0.165 C  
HETATM   23  C   UNL     1     -10.545  14.130  68.303  1.00  0.00    -0.254 C  
HETATM   24  C   UNL     1     -11.571  14.072  69.436  1.00  0.00    -0.349 A  
HETATM   25  C   UNL     1     -11.178  14.039  66.917  1.00  0.00    -0.323 A  
HETATM   26  C   UNL     1     -11.862  12.880  66.510  1.00  0.00    -0.473 A  
HETATM   27  C   UNL     1     -12.238  15.251  69.819  1.00  0.00    -0.326 A  
HETATM   28  C   UNL     1     -13.142  15.247  70.884  1.00  0.00    -0.523 A  
HETATM   29  C   UNL     1     -12.324  12.751  65.201  1.00  0.00    -0.555 A  
HETATM   30  C   UNL     1     -13.391  14.062  71.565  1.00  0.00    -0.350 A  
HETATM   31  C   UNL     1     -12.112  13.781  64.295  1.00  0.00    -0.440 A  
HETATM   32  F   UNL     1     -12.530  13.642  63.031  1.00  0.00    -0.530 F  
HETATM   33  C   UNL     1     -11.461  14.947  64.678  1.00  0.00    -0.380 A  
HETATM   34  F   UNL     1     -14.246  14.060  72.597  1.00  0.00    -0.542 F  
HETATM   35  C   UNL     1     -12.765  12.882  71.195  1.00  0.00    -0.366 A  
HETATM   36  C   UNL     1     -11.863  12.885  70.132  1.00  0.00    -0.319 A  
HETATM   37  C   UNL     1     -10.999  15.081  65.988  1.00  0.00    -0.334 A  
ENDBRANCH  21  22
ENDBRANCH  20  21
ENDBRANCH  17  20
ENDBRANCH  13  14
ENDBRANCH  10  13
ENDBRANCH   8   9
TORSDOF 6
ENDMDL
MODEL       53
REMARK 921   NORMALIZED FREE ENERGY PREDICTED BY IDOCK:   -6.10 KCAL/MOL
REMARK 922        TOTAL FREE ENERGY PREDICTED BY IDOCK:   -9.51 KCAL/MOL
REMARK 923 INTER-LIGAND FREE ENERGY PREDICTED BY IDOCK:   -8.70 KCAL/MOL
REMARK 924 INTRA-LIGAND FREE ENERGY PREDICTED BY IDOCK:   -0.82 KCAL/MOL
REMARK 927      BINDING AFFINITY PREDICTED BY RF-SCORE:    0.00 PKD
ROOT
HETATM    1  C   UNL     1      -9.934   4.167  68.357  1.00  0.00     0.019 C  
HETATM    2  C   UNL     1      -9.499   5.061  67.226  1.00  0.00    -0.149 A  
HETATM    3  C   UNL     1      -8.776   4.452  66.180  1.00  0.00    -0.113 A  
HETATM    4  C   UNL     1      -8.240   5.206  65.144  1.00  0.00    -0.132 A  
HETATM    5  C   UNL     1      -8.391   6.587  65.152  1.00  0.00    -0.101 A  
HETATM    6  C   UNL     1      -9.105   7.230  66.181  1.00  0.00    -0.160 A  
HETATM    7  C   UNL     1      -9.238   8.728  66.112  1.00  0.00    -0.273 C  
HETATM    8  C   UNL     1      -9.715   6.459  67.199  1.00  0.00    -0.141 A  
ENDROOT
BRANCH   8   9
HETATM    9  N   UNL     1     -10.500   7.133  68.178  1.00  0.00    -0.196 N  
HETATM   10  C   UNL     1     -10.073   7.355  69.478  1.00  0.00    -0.187 C  
HETATM   11  H   UNL     1     -11.424   7.469  67.908  1.00  0.00     0.000 HD 
HETATM   12  O   UNL     1      -8.988   7.000  69.933  1.00  0.00    -0.142 OA 
BRANCH  10  13
HETATM   13  C   UNL     1     -11.116   7.957  70.430  1.00  0.00    -0.245 C  
BRANCH  13  14
HETATM   14  N   UNL     1     -10.738   9.252  71.053  1.00  0.00    -0.289 NA 
HETATM   15  C   UNL     1      -9.936  10.045  70.080  1.00  0.00    -0.222 C  
HETATM   16  C   UNL     1     -10.730  10.677  68.902  1.00  0.00    -0.219 C  
HETATM   17  N   UNL     1     -11.940  11.429  69.290  1.00  0.00    -0.334 NA 
HETATM   18  C   UNL     1     -12.732  10.635  70.245  1.00  0.00    -0.209 C  
HETATM   19  C   UNL     1     -11.919  10.064  71.428  1.00  0.00    -0.383 C  
BRANCH  17  20
HETATM   20  C   UNL     1     -11.640  12.772  69.805  1.00  0.00    -0.218 C  
BRANCH  20  21
HETATM   21  C   UNL     1     -12.536  13.847  69.172  1.00  0.00     0.036 C  
BRANCH  21  22
HETATM   22  C   UNL     1     -11.836  15.198  68.951  1.00  0.00    -0.337 C  
HETATM   23  C   UNL     1     -10.499  15.117  68.168  1.00  0.00    -0.245 C  
HETATM   24  C   UNL     1      -9.728  16.439  68.154  1.00  0.00    -0.229 A  
HETATM   25  C   UNL     1     -10.735  14.548  66.771  1.00  0.00    -0.291 A  
HETATM   26  C   UNL     1     -11.528  15.235  65.835  1.00  0.00    -0.092 A  
HETATM   27  C   UNL     1      -8.322  16.412  68.082  1.00  0.00    -0.186 A  
HETATM   28  C   UNL     1      -7.583  17.596  68.121  1.00  0.00    -0.234 A  
HETATM   29  C   UNL     1     -11.848  14.651  64.610  1.00  0.00    -0.459 A  
HETATM   30  C   UNL     1      -8.244  18.814  68.223  1.00  0.00    -0.325 A  
HETATM   31  C   UNL     1     -11.370  13.383  64.310  1.00  0.00    -0.389 A  
HETATM   32  F   UNL     1     -11.703  12.812  63.146  1.00  0.00    -0.542 F  
HETATM   33  C   UNL     1     -10.564  12.692  65.207  1.00  0.00    -0.317 A  
HETATM   34  F   UNL     1      -7.535  19.949  68.278  1.00  0.00    -0.321 F  
HETATM   35  C   UNL     1      -9.628  18.870  68.274  1.00  0.00    -0.401 A  
HETATM   36  C   UNL     1     -10.368  17.688  68.234  1.00  0.00    -0.384 A  
HETATM   37  C   UNL     1     -10.241  13.274  66.433  1.00  0.00    -0.292 A  
ENDBRANCH  21  22
ENDBRANCH  20  21
ENDBRANCH  17  20
ENDBRANCH  13  14
ENDBRANCH  10  13
ENDBRANCH   8   9
TORSDOF 6
ENDMDL
MODEL       54
REMARK 921   NORMALIZED FREE ENERGY PREDICTED BY IDOCK:   -6.10 KCAL/MOL
REMARK 922        TOTAL FREE ENERGY PREDICTED BY IDOCK:   -9.50 KCAL/MOL
REMARK 923 INTER-LIGAND FREE ENERGY PREDICTED BY IDOCK:   -8.43 KCAL/MOL
REMARK 924 INTRA-LIGAND FREE ENERGY PREDICTED BY IDOCK:   -1.07 KCAL/MOL
REMARK 927      BINDING AFFINITY PREDICTED BY RF-SCORE:    0.00 PKD
ROOT
HETATM    1  C   UNL     1      -7.503   4.075  68.748  1.00  0.00    -0.055 C  
HETATM    2  C   UNL     1      -7.739   3.563  67.352  1.00  0.00    -0.078 A  
HETATM    3  C   UNL     1      -7.377   2.225  67.098  1.00  0.00    -0.056 A  
HETATM    4  C   UNL     1      -7.456   1.690  65.818  1.00  0.00    -0.061 A  
HETATM    5  C   UNL     1      -7.871   2.494  64.764  1.00  0.00    -0.077 A  
HETATM    6  C   UNL     1      -8.239   3.835  64.979  1.00  0.00    -0.097 A  
HETATM    7  C   UNL     1      -8.691   4.638  63.788  1.00  0.00    -0.140 C  
HETATM    8  C   UNL     1      -8.229   4.364  66.292  1.00  0.00    -0.102 A  
ENDROOT
BRANCH   8   9
HETATM    9  N   UNL     1      -8.687   5.698  66.487  1.00  0.00    -0.119 N  
HETATM   10  C   UNL     1      -9.992   6.015  66.829  1.00  0.00    -0.174 C  
HETATM   11  H   UNL     1      -8.019   6.460  66.368  1.00  0.00     0.000 HD 
HETATM   12  O   UNL     1     -10.894   5.197  66.998  1.00  0.00    -0.132 OA 
BRANCH  10  13
HETATM   13  C   UNL     1     -10.335   7.511  66.843  1.00  0.00    -0.309 C  
BRANCH  13  14
HETATM   14  N   UNL     1      -9.794   8.279  67.994  1.00  0.00    -0.162 NA 
HETATM   15  C   UNL     1      -8.454   8.819  67.632  1.00  0.00    -0.125 C  
HETATM   16  C   UNL     1      -8.450  10.019  66.644  1.00  0.00    -0.125 C  
HETATM   17  N   UNL     1      -9.363  11.126  66.993  1.00  0.00    -0.168 NA 
HETATM   18  C   UNL     1     -10.688  10.584  67.340  1.00  0.00    -0.281 C  
HETATM   19  C   UNL     1     -10.656   9.426  68.362  1.00  0.00    -0.204 C  
BRANCH  17  20
HETATM   20  C   UNL     1      -8.829  11.997  68.049  1.00  0.00    -0.179 C  
BRANCH  20  21
HETATM   21  C   UNL     1      -8.035  13.180  67.475  1.00  0.00    -0.179 C  
BRANCH  21  22
HETATM   22  C   UNL     1      -8.591  14.559  67.866  1.00  0.00    -0.161 C  
HETATM   23  C   UNL     1      -9.205  15.368  66.693  1.00  0.00    -0.303 C  
HETATM   24  C   UNL     1      -9.547  16.811  67.071  1.00  0.00    -0.244 A  
HETATM   25  C   UNL     1     -10.384  14.613  66.085  1.00  0.00    -0.309 A  
HETATM   26  C   UNL     1     -11.542  14.354  66.839  1.00  0.00    -0.404 A  
HETATM   27  C   UNL     1      -9.495  17.810  66.081  1.00  0.00    -0.177 A  
HETATM   28  C   UNL     1      -9.750  19.146  66.400  1.00  0.00    -0.412 A  
HETATM   29  C   UNL     1     -12.560  13.552  66.325  1.00  0.00    -0.298 A  
HETATM   30  C   UNL     1     -10.067  19.488  67.709  1.00  0.00    -0.415 A  
HETATM   31  C   UNL     1     -12.430  13.012  65.053  1.00  0.00    -0.477 A  
HETATM   32  F   UNL     1     -13.396  12.219  64.572  1.00  0.00    -0.455 F  
HETATM   33  C   UNL     1     -11.307  13.273  64.277  1.00  0.00    -0.428 A  
HETATM   34  F   UNL     1     -10.296  20.771  68.020  1.00  0.00    -0.416 F  
HETATM   35  C   UNL     1     -10.147  18.521  68.699  1.00  0.00    -0.406 A  
HETATM   36  C   UNL     1      -9.894  17.187  68.380  1.00  0.00    -0.296 A  
HETATM   37  C   UNL     1     -10.287  14.076  64.788  1.00  0.00    -0.407 A  
ENDBRANCH  21  22
ENDBRANCH  20  21
ENDBRANCH  17  20
ENDBRANCH  13  14
ENDBRANCH  10  13
ENDBRANCH   8   9
TORSDOF 6
ENDMDL
MODEL       55
REMARK 921   NORMALIZED FREE ENERGY PREDICTED BY IDOCK:   -6.06 KCAL/MOL
REMARK 922        TOTAL FREE ENERGY PREDICTED BY IDOCK:   -9.46 KCAL/MOL
REMARK 923 INTER-LIGAND FREE ENERGY PREDICTED BY IDOCK:   -8.63 KCAL/MOL
REMARK 924 INTRA-LIGAND FREE ENERGY PREDICTED BY IDOCK:   -0.83 KCAL/MOL
REMARK 927      BINDING AFFINITY PREDICTED BY RF-SCORE:    0.00 PKD
ROOT
HETATM    1  C   UNL     1      -7.209  17.920  65.657  1.00  0.00    -0.048 C  
HETATM    2  C   UNL     1      -8.300  18.080  66.682  1.00  0.00    -0.284 A  
HETATM    3  C   UNL     1      -8.319  19.291  67.402  1.00  0.00    -0.317 A  
HETATM    4  C   UNL     1      -9.219  19.495  68.442  1.00  0.00    -0.412 A  
HETATM    5  C   UNL     1     -10.096  18.478  68.798  1.00  0.00    -0.394 A  
HETATM    6  C   UNL     1     -10.104  17.254  68.102  1.00  0.00    -0.325 A  
HETATM    7  C   UNL     1     -11.094  16.206  68.539  1.00  0.00    -0.357 C  
HETATM    8  C   UNL     1      -9.240  17.069  66.997  1.00  0.00    -0.236 A  
ENDROOT
BRANCH   8   9
HETATM    9  N   UNL     1      -9.332  15.853  66.264  1.00  0.00    -0.293 N  
HETATM   10  C   UNL     1     -10.230  15.652  65.226  1.00  0.00    -0.324 C  
HETATM   11  H   UNL     1      -8.705  15.088  66.514  1.00  0.00     0.000 HD 
HETATM   12  O   UNL     1     -11.041  16.486  64.827  1.00  0.00    -0.624 OA 
BRANCH  10  13
HETATM   13  C   UNL     1     -10.290  14.227  64.659  1.00  0.00    -0.224 C  
BRANCH  13  14
HETATM   14  N   UNL     1     -11.378  13.372  65.197  1.00  0.00    -0.294 NA 
HETATM   15  C   UNL     1     -11.420  12.096  64.428  1.00  0.00    -0.350 C  
HETATM   16  C   UNL     1     -10.279  11.084  64.729  1.00  0.00    -0.319 C  
HETATM   17  N   UNL     1     -10.047  10.803  66.160  1.00  0.00    -0.234 NA 
HETATM   18  C   UNL     1      -9.998  12.069  66.912  1.00  0.00    -0.202 C  
HETATM   19  C   UNL     1     -11.174  13.028  66.624  1.00  0.00    -0.307 C  
BRANCH  17  20
HETATM   20  C   UNL     1     -11.025   9.864  66.725  1.00  0.00     0.080 C  
BRANCH  20  21
HETATM   21  C   UNL     1     -10.398   8.499  67.043  1.00  0.00    -0.379 C  
BRANCH  21  22
HETATM   22  C   UNL     1     -10.775   7.940  68.425  1.00  0.00    -0.073 C  
HETATM   23  C   UNL     1      -9.652   7.132  69.128  1.00  0.00    -0.154 C  
HETATM   24  C   UNL     1     -10.129   6.413  70.391  1.00  0.00    -0.221 A  
HETATM   25  C   UNL     1      -8.430   8.015  69.367  1.00  0.00    -0.132 A  
HETATM   26  C   UNL     1      -8.502   9.131  70.219  1.00  0.00    -0.208 A  
HETATM   27  C   UNL     1      -9.507   5.208  70.771  1.00  0.00    -0.224 A  
HETATM   28  C   UNL     1      -9.951   4.497  71.888  1.00  0.00    -0.258 A  
HETATM   29  C   UNL     1      -7.424  10.009  70.332  1.00  0.00    -0.069 A  
HETATM   30  C   UNL     1     -11.011   4.990  72.638  1.00  0.00    -0.216 A  
HETATM   31  C   UNL     1      -6.268   9.772  69.601  1.00  0.00    -0.045 A  
HETATM   32  F   UNL     1      -5.246  10.632  69.688  1.00  0.00    -0.038 F  
HETATM   33  C   UNL     1      -6.162   8.663  68.770  1.00  0.00    -0.045 A  
HETATM   34  F   UNL     1     -11.447   4.301  73.700  1.00  0.00    -0.338 F  
HETATM   35  C   UNL     1     -11.626   6.186  72.300  1.00  0.00    -0.362 A  
HETATM   36  C   UNL     1     -11.184   6.897  71.185  1.00  0.00    -0.314 A  
HETATM   37  C   UNL     1      -7.239   7.781  68.656  1.00  0.00    -0.085 A  
ENDBRANCH  21  22
ENDBRANCH  20  21
ENDBRANCH  17  20
ENDBRANCH  13  14
ENDBRANCH  10  13
ENDBRANCH   8   9
TORSDOF 6
ENDMDL
MODEL       56
REMARK 921   NORMALIZED FREE ENERGY PREDICTED BY IDOCK:   -6.03 KCAL/MOL
REMARK 922        TOTAL FREE ENERGY PREDICTED BY IDOCK:   -9.42 KCAL/MOL
REMARK 923 INTER-LIGAND FREE ENERGY PREDICTED BY IDOCK:   -9.65 KCAL/MOL
REMARK 924 INTRA-LIGAND FREE ENERGY PREDICTED BY IDOCK:    0.22 KCAL/MOL
REMARK 927      BINDING AFFINITY PREDICTED BY RF-SCORE:    0.00 PKD
ROOT
HETATM    1  C   UNL     1      -9.829   8.005  66.969  1.00  0.00    -0.295 C  
HETATM    2  C   UNL     1      -9.224   6.695  67.401  1.00  0.00    -0.124 A  
HETATM    3  C   UNL     1      -8.162   6.199  66.617  1.00  0.00    -0.110 A  
HETATM    4  C   UNL     1      -7.607   4.951  66.868  1.00  0.00    -0.088 A  
HETATM    5  C   UNL     1      -8.124   4.164  67.890  1.00  0.00    -0.090 A  
HETATM    6  C   UNL     1      -9.184   4.626  68.692  1.00  0.00    -0.173 A  
HETATM    7  C   UNL     1      -9.680   3.720  69.789  1.00  0.00    -0.193 C  
HETATM    8  C   UNL     1      -9.705   5.926  68.487  1.00  0.00    -0.126 A  
ENDROOT
BRANCH   8   9
HETATM    9  N   UNL     1     -10.719   6.394  69.369  1.00  0.00    -0.257 N  
HETATM   10  C   UNL     1     -10.477   6.768  70.682  1.00  0.00    -0.215 C  
HETATM   11  H   UNL     1     -11.674   6.457  69.017  1.00  0.00     0.000 HD 
HETATM   12  O   UNL     1      -9.378   6.736  71.231  1.00  0.00    -0.164 OA 
BRANCH  10  13
HETATM   13  C   UNL     1     -11.718   7.097  71.523  1.00  0.00    -0.290 C  
BRANCH  13  14
HETATM   14  N   UNL     1     -11.655   8.372  72.281  1.00  0.00    -0.367 NA 
HETATM   15  C   UNL     1     -10.763   9.324  71.560  1.00  0.00    -0.355 C  
HETATM   16  C   UNL     1     -11.348   9.954  70.265  1.00  0.00    -0.291 C  
HETATM   17  N   UNL     1     -12.699  10.534  70.402  1.00  0.00    -0.307 NA 
HETATM   18  C   UNL     1     -13.577   9.584  71.108  1.00  0.00    -0.169 C  
HETATM   19  C   UNL     1     -12.982   9.017  72.416  1.00  0.00    -0.405 C  
BRANCH  17  20
HETATM   20  C   UNL     1     -12.693  11.857  71.041  1.00  0.00    -0.258 C  
BRANCH  20  21
HETATM   21  C   UNL     1     -12.008  12.917  70.165  1.00  0.00    -0.373 C  
BRANCH  21  22
HETATM   22  C   UNL     1     -11.537  12.395  68.797  1.00  0.00    -0.373 C  
HETATM   23  C   UNL     1     -11.694  13.403  67.628  1.00  0.00    -0.397 C  
HETATM   24  C   UNL     1     -11.422  12.782  66.257  1.00  0.00    -0.405 A  
HETATM   25  C   UNL     1     -10.863  14.657  67.892  1.00  0.00    -0.261 A  
HETATM   26  C   UNL     1      -9.462  14.591  67.975  1.00  0.00    -0.209 A  
HETATM   27  C   UNL     1     -12.091  13.291  65.128  1.00  0.00    -0.452 A  
HETATM   28  C   UNL     1     -11.908  12.715  63.869  1.00  0.00    -0.544 A  
HETATM   29  C   UNL     1      -8.718  15.711  68.346  1.00  0.00    -0.178 A  
HETATM   30  C   UNL     1     -11.048  11.633  63.729  1.00  0.00    -0.420 A  
HETATM   31  C   UNL     1      -9.370  16.903  68.627  1.00  0.00    -0.268 A  
HETATM   32  F   UNL     1      -8.657  17.969  69.011  1.00  0.00    -0.257 F  
HETATM   33  C   UNL     1     -10.753  17.002  68.528  1.00  0.00    -0.352 A  
HETATM   34  F   UNL     1     -10.884  11.069  62.526  1.00  0.00     0.091 F  
HETATM   35  C   UNL     1     -10.359  11.125  64.820  1.00  0.00    -0.387 A  
HETATM   36  C   UNL     1     -10.541  11.700  66.078  1.00  0.00    -0.303 A  
HETATM   37  C   UNL     1     -11.500  15.884  68.156  1.00  0.00    -0.281 A  
ENDBRANCH  21  22
ENDBRANCH  20  21
ENDBRANCH  17  20
ENDBRANCH  13  14
ENDBRANCH  10  13
ENDBRANCH   8   9
TORSDOF 6
ENDMDL
MODEL       57
REMARK 921   NORMALIZED FREE ENERGY PREDICTED BY IDOCK:   -6.02 KCAL/MOL
REMARK 922        TOTAL FREE ENERGY PREDICTED BY IDOCK:   -9.40 KCAL/MOL
REMARK 923 INTER-LIGAND FREE ENERGY PREDICTED BY IDOCK:   -8.51 KCAL/MOL
REMARK 924 INTRA-LIGAND FREE ENERGY PREDICTED BY IDOCK:   -0.89 KCAL/MOL
REMARK 927      BINDING AFFINITY PREDICTED BY RF-SCORE:    0.00 PKD
ROOT
HETATM    1  C   UNL     1      -6.681   4.767  62.853  1.00  0.00    -0.030 C  
HETATM    2  C   UNL     1      -7.563   4.198  63.933  1.00  0.00    -0.073 A  
HETATM    3  C   UNL     1      -7.458   2.812  64.171  1.00  0.00    -0.067 A  
HETATM    4  C   UNL     1      -8.301   2.173  65.071  1.00  0.00    -0.087 A  
HETATM    5  C   UNL     1      -9.284   2.903  65.728  1.00  0.00    -0.111 A  
HETATM    6  C   UNL     1      -9.418   4.289  65.514  1.00  0.00    -0.176 A  
HETATM    7  C   UNL     1     -10.498   5.013  66.274  1.00  0.00    -0.352 C  
HETATM    8  C   UNL     1      -8.516   4.957  64.653  1.00  0.00    -0.143 A  
ENDROOT
BRANCH   8   9
HETATM    9  N   UNL     1      -8.627   6.370  64.524  1.00  0.00    -0.344 N  
HETATM   10  C   UNL     1      -7.863   7.266  65.257  1.00  0.00    -0.121 C  
HETATM   11  H   UNL     1      -9.303   6.743  63.858  1.00  0.00     0.000 HD 
HETATM   12  O   UNL     1      -7.017   6.952  66.092  1.00  0.00    -0.065 OA 
BRANCH  10  13
HETATM   13  C   UNL     1      -8.232   8.748  65.094  1.00  0.00    -0.148 C  
BRANCH  13  14
HETATM   14  N   UNL     1      -9.670   9.070  65.278  1.00  0.00     0.044 NA 
HETATM   15  C   UNL     1     -10.012   8.967  66.724  1.00  0.00    -0.267 C  
HETATM   16  C   UNL     1      -9.489  10.117  67.629  1.00  0.00    -0.148 C  
HETATM   17  N   UNL     1      -9.772  11.482  67.140  1.00  0.00    -0.183 NA 
HETATM   18  C   UNL     1      -9.423  11.578  65.712  1.00  0.00    -0.234 C  
HETATM   19  C   UNL     1     -10.001  10.445  64.836  1.00  0.00    -0.339 C  
BRANCH  17  20
HETATM   20  C   UNL     1     -11.154  11.908  67.400  1.00  0.00    -0.279 C  
BRANCH  20  21
HETATM   21  C   UNL     1     -11.252  12.834  68.621  1.00  0.00    -0.322 C  
BRANCH  21  22
HETATM   22  C   UNL     1     -10.380  14.097  68.525  1.00  0.00    -0.249 C  
HETATM   23  C   UNL     1     -11.140  15.430  68.757  1.00  0.00    -0.284 C  
HETATM   24  C   UNL     1     -10.295  16.667  68.442  1.00  0.00    -0.299 A  
HETATM   25  C   UNL     1     -11.746  15.461  70.158  1.00  0.00    -0.356 A  
HETATM   26  C   UNL     1     -10.927  15.442  71.300  1.00  0.00    -0.240 A  
HETATM   27  C   UNL     1     -10.934  17.836  67.987  1.00  0.00    -0.088 A  
HETATM   28  C   UNL     1     -10.191  18.966  67.639  1.00  0.00    -0.459 A  
HETATM   29  C   UNL     1     -11.486  15.337  72.573  1.00  0.00    -0.422 A  
HETATM   30  C   UNL     1      -8.807  18.938  67.754  1.00  0.00    -0.292 A  
HETATM   31  C   UNL     1     -12.864  15.259  72.712  1.00  0.00    -0.413 A  
HETATM   32  F   UNL     1     -13.397  15.129  73.933  1.00  0.00    -0.417 F  
HETATM   33  C   UNL     1     -13.698  15.301  71.601  1.00  0.00    -0.600 A  
HETATM   34  F   UNL     1      -8.092  20.016  67.405  1.00  0.00    -0.311 F  
HETATM   35  C   UNL     1      -8.154  17.807  68.221  1.00  0.00    -0.283 A  
HETATM   36  C   UNL     1      -8.895  16.678  68.569  1.00  0.00    -0.235 A  
HETATM   37  C   UNL     1     -13.142  15.407  70.325  1.00  0.00    -0.111 A  
ENDBRANCH  21  22
ENDBRANCH  20  21
ENDBRANCH  17  20
ENDBRANCH  13  14
ENDBRANCH  10  13
ENDBRANCH   8   9
TORSDOF 6
ENDMDL
MODEL       58
REMARK 921   NORMALIZED FREE ENERGY PREDICTED BY IDOCK:   -5.98 KCAL/MOL
REMARK 922        TOTAL FREE ENERGY PREDICTED BY IDOCK:   -9.35 KCAL/MOL
REMARK 923 INTER-LIGAND FREE ENERGY PREDICTED BY IDOCK:   -8.11 KCAL/MOL
REMARK 924 INTRA-LIGAND FREE ENERGY PREDICTED BY IDOCK:   -1.25 KCAL/MOL
REMARK 927      BINDING AFFINITY PREDICTED BY RF-SCORE:    0.00 PKD
ROOT
HETATM    1  C   UNL     1      -7.784  19.413  68.920  1.00  0.00    -0.382 C  
HETATM    2  C   UNL     1      -8.660  18.943  67.789  1.00  0.00    -0.318 A  
HETATM    3  C   UNL     1      -9.593  19.871  67.284  1.00  0.00    -0.502 A  
HETATM    4  C   UNL     1     -10.518  19.504  66.314  1.00  0.00    -0.609 A  
HETATM    5  C   UNL     1     -10.545  18.193  65.855  1.00  0.00    -0.247 A  
HETATM    6  C   UNL     1      -9.630  17.239  66.337  1.00  0.00    -0.290 A  
HETATM    7  C   UNL     1      -9.714  15.842  65.780  1.00  0.00    -0.360 C  
HETATM    8  C   UNL     1      -8.640  17.626  67.272  1.00  0.00    -0.231 A  
ENDROOT
BRANCH   8   9
HETATM    9  N   UNL     1      -7.678  16.658  67.677  1.00  0.00    -0.162 N  
HETATM   10  C   UNL     1      -7.876  15.778  68.730  1.00  0.00    -0.180 C  
HETATM   11  H   UNL     1      -6.797  16.609  67.165  1.00  0.00     0.000 HD 
HETATM   12  O   UNL     1      -8.887  15.734  69.429  1.00  0.00    -0.252 OA 
BRANCH  10  13
HETATM   13  C   UNL     1      -6.667  14.915  69.117  1.00  0.00    -0.126 C  
BRANCH  13  14
HETATM   14  N   UNL     1      -6.196  13.972  68.070  1.00  0.00    -0.128 NA 
HETATM   15  C   UNL     1      -5.255  12.994  68.684  1.00  0.00    -0.067 C  
HETATM   16  C   UNL     1      -5.902  11.901  69.582  1.00  0.00    -0.100 C  
HETATM   17  N   UNL     1      -7.049  11.191  68.981  1.00  0.00    -0.104 NA 
HETATM   18  C   UNL     1      -7.978  12.166  68.384  1.00  0.00    -0.152 C  
HETATM   19  C   UNL     1      -7.306  13.205  67.460  1.00  0.00    -0.148 C  
BRANCH  17  20
HETATM   20  C   UNL     1      -6.643  10.157  68.020  1.00  0.00    -0.058 C  
BRANCH  20  21
HETATM   21  C   UNL     1      -6.975   8.743  68.518  1.00  0.00    -0.065 C  
BRANCH  21  22
HETATM   22  C   UNL     1      -7.319   7.746  67.399  1.00  0.00    -0.092 C  
HETATM   23  C   UNL     1      -8.830   7.417  67.265  1.00  0.00    -0.124 C  
HETATM   24  C   UNL     1      -9.111   6.267  66.294  1.00  0.00    -0.166 A  
HETATM   25  C   UNL     1      -9.624   8.680  66.941  1.00  0.00    -0.254 A  
HETATM   26  C   UNL     1      -9.415   9.376  65.738  1.00  0.00    -0.325 A  
HETATM   27  C   UNL     1     -10.235   5.447  66.510  1.00  0.00    -0.287 A  
HETATM   28  C   UNL     1     -10.493   4.357  65.676  1.00  0.00    -0.224 A  
HETATM   29  C   UNL     1     -10.045  10.599  65.507  1.00  0.00    -0.343 A  
HETATM   30  C   UNL     1      -9.636   4.086  64.616  1.00  0.00    -0.175 A  
HETATM   31  C   UNL     1     -10.892  11.126  66.471  1.00  0.00    -0.245 A  
HETATM   32  F   UNL     1     -11.473  12.314  66.259  1.00  0.00    -0.341 F  
HETATM   33  C   UNL     1     -11.135  10.447  67.659  1.00  0.00    -0.361 A  
HETATM   34  F   UNL     1      -9.874   3.032  63.826  1.00  0.00    -0.119 F  
HETATM   35  C   UNL     1      -8.535   4.891  64.368  1.00  0.00    -0.137 A  
HETATM   36  C   UNL     1      -8.276   5.981  65.200  1.00  0.00    -0.142 A  
HETATM   37  C   UNL     1     -10.507   9.222  67.893  1.00  0.00    -0.290 A  
ENDBRANCH  21  22
ENDBRANCH  20  21
ENDBRANCH  17  20
ENDBRANCH  13  14
ENDBRANCH  10  13
ENDBRANCH   8   9
TORSDOF 6
ENDMDL
MODEL       59
REMARK 921   NORMALIZED FREE ENERGY PREDICTED BY IDOCK:   -5.95 KCAL/MOL
REMARK 922        TOTAL FREE ENERGY PREDICTED BY IDOCK:   -9.31 KCAL/MOL
REMARK 923 INTER-LIGAND FREE ENERGY PREDICTED BY IDOCK:   -9.04 KCAL/MOL
REMARK 924 INTRA-LIGAND FREE ENERGY PREDICTED BY IDOCK:   -0.27 KCAL/MOL
REMARK 927      BINDING AFFINITY PREDICTED BY RF-SCORE:    0.00 PKD
ROOT
HETATM    1  C   UNL     1      -9.805  11.029  62.347  1.00  0.00     0.062 C  
HETATM    2  C   UNL     1     -10.497  11.379  63.637  1.00  0.00    -0.472 A  
HETATM    3  C   UNL     1     -11.310  12.531  63.628  1.00  0.00    -0.555 A  
HETATM    4  C   UNL     1     -11.906  12.998  64.793  1.00  0.00    -0.409 A  
HETATM    5  C   UNL     1     -11.675  12.338  65.993  1.00  0.00    -0.451 A  
HETATM    6  C   UNL     1     -10.869  11.185  66.041  1.00  0.00    -0.230 A  
HETATM    7  C   UNL     1     -10.677  10.518  67.377  1.00  0.00    -0.334 C  
HETATM    8  C   UNL     1     -10.318  10.664  64.846  1.00  0.00    -0.277 A  
ENDROOT
BRANCH   8   9
HETATM    9  N   UNL     1      -9.576   9.451  64.917  1.00  0.00    -0.442 N  
HETATM   10  C   UNL     1      -8.205   9.405  65.120  1.00  0.00    -0.135 C  
HETATM   11  H   UNL     1     -10.079   8.570  64.812  1.00  0.00     0.000 HD 
HETATM   12  O   UNL     1      -7.481  10.388  65.258  1.00  0.00    -0.144 OA 
BRANCH  10  13
HETATM   13  C   UNL     1      -7.560   8.016  65.011  1.00  0.00    -0.104 C  
BRANCH  13  14
HETATM   14  N   UNL     1      -7.190   7.382  66.302  1.00  0.00    -0.076 NA 
HETATM   15  C   UNL     1      -8.284   7.609  67.288  1.00  0.00    -0.119 C  
HETATM   16  C   UNL     1      -9.573   6.766  67.077  1.00  0.00    -0.152 C  
HETATM   17  N   UNL     1      -9.354   5.317  66.890  1.00  0.00    -0.123 NA 
HETATM   18  C   UNL     1      -8.278   5.101  65.908  1.00  0.00    -0.115 C  
HETATM   19  C   UNL     1      -6.995   5.919  66.178  1.00  0.00    -0.062 C  
BRANCH  17  20
HETATM   20  C   UNL     1      -9.100   4.609  68.152  1.00  0.00    -0.120 C  
BRANCH  20  21
HETATM   21  C   UNL     1     -10.280   4.728  69.128  1.00  0.00    -0.124 C  
BRANCH  21  22
HETATM   22  C   UNL     1     -10.616   6.172  69.537  1.00  0.00    -0.350 C  
HETATM   23  C   UNL     1     -11.193   6.323  70.970  1.00  0.00    -0.372 C  
HETATM   24  C   UNL     1     -11.715   7.731  71.262  1.00  0.00    -0.311 A  
HETATM   25  C   UNL     1     -10.185   5.832  72.005  1.00  0.00    -0.245 A  
HETATM   26  C   UNL     1      -8.947   6.475  72.169  1.00  0.00    -0.139 A  
HETATM   27  C   UNL     1     -12.780   7.894  72.169  1.00  0.00    -0.254 A  
HETATM   28  C   UNL     1     -13.317   9.159  72.420  1.00  0.00    -0.527 A  
HETATM   29  C   UNL     1      -7.978   5.945  73.021  1.00  0.00    -0.106 A  
HETATM   30  C   UNL     1     -12.786  10.269  71.774  1.00  0.00    -0.460 A  
HETATM   31  C   UNL     1      -8.245   4.776  73.719  1.00  0.00    -0.106 A  
HETATM   32  F   UNL     1      -7.303   4.252  74.513  1.00  0.00    -0.066 F  
HETATM   33  C   UNL     1      -9.471   4.133  73.593  1.00  0.00    -0.122 A  
HETATM   34  F   UNL     1     -13.311  11.480  72.002  1.00  0.00    -0.563 F  
HETATM   35  C   UNL     1     -11.723  10.140  70.894  1.00  0.00    -0.468 A  
HETATM   36  C   UNL     1     -11.186   8.877  70.643  1.00  0.00    -0.308 A  
HETATM   37  C   UNL     1     -10.443   4.661  72.743  1.00  0.00    -0.261 A  
ENDBRANCH  21  22
ENDBRANCH  20  21
ENDBRANCH  17  20
ENDBRANCH  13  14
ENDBRANCH  10  13
ENDBRANCH   8   9
TORSDOF 6
ENDMDL
MODEL       60
REMARK 921   NORMALIZED FREE ENERGY PREDICTED BY IDOCK:   -5.95 KCAL/MOL
REMARK 922        TOTAL FREE ENERGY PREDICTED BY IDOCK:   -9.31 KCAL/MOL
REMARK 923 INTER-LIGAND FREE ENERGY PREDICTED BY IDOCK:   -8.79 KCAL/MOL
REMARK 924 INTRA-LIGAND FREE ENERGY PREDICTED BY IDOCK:   -0.53 KCAL/MOL
REMARK 927      BINDING AFFINITY PREDICTED BY RF-SCORE:    0.00 PKD
ROOT
HETATM    1  C   UNL     1      -7.393   8.452  66.234  1.00  0.00    -0.086 C  
HETATM    2  C   UNL     1      -7.215   6.970  66.033  1.00  0.00    -0.074 A  
HETATM    3  C   UNL     1      -6.338   6.571  65.004  1.00  0.00    -0.041 A  
HETATM    4  C   UNL     1      -6.186   5.231  64.669  1.00  0.00    -0.026 A  
HETATM    5  C   UNL     1      -6.931   4.269  65.338  1.00  0.00    -0.058 A  
HETATM    6  C   UNL     1      -7.817   4.630  66.371  1.00  0.00    -0.099 A  
HETATM    7  C   UNL     1      -8.579   3.528  67.059  1.00  0.00    -0.116 C  
HETATM    8  C   UNL     1      -7.921   5.985  66.764  1.00  0.00    -0.102 A  
ENDROOT
BRANCH   8   9
HETATM    9  N   UNL     1      -8.763   6.306  67.867  1.00  0.00    -0.115 N  
HETATM   10  C   UNL     1      -8.281   6.667  69.116  1.00  0.00    -0.120 C  
HETATM   11  H   UNL     1      -9.773   6.268  67.731  1.00  0.00     0.000 HD 
HETATM   12  O   UNL     1      -7.091   6.748  69.414  1.00  0.00    -0.074 OA 
BRANCH  10  13
HETATM   13  C   UNL     1      -9.336   6.824  70.220  1.00  0.00    -0.159 C  
BRANCH  13  14
HETATM   14  N   UNL     1     -10.645   7.369  69.778  1.00  0.00    -0.233 NA 
HETATM   15  C   UNL     1     -11.454   7.727  70.977  1.00  0.00    -0.281 C  
HETATM   16  C   UNL     1     -11.012   9.010  71.736  1.00  0.00    -0.372 C  
HETATM   17  N   UNL     1     -10.808  10.203  70.890  1.00  0.00    -0.213 NA 
HETATM   18  C   UNL     1     -10.001   9.844  69.712  1.00  0.00    -0.243 C  
HETATM   19  C   UNL     1     -10.499   8.593  68.955  1.00  0.00    -0.192 C  
BRANCH  17  20
HETATM   20  C   UNL     1     -12.067  10.861  70.516  1.00  0.00    -0.371 C  
BRANCH  20  21
HETATM   21  C   UNL     1     -12.007  11.463  69.104  1.00  0.00    -0.395 C  
BRANCH  21  22
HETATM   22  C   UNL     1     -11.682  12.966  69.074  1.00  0.00    -0.375 C  
HETATM   23  C   UNL     1     -10.624  13.380  68.017  1.00  0.00    -0.252 C  
HETATM   24  C   UNL     1     -10.170  14.834  68.159  1.00  0.00    -0.228 A  
HETATM   25  C   UNL     1     -11.114  13.042  66.611  1.00  0.00    -0.318 A  
HETATM   26  C   UNL     1     -12.255  13.664  66.075  1.00  0.00    -0.492 A  
HETATM   27  C   UNL     1      -8.863  15.185  67.772  1.00  0.00    -0.171 A  
HETATM   28  C   UNL     1      -8.395  16.491  67.937  1.00  0.00    -0.175 A  
HETATM   29  C   UNL     1     -12.775  13.257  64.847  1.00  0.00    -0.391 A  
HETATM   30  C   UNL     1      -9.235  17.455  68.481  1.00  0.00    -0.277 A  
HETATM   31  C   UNL     1     -12.152  12.234  64.145  1.00  0.00    -0.436 A  
HETATM   32  F   UNL     1     -12.670  11.825  62.979  1.00  0.00    -0.673 F  
HETATM   33  C   UNL     1     -11.009  11.620  64.640  1.00  0.00    -0.363 A  
HETATM   34  F   UNL     1      -8.782  18.704  68.655  1.00  0.00    -0.324 F  
HETATM   35  C   UNL     1     -10.534  17.142  68.850  1.00  0.00    -0.346 A  
HETATM   36  C   UNL     1     -11.001  15.839  68.685  1.00  0.00    -0.307 A  
HETATM   37  C   UNL     1     -10.486  12.025  65.869  1.00  0.00    -0.290 A  
ENDBRANCH  21  22
ENDBRANCH  20  21
ENDBRANCH  17  20
ENDBRANCH  13  14
ENDBRANCH  10  13
ENDBRANCH   8   9
TORSDOF 6
ENDMDL
MODEL       61
REMARK 921   NORMALIZED FREE ENERGY PREDICTED BY IDOCK:   -5.92 KCAL/MOL
REMARK 922        TOTAL FREE ENERGY PREDICTED BY IDOCK:   -9.27 KCAL/MOL
REMARK 923 INTER-LIGAND FREE ENERGY PREDICTED BY IDOCK:   -8.04 KCAL/MOL
REMARK 924 INTRA-LIGAND FREE ENERGY PREDICTED BY IDOCK:   -1.22 KCAL/MOL
REMARK 927      BINDING AFFINITY PREDICTED BY RF-SCORE:    0.00 PKD
ROOT
HETATM    1  C   UNL     1     -10.092   7.471  72.919  1.00  0.00    -0.315 C  
HETATM    2  C   UNL     1     -10.216   6.004  72.601  1.00  0.00    -0.205 A  
HETATM    3  C   UNL     1     -10.878   5.203  73.554  1.00  0.00    -0.360 A  
HETATM    4  C   UNL     1     -10.953   3.824  73.406  1.00  0.00    -0.317 A  
HETATM    5  C   UNL     1     -10.340   3.218  72.316  1.00  0.00    -0.106 A  
HETATM    6  C   UNL     1      -9.670   3.986  71.345  1.00  0.00    -0.253 A  
HETATM    7  C   UNL     1      -9.043   3.257  70.185  1.00  0.00    -0.195 C  
HETATM    8  C   UNL     1      -9.653   5.396  71.454  1.00  0.00    -0.156 A  
ENDROOT
BRANCH   8   9
HETATM    9  N   UNL     1      -9.038   6.147  70.412  1.00  0.00    -0.152 N  
HETATM   10  C   UNL     1      -7.693   6.482  70.403  1.00  0.00    -0.098 C  
HETATM   11  H   UNL     1      -9.618   6.455  69.632  1.00  0.00     0.000 HD 
HETATM   12  O   UNL     1      -6.886   6.178  71.279  1.00  0.00    -0.063 OA 
BRANCH  10  13
HETATM   13  C   UNL     1      -7.246   7.425  69.278  1.00  0.00    -0.080 C  
BRANCH  13  14
HETATM   14  N   UNL     1      -6.506   8.636  69.717  1.00  0.00    -0.038 NA 
HETATM   15  C   UNL     1      -5.867   9.273  68.531  1.00  0.00    -0.041 C  
HETATM   16  C   UNL     1      -6.825  10.030  67.568  1.00  0.00    -0.081 C  
HETATM   17  N   UNL     1      -7.746  10.984  68.218  1.00  0.00    -0.107 NA 
HETATM   18  C   UNL     1      -8.380  10.344  69.384  1.00  0.00    -0.142 C  
HETATM   19  C   UNL     1      -7.392   9.644  70.343  1.00  0.00    -0.149 C  
BRANCH  17  20
HETATM   20  C   UNL     1      -7.099  12.254  68.571  1.00  0.00    -0.099 C  
BRANCH  20  21
HETATM   21  C   UNL     1      -6.991  13.201  67.366  1.00  0.00    -0.117 C  
BRANCH  21  22
HETATM   22  C   UNL     1      -7.561  14.607  67.618  1.00  0.00    -0.198 C  
HETATM   23  C   UNL     1      -8.908  14.899  66.903  1.00  0.00    -0.284 C  
HETATM   24  C   UNL     1      -9.333  16.365  66.997  1.00  0.00    -0.241 A  
HETATM   25  C   UNL     1      -9.986  13.931  67.384  1.00  0.00    -0.240 A  
HETATM   26  C   UNL     1     -10.412  13.932  68.724  1.00  0.00    -0.229 A  
HETATM   27  C   UNL     1     -10.100  16.925  65.958  1.00  0.00    -0.336 A  
HETATM   28  C   UNL     1     -10.462  18.274  65.984  1.00  0.00    -0.380 A  
HETATM   29  C   UNL     1     -11.299  12.961  69.188  1.00  0.00    -0.329 A  
HETATM   30  C   UNL     1     -10.068  19.068  67.053  1.00  0.00    -0.364 A  
HETATM   31  C   UNL     1     -11.771  11.991  68.314  1.00  0.00    -0.334 A  
HETATM   32  F   UNL     1     -12.599  11.042  68.769  1.00  0.00    -0.246 F  
HETATM   33  C   UNL     1     -11.385  11.982  66.980  1.00  0.00    -0.396 A  
HETATM   34  F   UNL     1     -10.400  20.365  67.072  1.00  0.00    -0.549 F  
HETATM   35  C   UNL     1      -9.331  18.537  68.101  1.00  0.00    -0.336 A  
HETATM   36  C   UNL     1      -8.970  17.190  68.076  1.00  0.00    -0.233 A  
HETATM   37  C   UNL     1     -10.498  12.953  66.511  1.00  0.00    -0.275 A  
ENDBRANCH  21  22
ENDBRANCH  20  21
ENDBRANCH  17  20
ENDBRANCH  13  14
ENDBRANCH  10  13
ENDBRANCH   8   9
TORSDOF 6
ENDMDL
MODEL       62
REMARK 921   NORMALIZED FREE ENERGY PREDICTED BY IDOCK:   -5.91 KCAL/MOL
REMARK 922        TOTAL FREE ENERGY PREDICTED BY IDOCK:   -9.26 KCAL/MOL
REMARK 923 INTER-LIGAND FREE ENERGY PREDICTED BY IDOCK:   -8.26 KCAL/MOL
REMARK 924 INTRA-LIGAND FREE ENERGY PREDICTED BY IDOCK:   -0.99 KCAL/MOL
REMARK 927      BINDING AFFINITY PREDICTED BY RF-SCORE:    0.00 PKD
ROOT
HETATM    1  C   UNL     1     -11.303  16.516  70.539  1.00  0.00    -0.075 C  
HETATM    2  C   UNL     1     -12.154  15.369  71.017  1.00  0.00    -0.417 A  
HETATM    3  C   UNL     1     -13.146  15.671  71.971  1.00  0.00    -0.541 A  
HETATM    4  C   UNL     1     -13.912  14.669  72.553  1.00  0.00    -0.518 A  
HETATM    5  C   UNL     1     -13.678  13.343  72.212  1.00  0.00    -0.705 A  
HETATM    6  C   UNL     1     -12.695  13.003  71.264  1.00  0.00    -0.385 A  
HETATM    7  C   UNL     1     -12.510  11.544  70.937  1.00  0.00    -0.464 C  
HETATM    8  C   UNL     1     -11.962  14.025  70.616  1.00  0.00    -0.305 A  
ENDROOT
BRANCH   8   9
HETATM    9  N   UNL     1     -11.034  13.652  69.602  1.00  0.00    -0.461 N  
HETATM   10  C   UNL     1     -11.264  13.845  68.248  1.00  0.00    -0.272 C  
HETATM   11  H   UNL     1     -10.155  13.221  69.886  1.00  0.00     0.000 HD 
HETATM   12  O   UNL     1     -12.279  14.348  67.771  1.00  0.00    -0.314 OA 
BRANCH  10  13
HETATM   13  C   UNL     1     -10.220  13.239  67.300  1.00  0.00    -0.240 C  
BRANCH  13  14
HETATM   14  N   UNL     1     -10.714  12.151  66.418  1.00  0.00    -0.248 NA 
HETATM   15  C   UNL     1      -9.580  11.632  65.603  1.00  0.00    -0.229 C  
HETATM   16  C   UNL     1      -8.549  10.748  66.359  1.00  0.00    -0.158 C  
HETATM   17  N   UNL     1      -9.128   9.657  67.169  1.00  0.00    -0.134 NA 
HETATM   18  C   UNL     1     -10.242  10.180  67.979  1.00  0.00    -0.173 C  
HETATM   19  C   UNL     1     -11.273  11.012  67.184  1.00  0.00    -0.217 C  
BRANCH  17  20
HETATM   20  C   UNL     1      -9.530   8.496  66.364  1.00  0.00    -0.232 C  
BRANCH  20  21
HETATM   21  C   UNL     1     -10.353   7.487  67.177  1.00  0.00    -0.384 C  
BRANCH  21  22
HETATM   22  C   UNL     1      -9.515   6.605  68.119  1.00  0.00    -0.115 C  
HETATM   23  C   UNL     1      -9.640   5.080  67.863  1.00  0.00    -0.176 C  
HETATM   24  C   UNL     1      -8.971   4.231  68.946  1.00  0.00    -0.156 A  
HETATM   25  C   UNL     1      -9.164   4.736  66.454  1.00  0.00    -0.135 A  
HETATM   26  C   UNL     1      -7.826   4.941  66.074  1.00  0.00    -0.099 A  
HETATM   27  C   UNL     1      -9.489   2.955  69.235  1.00  0.00    -0.157 A  
HETATM   28  C   UNL     1      -8.937   2.174  70.253  1.00  0.00    -0.149 A  
HETATM   29  C   UNL     1      -7.427   4.750  64.751  1.00  0.00    -0.072 A  
HETATM   30  C   UNL     1      -7.859   2.660  70.981  1.00  0.00    -0.049 A  
HETATM   31  C   UNL     1      -8.358   4.345  63.806  1.00  0.00    -0.105 A  
HETATM   32  F   UNL     1      -7.979   4.191  62.531  1.00  0.00    -0.061 F  
HETATM   33  C   UNL     1      -9.681   4.111  64.160  1.00  0.00    -0.142 A  
HETATM   34  F   UNL     1      -7.339   1.919  71.969  1.00  0.00    -0.034 F  
HETATM   35  C   UNL     1      -7.315   3.904  70.703  1.00  0.00    -0.041 A  
HETATM   36  C   UNL     1      -7.865   4.685  69.686  1.00  0.00    -0.065 A  
HETATM   37  C   UNL     1     -10.085   4.300  65.483  1.00  0.00    -0.235 A  
ENDBRANCH  21  22
ENDBRANCH  20  21
ENDBRANCH  17  20
ENDBRANCH  13  14
ENDBRANCH  10  13
ENDBRANCH   8   9
TORSDOF 6
ENDMDL
MODEL       63
REMARK 921   NORMALIZED FREE ENERGY PREDICTED BY IDOCK:   -5.88 KCAL/MOL
REMARK 922        TOTAL FREE ENERGY PREDICTED BY IDOCK:   -9.21 KCAL/MOL
REMARK 923 INTER-LIGAND FREE ENERGY PREDICTED BY IDOCK:   -8.71 KCAL/MOL
REMARK 924 INTRA-LIGAND FREE ENERGY PREDICTED BY IDOCK:   -0.50 KCAL/MOL
REMARK 927      BINDING AFFINITY PREDICTED BY RF-SCORE:    0.00 PKD
ROOT
HETATM    1  C   UNL     1      -7.834   9.209  62.359  1.00  0.00    -0.121 C  
HETATM    2  C   UNL     1      -8.834   9.989  63.171  1.00  0.00    -0.244 A  
HETATM    3  C   UNL     1      -9.365  11.151  62.575  1.00  0.00    -0.271 A  
HETATM    4  C   UNL     1     -10.213  11.996  63.280  1.00  0.00    -0.398 A  
HETATM    5  C   UNL     1     -10.521  11.709  64.604  1.00  0.00    -0.354 A  
HETATM    6  C   UNL     1     -10.009  10.558  65.232  1.00  0.00    -0.364 A  
HETATM    7  C   UNL     1     -10.401  10.308  66.665  1.00  0.00    -0.283 C  
HETATM    8  C   UNL     1      -9.203   9.657  64.496  1.00  0.00    -0.218 A  
ENDROOT
BRANCH   8   9
HETATM    9  N   UNL     1      -8.771   8.461  65.136  1.00  0.00    -0.347 N  
HETATM   10  C   UNL     1      -7.557   8.344  65.796  1.00  0.00    -0.085 C  
HETATM   11  H   UNL     1      -9.385   7.647  65.107  1.00  0.00     0.000 HD 
HETATM   12  O   UNL     1      -6.724   9.242  65.902  1.00  0.00    -0.077 OA 
BRANCH  10  13
HETATM   13  C   UNL     1      -7.197   6.935  66.288  1.00  0.00    -0.071 C  
BRANCH  13  14
HETATM   14  N   UNL     1      -7.248   6.741  67.760  1.00  0.00    -0.088 NA 
HETATM   15  C   UNL     1      -8.358   7.561  68.321  1.00  0.00    -0.125 C  
HETATM   16  C   UNL     1      -9.795   7.030  68.055  1.00  0.00    -0.138 C  
HETATM   17  N   UNL     1     -10.009   5.605  68.375  1.00  0.00    -0.146 NA 
HETATM   18  C   UNL     1      -8.912   4.800  67.809  1.00  0.00    -0.111 C  
HETATM   19  C   UNL     1      -7.498   5.330  68.135  1.00  0.00    -0.076 C  
BRANCH  17  20
HETATM   20  C   UNL     1     -10.187   5.361  69.812  1.00  0.00    -0.278 C  
BRANCH  20  21
HETATM   21  C   UNL     1     -11.494   5.968  70.343  1.00  0.00    -0.234 C  
BRANCH  21  22
HETATM   22  C   UNL     1     -11.604   7.490  70.151  1.00  0.00    -0.046 C  
HETATM   23  C   UNL     1     -11.739   8.303  71.466  1.00  0.00    -0.337 C  
HETATM   24  C   UNL     1     -12.062   9.780  71.230  1.00  0.00    -0.470 A  
HETATM   25  C   UNL     1     -10.511   8.093  72.349  1.00  0.00    -0.389 A  
HETATM   26  C   UNL     1      -9.238   8.514  71.928  1.00  0.00    -0.326 A  
HETATM   27  C   UNL     1     -12.811  10.480  72.194  1.00  0.00    -0.283 A  
HETATM   28  C   UNL     1     -13.171  11.814  71.988  1.00  0.00    -0.460 A  
HETATM   29  C   UNL     1      -8.103   8.203  72.677  1.00  0.00    -0.215 A  
HETATM   30  C   UNL     1     -12.775  12.458  70.822  1.00  0.00    -0.123 A  
HETATM   31  C   UNL     1      -8.236   7.479  73.853  1.00  0.00    -0.165 A  
HETATM   32  F   UNL     1      -7.143   7.156  74.555  1.00  0.00    -0.097 F  
HETATM   33  C   UNL     1      -9.486   7.072  74.305  1.00  0.00    -0.267 A  
HETATM   34  F   UNL     1     -13.133  13.732  70.616  1.00  0.00    -0.330 F  
HETATM   35  C   UNL     1     -12.018  11.798  69.866  1.00  0.00    -0.405 A  
HETATM   36  C   UNL     1     -11.658  10.466  70.071  1.00  0.00    -0.378 A  
HETATM   37  C   UNL     1     -10.624   7.383  73.558  1.00  0.00    -0.388 A  
ENDBRANCH  21  22
ENDBRANCH  20  21
ENDBRANCH  17  20
ENDBRANCH  13  14
ENDBRANCH  10  13
ENDBRANCH   8   9
TORSDOF 6
ENDMDL
MODEL       64
REMARK 921   NORMALIZED FREE ENERGY PREDICTED BY IDOCK:   -5.88 KCAL/MOL
REMARK 922        TOTAL FREE ENERGY PREDICTED BY IDOCK:   -9.21 KCAL/MOL
REMARK 923 INTER-LIGAND FREE ENERGY PREDICTED BY IDOCK:   -9.33 KCAL/MOL
REMARK 924 INTRA-LIGAND FREE ENERGY PREDICTED BY IDOCK:    0.12 KCAL/MOL
REMARK 927      BINDING AFFINITY PREDICTED BY RF-SCORE:    0.00 PKD
ROOT
HETATM    1  C   UNL     1     -10.930   5.689  66.679  1.00  0.00    -0.173 C  
HETATM    2  C   UNL     1     -10.524   6.272  68.007  1.00  0.00    -0.278 A  
HETATM    3  C   UNL     1     -10.227   5.356  69.036  1.00  0.00    -0.291 A  
HETATM    4  C   UNL     1      -9.945   5.791  70.325  1.00  0.00    -0.258 A  
HETATM    5  C   UNL     1      -9.985   7.150  70.614  1.00  0.00    -0.195 A  
HETATM    6  C   UNL     1     -10.279   8.093  69.611  1.00  0.00    -0.205 A  
HETATM    7  C   UNL     1     -10.290   9.549  70.000  1.00  0.00    -0.284 C  
HETATM    8  C   UNL     1     -10.496   7.660  68.282  1.00  0.00    -0.174 A  
ENDROOT
BRANCH   8   9
HETATM    9  N   UNL     1     -10.708   8.646  67.277  1.00  0.00    -0.427 N  
HETATM   10  C   UNL     1      -9.797   8.916  66.268  1.00  0.00    -0.285 C  
HETATM   11  H   UNL     1     -11.576   9.181  67.300  1.00  0.00     0.000 HD 
HETATM   12  O   UNL     1      -8.715   8.350  66.126  1.00  0.00    -0.133 OA 
BRANCH  10  13
HETATM   13  C   UNL     1     -10.129  10.117  65.371  1.00  0.00    -0.272 C  
BRANCH  13  14
HETATM   14  N   UNL     1     -10.331  11.406  66.079  1.00  0.00    -0.242 NA 
HETATM   15  C   UNL     1      -9.569  12.474  65.373  1.00  0.00     0.000 C  
HETATM   16  C   UNL     1     -10.169  12.956  64.022  1.00  0.00    -0.231 C  
HETATM   17  N   UNL     1     -11.605  13.300  64.058  1.00  0.00    -0.406 NA 
HETATM   18  C   UNL     1     -12.352  12.235  64.749  1.00  0.00    -0.339 C  
HETATM   19  C   UNL     1     -11.754  11.817  66.111  1.00  0.00    -0.028 C  
BRANCH  17  20
HETATM   20  C   UNL     1     -11.863  14.623  64.642  1.00  0.00    -0.452 C  
BRANCH  20  21
HETATM   21  C   UNL     1     -10.894  14.946  65.789  1.00  0.00    -0.343 C  
BRANCH  21  22
HETATM   22  C   UNL     1     -11.575  15.126  67.156  1.00  0.00    -0.206 C  
HETATM   23  C   UNL     1     -11.041  14.193  68.275  1.00  0.00    -0.274 C  
HETATM   24  C   UNL     1     -11.881  14.245  69.553  1.00  0.00    -0.378 A  
HETATM   25  C   UNL     1      -9.558  14.453  68.523  1.00  0.00    -0.217 A  
HETATM   26  C   UNL     1      -9.113  15.695  69.006  1.00  0.00    -0.241 A  
HETATM   27  C   UNL     1     -11.961  13.100  70.369  1.00  0.00    -0.343 A  
HETATM   28  C   UNL     1     -12.760  13.094  71.514  1.00  0.00    -0.366 A  
HETATM   29  C   UNL     1      -7.749  15.972  69.105  1.00  0.00    -0.231 A  
HETATM   30  C   UNL     1     -13.475  14.235  71.857  1.00  0.00    -0.401 A  
HETATM   31  C   UNL     1      -6.826  15.007  68.732  1.00  0.00    -0.105 A  
HETATM   32  F   UNL     1      -5.518  15.285  68.800  1.00  0.00    -0.086 F  
HETATM   33  C   UNL     1      -7.238  13.761  68.275  1.00  0.00    -0.114 A  
HETATM   34  F   UNL     1     -14.254  14.225  72.947  1.00  0.00    -0.392 F  
HETATM   35  C   UNL     1     -13.396  15.383  71.084  1.00  0.00    -0.580 A  
HETATM   36  C   UNL     1     -12.598  15.391  69.940  1.00  0.00    -0.203 A  
HETATM   37  C   UNL     1      -8.602  13.480  68.175  1.00  0.00    -0.173 A  
ENDBRANCH  21  22
ENDBRANCH  20  21
ENDBRANCH  17  20
ENDBRANCH  13  14
ENDBRANCH  10  13
ENDBRANCH   8   9
TORSDOF 6
ENDMDL
MODEL       65
REMARK 921   NORMALIZED FREE ENERGY PREDICTED BY IDOCK:   -5.86 KCAL/MOL
REMARK 922        TOTAL FREE ENERGY PREDICTED BY IDOCK:   -9.19 KCAL/MOL
REMARK 923 INTER-LIGAND FREE ENERGY PREDICTED BY IDOCK:   -8.35 KCAL/MOL
REMARK 924 INTRA-LIGAND FREE ENERGY PREDICTED BY IDOCK:   -0.84 KCAL/MOL
REMARK 927      BINDING AFFINITY PREDICTED BY RF-SCORE:    0.00 PKD
ROOT
HETATM    1  C   UNL     1      -6.173   5.772  69.084  1.00  0.00    -0.036 C  
HETATM    2  C   UNL     1      -6.954   4.851  68.185  1.00  0.00    -0.061 A  
HETATM    3  C   UNL     1      -6.326   3.646  67.812  1.00  0.00    -0.037 A  
HETATM    4  C   UNL     1      -6.918   2.778  66.902  1.00  0.00    -0.049 A  
HETATM    5  C   UNL     1      -8.137   3.116  66.327  1.00  0.00    -0.089 A  
HETATM    6  C   UNL     1      -8.794   4.311  66.676  1.00  0.00    -0.116 A  
HETATM    7  C   UNL     1     -10.118   4.600  66.020  1.00  0.00    -0.287 C  
HETATM    8  C   UNL     1      -8.229   5.163  67.654  1.00  0.00    -0.099 A  
ENDROOT
BRANCH   8   9
HETATM    9  N   UNL     1      -8.959   6.322  68.044  1.00  0.00    -0.115 N  
HETATM   10  C   UNL     1      -9.762   6.375  69.173  1.00  0.00    -0.136 C  
HETATM   11  H   UNL     1      -8.887   7.156  67.462  1.00  0.00     0.000 HD 
HETATM   12  O   UNL     1      -9.938   5.443  69.955  1.00  0.00    -0.193 OA 
BRANCH  10  13
HETATM   13  C   UNL     1     -10.590   7.656  69.344  1.00  0.00    -0.215 C  
BRANCH  13  14
HETATM   14  N   UNL     1      -9.823   8.925  69.279  1.00  0.00    -0.172 NA 
HETATM   15  C   UNL     1     -10.215   9.669  68.049  1.00  0.00    -0.194 C  
HETATM   16  C   UNL     1     -11.614  10.347  68.083  1.00  0.00     0.026 C  
HETATM   17  N   UNL     1     -11.886  11.170  69.279  1.00  0.00    -0.327 NA 
HETATM   18  C   UNL     1     -11.504  10.424  70.491  1.00  0.00    -0.345 C  
HETATM   19  C   UNL     1     -10.089   9.807  70.440  1.00  0.00    -0.252 C  
BRANCH  17  20
HETATM   20  C   UNL     1     -11.249  12.492  69.222  1.00  0.00    -0.194 C  
BRANCH  20  21
HETATM   21  C   UNL     1     -12.223  13.583  68.753  1.00  0.00    -0.178 C  
BRANCH  21  22
HETATM   22  C   UNL     1     -11.539  14.868  68.257  1.00  0.00    -0.356 C  
HETATM   23  C   UNL     1     -10.362  14.638  67.273  1.00  0.00    -0.256 C  
HETATM   24  C   UNL     1      -9.571  15.913  66.972  1.00  0.00    -0.232 A  
HETATM   25  C   UNL     1     -10.852  13.927  66.014  1.00  0.00    -0.290 A  
HETATM   26  C   UNL     1     -11.778  14.540  65.152  1.00  0.00    -0.376 A  
HETATM   27  C   UNL     1      -8.201  15.815  66.665  1.00  0.00    -0.305 A  
HETATM   28  C   UNL     1      -7.436  16.961  66.437  1.00  0.00    -0.323 A  
HETATM   29  C   UNL     1     -12.321  13.837  64.077  1.00  0.00    -0.370 A  
HETATM   30  C   UNL     1      -8.038  18.211  66.505  1.00  0.00    -0.269 A  
HETATM   31  C   UNL     1     -11.936  12.523  63.853  1.00  0.00    -0.480 A  
HETATM   32  F   UNL     1     -12.481  11.841  62.838  1.00  0.00    -0.543 F  
HETATM   33  C   UNL     1     -11.004  11.901  64.675  1.00  0.00    -0.370 A  
HETATM   34  F   UNL     1      -7.302  19.312  66.303  1.00  0.00    -0.220 F  
HETATM   35  C   UNL     1      -9.391  18.336  66.783  1.00  0.00    -0.295 A  
HETATM   36  C   UNL     1     -10.156  17.192  67.011  1.00  0.00    -0.297 A  
HETATM   37  C   UNL     1     -10.457  12.602  65.751  1.00  0.00    -0.299 A  
ENDBRANCH  21  22
ENDBRANCH  20  21
ENDBRANCH  17  20
ENDBRANCH  13  14
ENDBRANCH  10  13
ENDBRANCH   8   9
TORSDOF 6
ENDMDL
MODEL       66
REMARK 921   NORMALIZED FREE ENERGY PREDICTED BY IDOCK:   -5.85 KCAL/MOL
REMARK 922        TOTAL FREE ENERGY PREDICTED BY IDOCK:   -9.17 KCAL/MOL
REMARK 923 INTER-LIGAND FREE ENERGY PREDICTED BY IDOCK:   -8.72 KCAL/MOL
REMARK 924 INTRA-LIGAND FREE ENERGY PREDICTED BY IDOCK:   -0.44 KCAL/MOL
REMARK 927      BINDING AFFINITY PREDICTED BY RF-SCORE:    0.00 PKD
ROOT
HETATM    1  C   UNL     1     -10.373  19.912  65.817  1.00  0.00    -0.512 C  
HETATM    2  C   UNL     1      -9.558  19.334  66.944  1.00  0.00    -0.398 A  
HETATM    3  C   UNL     1      -8.634  20.199  67.565  1.00  0.00    -0.404 A  
HETATM    4  C   UNL     1      -7.761  19.736  68.542  1.00  0.00    -0.324 A  
HETATM    5  C   UNL     1      -7.777  18.392  68.894  1.00  0.00    -0.233 A  
HETATM    6  C   UNL     1      -8.686  17.499  68.294  1.00  0.00    -0.270 A  
HETATM    7  C   UNL     1      -8.652  16.061  68.739  1.00  0.00    -0.223 C  
HETATM    8  C   UNL     1      -9.625  17.981  67.351  1.00  0.00    -0.272 A  
ENDROOT
BRANCH   8   9
HETATM    9  N   UNL     1     -10.584  17.069  66.827  1.00  0.00    -0.245 N  
HETATM   10  C   UNL     1     -10.344  16.256  65.729  1.00  0.00    -0.374 C  
HETATM   11  H   UNL     1     -11.495  17.010  67.281  1.00  0.00     0.000 HD 
HETATM   12  O   UNL     1      -9.295  16.229  65.089  1.00  0.00    -0.081 OA 
BRANCH  10  13
HETATM   13  C   UNL     1     -11.548  15.454  65.216  1.00  0.00    -0.068 C  
BRANCH  13  14
HETATM   14  N   UNL     1     -11.703  14.095  65.794  1.00  0.00    -0.348 NA 
HETATM   15  C   UNL     1     -12.634  13.305  64.941  1.00  0.00    -0.384 C  
HETATM   16  C   UNL     1     -12.060  12.818  63.580  1.00  0.00    -0.559 C  
HETATM   17  N   UNL     1     -10.749  12.143  63.655  1.00  0.00    -0.427 NA 
HETATM   18  C   UNL     1      -9.832  12.934  64.493  1.00  0.00    -0.007 C  
HETATM   19  C   UNL     1     -10.419  13.358  65.857  1.00  0.00    -0.287 C  
BRANCH  17  20
HETATM   20  C   UNL     1     -10.848  10.750  64.109  1.00  0.00     0.165 C  
BRANCH  20  21
HETATM   21  C   UNL     1      -9.712  10.375  65.074  1.00  0.00    -0.362 C  
BRANCH  21  22
HETATM   22  C   UNL     1     -10.027   9.172  65.978  1.00  0.00    -0.293 C  
HETATM   23  C   UNL     1      -9.474   9.285  67.424  1.00  0.00    -0.165 C  
HETATM   24  C   UNL     1      -9.615   7.989  68.225  1.00  0.00    -0.156 A  
HETATM   25  C   UNL     1     -10.079  10.495  68.132  1.00  0.00    -0.180 A  
HETATM   26  C   UNL     1     -11.458  10.566  68.389  1.00  0.00    -0.285 A  
HETATM   27  C   UNL     1      -8.671   7.696  69.228  1.00  0.00    -0.136 A  
HETATM   28  C   UNL     1      -8.738   6.498  69.943  1.00  0.00    -0.140 A  
HETATM   29  C   UNL     1     -12.024  11.727  68.916  1.00  0.00    -0.332 A  
HETATM   30  C   UNL     1      -9.753   5.591  69.667  1.00  0.00    -0.172 A  
HETATM   31  C   UNL     1     -11.213  12.818  69.196  1.00  0.00    -0.237 A  
HETATM   32  F   UNL     1     -11.762  13.941  69.674  1.00  0.00    -0.284 F  
HETATM   33  C   UNL     1      -9.842  12.765  68.974  1.00  0.00     0.285 A  
HETATM   34  F   UNL     1      -9.808   4.435  70.340  1.00  0.00    -0.237 F  
HETATM   35  C   UNL     1     -10.708   5.864  68.700  1.00  0.00    -0.339 A  
HETATM   36  C   UNL     1     -10.643   7.061  67.986  1.00  0.00    -0.260 A  
HETATM   37  C   UNL     1      -9.273  11.604  68.449  1.00  0.00    -0.182 A  
ENDBRANCH  21  22
ENDBRANCH  20  21
ENDBRANCH  17  20
ENDBRANCH  13  14
ENDBRANCH  10  13
ENDBRANCH   8   9
TORSDOF 6
ENDMDL
MODEL       67
REMARK 921   NORMALIZED FREE ENERGY PREDICTED BY IDOCK:   -5.83 KCAL/MOL
REMARK 922        TOTAL FREE ENERGY PREDICTED BY IDOCK:   -9.14 KCAL/MOL
REMARK 923 INTER-LIGAND FREE ENERGY PREDICTED BY IDOCK:   -7.96 KCAL/MOL
REMARK 924 INTRA-LIGAND FREE ENERGY PREDICTED BY IDOCK:   -1.18 KCAL/MOL
REMARK 927      BINDING AFFINITY PREDICTED BY RF-SCORE:    0.00 PKD
ROOT
HETATM    1  C   UNL     1     -10.247   5.256  67.491  1.00  0.00    -0.229 C  
HETATM    2  C   UNL     1      -9.211   4.181  67.691  1.00  0.00    -0.184 A  
HETATM    3  C   UNL     1      -9.009   3.289  66.619  1.00  0.00    -0.165 A  
HETATM    4  C   UNL     1      -8.153   2.201  66.742  1.00  0.00    -0.078 A  
HETATM    5  C   UNL     1      -7.508   1.970  67.950  1.00  0.00    -0.055 A  
HETATM    6  C   UNL     1      -7.687   2.840  69.043  1.00  0.00    -0.048 A  
HETATM    7  C   UNL     1      -6.942   2.530  70.315  1.00  0.00    -0.033 C  
HETATM    8  C   UNL     1      -8.500   3.989  68.900  1.00  0.00    -0.078 A  
ENDROOT
BRANCH   8   9
HETATM    9  N   UNL     1      -8.594   4.891  69.997  1.00  0.00    -0.089 N  
HETATM   10  C   UNL     1      -9.419   4.681  71.091  1.00  0.00    -0.156 C  
HETATM   11  H   UNL     1      -8.024   5.737  69.977  1.00  0.00     0.000 HD 
HETATM   12  O   UNL     1     -10.157   3.709  71.239  1.00  0.00    -0.126 OA 
BRANCH  10  13
HETATM   13  C   UNL     1      -9.502   5.837  72.098  1.00  0.00    -0.149 C  
BRANCH  13  14
HETATM   14  N   UNL     1     -10.818   6.519  72.179  1.00  0.00    -0.224 NA 
HETATM   15  C   UNL     1     -10.624   7.889  72.730  1.00  0.00    -0.353 C  
HETATM   16  C   UNL     1      -9.984   8.925  71.763  1.00  0.00    -0.327 C  
HETATM   17  N   UNL     1     -10.603   9.002  70.424  1.00  0.00    -0.207 NA 
HETATM   18  C   UNL     1     -10.784   7.644  69.883  1.00  0.00    -0.249 C  
HETATM   19  C   UNL     1     -11.467   6.656  70.854  1.00  0.00    -0.347 C  
BRANCH  17  20
HETATM   20  C   UNL     1     -11.855   9.770  70.415  1.00  0.00    -0.193 C  
BRANCH  20  21
HETATM   21  C   UNL     1     -11.603  11.285  70.385  1.00  0.00    -0.319 C  
BRANCH  21  22
HETATM   22  C   UNL     1     -11.929  11.950  69.038  1.00  0.00    -0.321 C  
HETATM   23  C   UNL     1     -10.690  12.354  68.196  1.00  0.00    -0.243 C  
HETATM   24  C   UNL     1     -11.043  13.202  66.972  1.00  0.00    -0.305 A  
HETATM   25  C   UNL     1      -9.858  11.121  67.849  1.00  0.00    -0.187 A  
HETATM   26  C   UNL     1     -10.384  10.099  67.040  1.00  0.00    -0.303 A  
HETATM   27  C   UNL     1     -10.109  14.141  66.495  1.00  0.00    -0.283 A  
HETATM   28  C   UNL     1     -10.418  14.969  65.414  1.00  0.00    -0.406 A  
HETATM   29  C   UNL     1      -9.671   8.918  66.835  1.00  0.00    -0.263 A  
HETATM   30  C   UNL     1     -11.658  14.857  64.797  1.00  0.00    -0.410 A  
HETATM   31  C   UNL     1      -8.428   8.757  67.429  1.00  0.00    -0.116 A  
HETATM   32  F   UNL     1      -7.758   7.610  67.255  1.00  0.00    -0.102 F  
HETATM   33  C   UNL     1      -7.874   9.761  68.213  1.00  0.00    -0.089 A  
HETATM   34  F   UNL     1     -11.962  15.662  63.771  1.00  0.00    -0.247 F  
HETATM   35  C   UNL     1     -12.588  13.925  65.232  1.00  0.00    -0.508 A  
HETATM   36  C   UNL     1     -12.280  13.097  66.312  1.00  0.00    -0.423 A  
HETATM   37  C   UNL     1      -8.584  10.945  68.419  1.00  0.00    -0.146 A  
ENDBRANCH  21  22
ENDBRANCH  20  21
ENDBRANCH  17  20
ENDBRANCH  13  14
ENDBRANCH  10  13
ENDBRANCH   8   9
TORSDOF 6
ENDMDL
MODEL       68
REMARK 921   NORMALIZED FREE ENERGY PREDICTED BY IDOCK:   -5.81 KCAL/MOL
REMARK 922        TOTAL FREE ENERGY PREDICTED BY IDOCK:   -9.11 KCAL/MOL
REMARK 923 INTER-LIGAND FREE ENERGY PREDICTED BY IDOCK:   -8.55 KCAL/MOL
REMARK 924 INTRA-LIGAND FREE ENERGY PREDICTED BY IDOCK:   -0.56 KCAL/MOL
REMARK 927      BINDING AFFINITY PREDICTED BY RF-SCORE:    0.00 PKD
ROOT
HETATM    1  C   UNL     1     -13.139  12.108  71.238  1.00  0.00    -0.210 C  
HETATM    2  C   UNL     1     -12.615  13.513  71.379  1.00  0.00    -0.398 A  
HETATM    3  C   UNL     1     -12.549  14.035  72.687  1.00  0.00    -0.221 A  
HETATM    4  C   UNL     1     -12.181  15.356  72.915  1.00  0.00    -0.529 A  
HETATM    5  C   UNL     1     -11.901  16.185  71.837  1.00  0.00    -0.605 A  
HETATM    6  C   UNL     1     -11.958  15.699  70.517  1.00  0.00    -0.417 A  
HETATM    7  C   UNL     1     -11.628  16.656  69.402  1.00  0.00     0.272 C  
HETATM    8  C   UNL     1     -12.262  14.336  70.283  1.00  0.00    -0.342 A  
ENDROOT
BRANCH   8   9
HETATM    9  N   UNL     1     -12.230  13.857  68.943  1.00  0.00    -0.474 N  
HETATM   10  C   UNL     1     -11.056  13.607  68.250  1.00  0.00    -0.256 C  
HETATM   11  H   UNL     1     -13.117  13.689  68.468  1.00  0.00     0.000 HD 
HETATM   12  O   UNL     1      -9.924  13.769  68.701  1.00  0.00    -0.225 OA 
BRANCH  10  13
HETATM   13  C   UNL     1     -11.219  13.244  66.767  1.00  0.00    -0.304 C  
BRANCH  13  14
HETATM   14  N   UNL     1     -11.598  11.834  66.494  1.00  0.00    -0.511 NA 
HETATM   15  C   UNL     1     -11.132  11.460  65.129  1.00  0.00    -0.133 C  
HETATM   16  C   UNL     1      -9.603  11.232  64.973  1.00  0.00    -0.233 C  
HETATM   17  N   UNL     1      -8.994  10.335  65.977  1.00  0.00    -0.149 NA 
HETATM   18  C   UNL     1      -9.453  10.717  67.324  1.00  0.00    -0.158 C  
HETATM   19  C   UNL     1     -10.983  10.887  67.452  1.00  0.00    -0.293 C  
BRANCH  17  20
HETATM   20  C   UNL     1      -9.234   8.914  65.695  1.00  0.00    -0.204 C  
BRANCH  20  21
HETATM   21  C   UNL     1      -8.160   8.012  66.322  1.00  0.00    -0.112 C  
BRANCH  21  22
HETATM   22  C   UNL     1      -8.422   7.650  67.793  1.00  0.00    -0.122 C  
HETATM   23  C   UNL     1      -9.740   6.871  68.045  1.00  0.00    -0.138 C  
HETATM   24  C   UNL     1     -10.075   6.718  69.530  1.00  0.00    -0.192 A  
HETATM   25  C   UNL     1      -9.723   5.540  67.297  1.00  0.00    -0.152 A  
HETATM   26  C   UNL     1      -8.783   4.545  67.614  1.00  0.00    -0.111 A  
HETATM   27  C   UNL     1     -11.424   6.640  69.925  1.00  0.00    -0.414 A  
HETATM   28  C   UNL     1     -11.769   6.555  71.276  1.00  0.00    -0.386 A  
HETATM   29  C   UNL     1      -8.685   3.387  66.842  1.00  0.00    -0.130 A  
HETATM   30  C   UNL     1     -10.767   6.536  72.239  1.00  0.00    -0.223 A  
HETATM   31  C   UNL     1      -9.532   3.215  65.756  1.00  0.00    -0.052 A  
HETATM   32  F   UNL     1      -9.417   2.117  64.999  1.00  0.00    -0.138 F  
HETATM   33  C   UNL     1     -10.487   4.172  65.435  1.00  0.00    -0.128 A  
HETATM   34  F   UNL     1     -11.097   6.470  73.535  1.00  0.00    -0.250 F  
HETATM   35  C   UNL     1      -9.430   6.589  71.876  1.00  0.00    -0.153 A  
HETATM   36  C   UNL     1      -9.085   6.675  70.528  1.00  0.00    -0.152 A  
HETATM   37  C   UNL     1     -10.588   5.331  66.206  1.00  0.00    -0.308 A  
ENDBRANCH  21  22
ENDBRANCH  20  21
ENDBRANCH  17  20
ENDBRANCH  13  14
ENDBRANCH  10  13
ENDBRANCH   8   9
TORSDOF 6
ENDMDL
MODEL       69
REMARK 921   NORMALIZED FREE ENERGY PREDICTED BY IDOCK:   -5.80 KCAL/MOL
REMARK 922        TOTAL FREE ENERGY PREDICTED BY IDOCK:   -9.10 KCAL/MOL
REMARK 923 INTER-LIGAND FREE ENERGY PREDICTED BY IDOCK:   -8.10 KCAL/MOL
REMARK 924 INTRA-LIGAND FREE ENERGY PREDICTED BY IDOCK:   -1.01 KCAL/MOL
REMARK 927      BINDING AFFINITY PREDICTED BY RF-SCORE:    0.00 PKD
ROOT
HETATM    1  C   UNL     1      -8.983   4.581  64.563  1.00  0.00    -0.152 C  
HETATM    2  C   UNL     1      -9.052   4.026  65.961  1.00  0.00    -0.144 A  
HETATM    3  C   UNL     1      -9.001   2.623  66.089  1.00  0.00    -0.139 A  
HETATM    4  C   UNL     1      -9.163   2.009  67.324  1.00  0.00    -0.115 A  
HETATM    5  C   UNL     1      -9.408   2.786  68.450  1.00  0.00    -0.252 A  
HETATM    6  C   UNL     1      -9.466   4.189  68.360  1.00  0.00    -0.212 A  
HETATM    7  C   UNL     1      -9.722   4.963  69.626  1.00  0.00    -0.266 C  
HETATM    8  C   UNL     1      -9.231   4.823  67.117  1.00  0.00    -0.127 A  
ENDROOT
BRANCH   8   9
HETATM    9  N   UNL     1      -9.215   6.246  67.077  1.00  0.00    -0.121 N  
HETATM   10  C   UNL     1     -10.360   7.021  66.971  1.00  0.00    -0.290 C  
HETATM   11  H   UNL     1      -8.314   6.721  67.129  1.00  0.00     0.000 HD 
HETATM   12  O   UNL     1     -11.504   6.578  66.897  1.00  0.00    -0.212 OA 
BRANCH  10  13
HETATM   13  C   UNL     1     -10.133   8.528  66.786  1.00  0.00    -0.299 C  
BRANCH  13  14
HETATM   14  N   UNL     1      -8.780   9.019  67.151  1.00  0.00    -0.116 NA 
HETATM   15  C   UNL     1      -8.459  10.218  66.328  1.00  0.00    -0.135 C  
HETATM   16  C   UNL     1      -9.199  11.528  66.719  1.00  0.00    -0.181 C  
HETATM   17  N   UNL     1      -9.151  11.874  68.155  1.00  0.00    -0.185 NA 
HETATM   18  C   UNL     1      -9.478  10.685  68.961  1.00  0.00    -0.191 C  
HETATM   19  C   UNL     1      -8.688   9.415  68.576  1.00  0.00    -0.128 C  
BRANCH  17  20
HETATM   20  C   UNL     1      -7.873  12.477  68.556  1.00  0.00    -0.108 C  
BRANCH  20  21
HETATM   21  C   UNL     1      -7.318  13.423  67.480  1.00  0.00    -0.165 C  
BRANCH  21  22
HETATM   22  C   UNL     1      -7.324  14.907  67.883  1.00  0.00    -0.159 C  
HETATM   23  C   UNL     1      -7.905  15.868  66.813  1.00  0.00    -0.273 C  
HETATM   24  C   UNL     1      -7.698  17.345  67.154  1.00  0.00    -0.229 A  
HETATM   25  C   UNL     1      -9.363  15.521  66.521  1.00  0.00    -0.311 A  
HETATM   26  C   UNL     1     -10.347  15.638  67.518  1.00  0.00    -0.277 A  
HETATM   27  C   UNL     1      -7.564  18.278  66.108  1.00  0.00    -0.276 A  
HETATM   28  C   UNL     1      -7.320  19.626  66.382  1.00  0.00    -0.266 A  
HETATM   29  C   UNL     1     -11.649  15.195  67.286  1.00  0.00    -0.231 A  
HETATM   30  C   UNL     1      -7.220  20.051  67.701  1.00  0.00    -0.281 A  
HETATM   31  C   UNL     1     -11.976  14.643  66.056  1.00  0.00    -0.242 A  
HETATM   32  F   UNL     1     -13.219  14.192  65.846  1.00  0.00    -0.515 F  
HETATM   33  C   UNL     1     -11.029  14.538  65.045  1.00  0.00    -0.408 A  
HETATM   34  F   UNL     1      -6.970  21.340  67.963  1.00  0.00    -0.299 F  
HETATM   35  C   UNL     1      -7.370  19.157  68.750  1.00  0.00    -0.372 A  
HETATM   36  C   UNL     1      -7.613  17.811  68.478  1.00  0.00    -0.276 A  
HETATM   37  C   UNL     1      -9.725  14.981  65.272  1.00  0.00    -0.144 A  
ENDBRANCH  21  22
ENDBRANCH  20  21
ENDBRANCH  17  20
ENDBRANCH  13  14
ENDBRANCH  10  13
ENDBRANCH   8   9
TORSDOF 6
ENDMDL
MODEL       70
REMARK 921   NORMALIZED FREE ENERGY PREDICTED BY IDOCK:   -5.76 KCAL/MOL
REMARK 922        TOTAL FREE ENERGY PREDICTED BY IDOCK:   -9.05 KCAL/MOL
REMARK 923 INTER-LIGAND FREE ENERGY PREDICTED BY IDOCK:   -7.77 KCAL/MOL
REMARK 924 INTRA-LIGAND FREE ENERGY PREDICTED BY IDOCK:   -1.28 KCAL/MOL
REMARK 927      BINDING AFFINITY PREDICTED BY RF-SCORE:    0.00 PKD
ROOT
HETATM    1  C   UNL     1     -10.124  19.828  66.083  1.00  0.00    -0.600 C  
HETATM    2  C   UNL     1      -8.924  19.470  66.920  1.00  0.00    -0.379 A  
HETATM    3  C   UNL     1      -8.117  20.538  67.361  1.00  0.00    -0.345 A  
HETATM    4  C   UNL     1      -6.932  20.306  68.048  1.00  0.00    -0.327 A  
HETATM    5  C   UNL     1      -6.519  19.001  68.281  1.00  0.00    -0.253 A  
HETATM    6  C   UNL     1      -7.299  17.909  67.854  1.00  0.00    -0.222 A  
HETATM    7  C   UNL     1      -6.790  16.524  68.156  1.00  0.00    -0.142 C  
HETATM    8  C   UNL     1      -8.541  18.140  67.218  1.00  0.00    -0.240 A  
ENDROOT
BRANCH   8   9
HETATM    9  N   UNL     1      -9.344  17.015  66.874  1.00  0.00    -0.243 N  
HETATM   10  C   UNL     1     -10.405  16.570  67.647  1.00  0.00    -0.291 C  
HETATM   11  H   UNL     1      -9.126  16.511  66.015  1.00  0.00     0.000 HD 
HETATM   12  O   UNL     1     -10.770  17.082  68.703  1.00  0.00    -0.345 OA 
BRANCH  10  13
HETATM   13  C   UNL     1     -11.053  15.253  67.198  1.00  0.00    -0.323 C  
BRANCH  13  14
HETATM   14  N   UNL     1     -10.150  14.074  67.174  1.00  0.00    -0.256 NA 
HETATM   15  C   UNL     1     -10.262  13.349  68.471  1.00  0.00    -0.223 C  
HETATM   16  C   UNL     1     -11.566  12.528  68.679  1.00  0.00    -0.314 C  
HETATM   17  N   UNL     1     -11.929  11.629  67.566  1.00  0.00    -0.621 NA 
HETATM   18  C   UNL     1     -11.825  12.356  66.288  1.00  0.00    -0.364 C  
HETATM   19  C   UNL     1     -10.496  13.119  66.095  1.00  0.00    -0.281 C  
BRANCH  17  20
HETATM   20  C   UNL     1     -11.150  10.384  67.557  1.00  0.00    -0.267 C  
BRANCH  20  21
HETATM   21  C   UNL     1     -10.720   9.963  68.970  1.00  0.00    -0.244 C  
BRANCH  21  22
HETATM   22  C   UNL     1      -9.828   8.710  69.009  1.00  0.00    -0.184 C  
HETATM   23  C   UNL     1      -8.606   8.753  68.054  1.00  0.00    -0.134 C  
HETATM   24  C   UNL     1      -7.870   7.415  67.959  1.00  0.00    -0.118 A  
HETATM   25  C   UNL     1      -7.687   9.916  68.418  1.00  0.00    -0.084 A  
HETATM   26  C   UNL     1      -7.031   9.957  69.661  1.00  0.00    -0.086 A  
HETATM   27  C   UNL     1      -7.206   7.081  66.763  1.00  0.00    -0.076 A  
HETATM   28  C   UNL     1      -6.569   5.846  66.621  1.00  0.00    -0.056 A  
HETATM   29  C   UNL     1      -6.300  11.082  70.041  1.00  0.00    -0.146 A  
HETATM   30  C   UNL     1      -6.583   4.942  67.676  1.00  0.00    -0.050 A  
HETATM   31  C   UNL     1      -6.213  12.166  69.179  1.00  0.00    -0.088 A  
HETATM   32  F   UNL     1      -5.534  13.256  69.558  1.00  0.00    -0.075 F  
HETATM   33  C   UNL     1      -6.830  12.141  67.934  1.00  0.00    -0.095 A  
HETATM   34  F   UNL     1      -5.986   3.752  67.536  1.00  0.00    -0.021 F  
HETATM   35  C   UNL     1      -7.209   5.255  68.873  1.00  0.00    -0.062 A  
HETATM   36  C   UNL     1      -7.845   6.488  69.016  1.00  0.00    -0.110 A  
HETATM   37  C   UNL     1      -7.562  11.017  67.550  1.00  0.00    -0.106 A  
ENDBRANCH  21  22
ENDBRANCH  20  21
ENDBRANCH  17  20
ENDBRANCH  13  14
ENDBRANCH  10  13
ENDBRANCH   8   9
TORSDOF 6
ENDMDL
MODEL       71
REMARK 921   NORMALIZED FREE ENERGY PREDICTED BY IDOCK:   -5.75 KCAL/MOL
REMARK 922        TOTAL FREE ENERGY PREDICTED BY IDOCK:   -9.04 KCAL/MOL
REMARK 923 INTER-LIGAND FREE ENERGY PREDICTED BY IDOCK:   -8.16 KCAL/MOL
REMARK 924 INTRA-LIGAND FREE ENERGY PREDICTED BY IDOCK:   -0.88 KCAL/MOL
REMARK 927      BINDING AFFINITY PREDICTED BY RF-SCORE:    0.00 PKD
ROOT
HETATM    1  C   UNL     1      -6.323   6.749  63.936  1.00  0.00    -0.035 C  
HETATM    2  C   UNL     1      -7.053   5.445  63.754  1.00  0.00    -0.048 A  
HETATM    3  C   UNL     1      -6.390   4.446  63.014  1.00  0.00    -0.026 A  
HETATM    4  C   UNL     1      -7.019   3.247  62.701  1.00  0.00    -0.032 A  
HETATM    5  C   UNL     1      -8.334   3.040  63.097  1.00  0.00    -0.085 A  
HETATM    6  C   UNL     1      -9.029   4.016  63.838  1.00  0.00    -0.125 A  
HETATM    7  C   UNL     1     -10.447   3.711  64.243  1.00  0.00    -0.224 C  
HETATM    8  C   UNL     1      -8.368   5.207  64.221  1.00  0.00    -0.137 A  
ENDROOT
BRANCH   8   9
HETATM    9  N   UNL     1      -9.072   6.136  65.039  1.00  0.00    -0.328 N  
HETATM   10  C   UNL     1      -8.949   6.183  66.419  1.00  0.00    -0.150 C  
HETATM   11  H   UNL     1      -9.699   6.801  64.587  1.00  0.00     0.000 HD 
HETATM   12  O   UNL     1      -8.234   5.440  67.088  1.00  0.00    -0.105 OA 
BRANCH  10  13
HETATM   13  C   UNL     1      -9.901   7.146  67.143  1.00  0.00    -0.181 C  
BRANCH  13  14
HETATM   14  N   UNL     1      -9.248   8.149  68.021  1.00  0.00    -0.133 NA 
HETATM   15  C   UNL     1      -8.346   9.003  67.199  1.00  0.00    -0.110 C  
HETATM   16  C   UNL     1      -9.046  10.046  66.283  1.00  0.00    -0.151 C  
HETATM   17  N   UNL     1     -10.065  10.883  66.948  1.00  0.00    -0.205 NA 
HETATM   18  C   UNL     1     -10.958  10.031  67.752  1.00  0.00    -0.249 C  
HETATM   19  C   UNL     1     -10.227   9.042  68.685  1.00  0.00    -0.205 C  
BRANCH  17  20
HETATM   20  C   UNL     1      -9.482  11.973  67.741  1.00  0.00    -0.190 C  
BRANCH  20  21
HETATM   21  C   UNL     1     -10.077  13.340  67.369  1.00  0.00    -0.233 C  
BRANCH  21  22
HETATM   22  C   UNL     1     -11.106  13.874  68.380  1.00  0.00    -0.278 C  
HETATM   23  C   UNL     1     -10.526  14.834  69.452  1.00  0.00    -0.210 C  
HETATM   24  C   UNL     1     -11.525  15.172  70.561  1.00  0.00    -0.342 A  
HETATM   25  C   UNL     1      -9.927  16.072  68.789  1.00  0.00    -0.224 A  
HETATM   26  C   UNL     1     -10.736  16.967  68.067  1.00  0.00    -0.365 A  
HETATM   27  C   UNL     1     -11.044  15.458  71.853  1.00  0.00    -0.241 A  
HETATM   28  C   UNL     1     -11.929  15.718  72.902  1.00  0.00    -0.599 A  
HETATM   29  C   UNL     1     -10.166  18.022  67.354  1.00  0.00    -0.370 A  
HETATM   30  C   UNL     1     -13.297  15.704  72.664  1.00  0.00    -0.536 A  
HETATM   31  C   UNL     1      -8.789  18.193  67.367  1.00  0.00    -0.256 A  
HETATM   32  F   UNL     1      -8.242  19.189  66.658  1.00  0.00    -0.252 F  
HETATM   33  C   UNL     1      -7.969  17.337  68.092  1.00  0.00    -0.223 A  
HETATM   34  F   UNL     1     -14.147  15.937  73.673  1.00  0.00    -0.203 F  
HETATM   35  C   UNL     1     -13.797  15.447  71.396  1.00  0.00    -0.577 A  
HETATM   36  C   UNL     1     -12.914  15.188  70.348  1.00  0.00    -0.296 A  
HETATM   37  C   UNL     1      -8.536  16.281  68.808  1.00  0.00    -0.240 A  
ENDBRANCH  21  22
ENDBRANCH  20  21
ENDBRANCH  17  20
ENDBRANCH  13  14
ENDBRANCH  10  13
ENDBRANCH   8   9
TORSDOF 6
ENDMDL
MODEL       72
REMARK 921   NORMALIZED FREE ENERGY PREDICTED BY IDOCK:   -5.75 KCAL/MOL
REMARK 922        TOTAL FREE ENERGY PREDICTED BY IDOCK:   -9.04 KCAL/MOL
REMARK 923 INTER-LIGAND FREE ENERGY PREDICTED BY IDOCK:   -8.06 KCAL/MOL
REMARK 924 INTRA-LIGAND FREE ENERGY PREDICTED BY IDOCK:   -0.98 KCAL/MOL
REMARK 927      BINDING AFFINITY PREDICTED BY RF-SCORE:    0.00 PKD
ROOT
HETATM    1  C   UNL     1      -7.547   7.075  71.431  1.00  0.00    -0.086 C  
HETATM    2  C   UNL     1      -7.809   5.694  71.971  1.00  0.00    -0.106 A  
HETATM    3  C   UNL     1      -6.706   4.817  72.028  1.00  0.00    -0.047 A  
HETATM    4  C   UNL     1      -6.863   3.491  72.410  1.00  0.00    -0.033 A  
HETATM    5  C   UNL     1      -8.130   3.010  72.714  1.00  0.00    -0.067 A  
HETATM    6  C   UNL     1      -9.254   3.856  72.667  1.00  0.00    -0.140 A  
HETATM    7  C   UNL     1     -10.593   3.265  73.024  1.00  0.00    -0.241 C  
HETATM    8  C   UNL     1      -9.090   5.225  72.348  1.00  0.00    -0.134 A  
ENDROOT
BRANCH   8   9
HETATM    9  N   UNL     1     -10.234   6.071  72.391  1.00  0.00    -0.187 N  
HETATM   10  C   UNL     1     -11.066   6.286  71.303  1.00  0.00    -0.289 C  
HETATM   11  H   UNL     1     -10.453   6.544  73.268  1.00  0.00     0.000 HD 
HETATM   12  O   UNL     1     -10.915   5.784  70.192  1.00  0.00    -0.326 OA 
BRANCH  10  13
HETATM   13  C   UNL     1     -12.156   7.349  71.495  1.00  0.00    -0.327 C  
BRANCH  13  14
HETATM   14  N   UNL     1     -11.691   8.648  72.045  1.00  0.00    -0.345 NA 
HETATM   15  C   UNL     1     -10.628   9.199  71.159  1.00  0.00    -0.309 C  
HETATM   16  C   UNL     1     -11.110   9.781  69.800  1.00  0.00    -0.237 C  
HETATM   17  N   UNL     1     -12.237  10.732  69.888  1.00  0.00    -0.328 NA 
HETATM   18  C   UNL     1     -13.288  10.176  70.758  1.00  0.00    -0.130 C  
HETATM   19  C   UNL     1     -12.778   9.653  72.119  1.00  0.00    -0.344 C  
BRANCH  17  20
HETATM   20  C   UNL     1     -11.822  12.075  70.313  1.00  0.00    -0.270 C  
BRANCH  20  21
HETATM   21  C   UNL     1     -12.151  13.142  69.259  1.00  0.00    -0.270 C  
BRANCH  21  22
HETATM   22  C   UNL     1     -11.080  14.238  69.117  1.00  0.00    -0.291 C  
HETATM   23  C   UNL     1      -9.738  13.758  68.502  1.00  0.00    -0.193 C  
HETATM   24  C   UNL     1      -8.632  14.813  68.575  1.00  0.00    -0.168 A  
HETATM   25  C   UNL     1      -9.961  13.223  67.090  1.00  0.00    -0.238 A  
HETATM   26  C   UNL     1     -10.417  14.065  66.061  1.00  0.00    -0.307 A  
HETATM   27  C   UNL     1      -7.292  14.395  68.674  1.00  0.00    -0.123 A  
HETATM   28  C   UNL     1      -6.260  15.329  68.797  1.00  0.00    -0.090 A  
HETATM   29  C   UNL     1     -10.744  13.545  64.809  1.00  0.00    -0.412 A  
HETATM   30  C   UNL     1      -6.562  16.685  68.811  1.00  0.00    -0.169 A  
HETATM   31  C   UNL     1     -10.610  12.184  64.577  1.00  0.00    -0.310 A  
HETATM   32  F   UNL     1     -10.952  11.682  63.384  1.00  0.00    -0.408 F  
HETATM   33  C   UNL     1     -10.138  11.332  65.569  1.00  0.00    -0.306 A  
HETATM   34  F   UNL     1      -5.575  17.580  68.945  1.00  0.00    -0.150 F  
HETATM   35  C   UNL     1      -7.871  17.124  68.693  1.00  0.00    -0.265 A  
HETATM   36  C   UNL     1      -8.902  16.193  68.570  1.00  0.00    -0.200 A  
HETATM   37  C   UNL     1      -9.808  11.850  66.822  1.00  0.00    -0.214 A  
ENDBRANCH  21  22
ENDBRANCH  20  21
ENDBRANCH  17  20
ENDBRANCH  13  14
ENDBRANCH  10  13
ENDBRANCH   8   9
TORSDOF 6
ENDMDL
MODEL       73
REMARK 921   NORMALIZED FREE ENERGY PREDICTED BY IDOCK:   -5.72 KCAL/MOL
REMARK 922        TOTAL FREE ENERGY PREDICTED BY IDOCK:   -9.00 KCAL/MOL
REMARK 923 INTER-LIGAND FREE ENERGY PREDICTED BY IDOCK:   -8.17 KCAL/MOL
REMARK 924 INTRA-LIGAND FREE ENERGY PREDICTED BY IDOCK:   -0.83 KCAL/MOL
REMARK 927      BINDING AFFINITY PREDICTED BY RF-SCORE:    0.00 PKD
ROOT
HETATM    1  C   UNL     1      -7.390  15.880  68.509  1.00  0.00    -0.127 C  
HETATM    2  C   UNL     1      -7.504  17.365  68.286  1.00  0.00    -0.227 A  
HETATM    3  C   UNL     1      -6.694  18.190  69.092  1.00  0.00    -0.252 A  
HETATM    4  C   UNL     1      -6.800  19.575  69.038  1.00  0.00    -0.384 A  
HETATM    5  C   UNL     1      -7.741  20.157  68.198  1.00  0.00    -0.223 A  
HETATM    6  C   UNL     1      -8.568  19.365  67.379  1.00  0.00    -0.333 A  
HETATM    7  C   UNL     1      -9.553  20.071  66.486  1.00  0.00    -0.539 C  
HETATM    8  C   UNL     1      -8.413  17.958  67.378  1.00  0.00    -0.235 A  
ENDROOT
BRANCH   8   9
HETATM    9  N   UNL     1      -9.207  17.192  66.478  1.00  0.00    -0.256 N  
HETATM   10  C   UNL     1     -10.412  16.606  66.832  1.00  0.00    -0.271 C  
HETATM   11  H   UNL     1      -8.871  17.068  65.523  1.00  0.00     0.000 HD 
HETATM   12  O   UNL     1     -10.928  16.674  67.946  1.00  0.00    -0.342 OA 
BRANCH  10  13
HETATM   13  C   UNL     1     -11.047  15.691  65.775  1.00  0.00    -0.173 C  
BRANCH  13  14
HETATM   14  N   UNL     1     -10.220  14.529  65.359  1.00  0.00    -0.366 NA 
HETATM   15  C   UNL     1      -9.758  13.801  66.573  1.00  0.00    -0.293 C  
HETATM   16  C   UNL     1     -10.835  12.956  67.310  1.00  0.00    -0.255 C  
HETATM   17  N   UNL     1     -11.623  12.051  66.449  1.00  0.00    -0.500 NA 
HETATM   18  C   UNL     1     -12.084  12.781  65.255  1.00  0.00    -0.457 C  
HETATM   19  C   UNL     1     -10.977  13.569  64.521  1.00  0.00    -0.394 C  
BRANCH  17  20
HETATM   20  C   UNL     1     -10.901  10.821  66.098  1.00  0.00    -0.054 C  
BRANCH  20  21
HETATM   21  C   UNL     1     -10.634   9.939  67.327  1.00  0.00    -0.316 C  
BRANCH  21  22
HETATM   22  C   UNL     1     -10.594   8.432  67.023  1.00  0.00    -0.316 C  
HETATM   23  C   UNL     1      -9.223   7.907  66.519  1.00  0.00    -0.238 C  
HETATM   24  C   UNL     1      -9.278   6.460  66.024  1.00  0.00    -0.087 A  
HETATM   25  C   UNL     1      -8.145   8.137  67.576  1.00  0.00    -0.123 A  
HETATM   26  C   UNL     1      -8.210   7.497  68.826  1.00  0.00    -0.129 A  
HETATM   27  C   UNL     1      -8.394   6.050  65.008  1.00  0.00    -0.121 A  
HETATM   28  C   UNL     1      -8.451   4.752  64.493  1.00  0.00    -0.140 A  
HETATM   29  C   UNL     1      -7.298   7.811  69.833  1.00  0.00    -0.079 A  
HETATM   30  C   UNL     1      -9.384   3.856  64.998  1.00  0.00    -0.158 A  
HETATM   31  C   UNL     1      -6.312   8.757  69.593  1.00  0.00    -0.039 A  
HETATM   32  F   UNL     1      -5.455   9.078  70.570  1.00  0.00    -0.026 F  
HETATM   33  C   UNL     1      -6.209   9.386  68.358  1.00  0.00    -0.052 A  
HETATM   34  F   UNL     1      -9.451   2.616  64.494  1.00  0.00    -0.133 F  
HETATM   35  C   UNL     1     -10.251   4.227  66.014  1.00  0.00    -0.183 A  
HETATM   36  C   UNL     1     -10.195   5.522  66.529  1.00  0.00    -0.273 A  
HETATM   37  C   UNL     1      -7.120   9.074  67.347  1.00  0.00    -0.079 A  
ENDBRANCH  21  22
ENDBRANCH  20  21
ENDBRANCH  17  20
ENDBRANCH  13  14
ENDBRANCH  10  13
ENDBRANCH   8   9
TORSDOF 6
ENDMDL
MODEL       74
REMARK 921   NORMALIZED FREE ENERGY PREDICTED BY IDOCK:   -5.72 KCAL/MOL
REMARK 922        TOTAL FREE ENERGY PREDICTED BY IDOCK:   -9.00 KCAL/MOL
REMARK 923 INTER-LIGAND FREE ENERGY PREDICTED BY IDOCK:   -8.37 KCAL/MOL
REMARK 924 INTRA-LIGAND FREE ENERGY PREDICTED BY IDOCK:   -0.63 KCAL/MOL
REMARK 927      BINDING AFFINITY PREDICTED BY RF-SCORE:    0.00 PKD
ROOT
HETATM    1  C   UNL     1     -11.044  19.618  67.215  1.00  0.00    -0.255 C  
HETATM    2  C   UNL     1      -9.595  19.212  67.258  1.00  0.00    -0.375 A  
HETATM    3  C   UNL     1      -8.646  20.253  67.318  1.00  0.00    -0.425 A  
HETATM    4  C   UNL     1      -7.284  19.987  67.255  1.00  0.00    -0.286 A  
HETATM    5  C   UNL     1      -6.847  18.677  67.102  1.00  0.00    -0.207 A  
HETATM    6  C   UNL     1      -7.766  17.612  67.038  1.00  0.00    -0.234 A  
HETATM    7  C   UNL     1      -7.214  16.219  66.885  1.00  0.00    -0.257 C  
HETATM    8  C   UNL     1      -9.151  17.871  67.173  1.00  0.00    -0.251 A  
ENDROOT
BRANCH   8   9
HETATM    9  N   UNL     1     -10.046  16.764  67.187  1.00  0.00    -0.275 N  
HETATM   10  C   UNL     1     -10.519  16.149  66.038  1.00  0.00    -0.338 C  
HETATM   11  H   UNL     1     -10.356  16.404  68.090  1.00  0.00     0.000 HD 
HETATM   12  O   UNL     1     -10.228  16.483  64.891  1.00  0.00    -0.486 OA 
BRANCH  10  13
HETATM   13  C   UNL     1     -11.594  15.074  66.249  1.00  0.00    -0.160 C  
BRANCH  13  14
HETATM   14  N   UNL     1     -11.138  13.672  66.076  1.00  0.00    -0.293 NA 
HETATM   15  C   UNL     1      -9.780  13.524  66.671  1.00  0.00    -0.280 C  
HETATM   16  C   UNL     1      -9.718  13.506  68.224  1.00  0.00    -0.224 C  
HETATM   17  N   UNL     1     -10.660  12.577  68.881  1.00  0.00    -0.170 NA 
HETATM   18  C   UNL     1     -12.002  12.735  68.293  1.00  0.00    -0.229 C  
HETATM   19  C   UNL     1     -12.030  12.699  66.749  1.00  0.00    -0.292 C  
BRANCH  17  20
HETATM   20  C   UNL     1     -10.205  11.181  68.848  1.00  0.00    -0.194 C  
BRANCH  20  21
HETATM   21  C   UNL     1     -11.192  10.235  69.547  1.00  0.00    -0.314 C  
BRANCH  21  22
HETATM   22  C   UNL     1     -10.529   9.223  70.497  1.00  0.00    -0.312 C  
HETATM   23  C   UNL     1     -10.438   7.776  69.943  1.00  0.00    -0.232 C  
HETATM   24  C   UNL     1      -9.975   6.760  70.988  1.00  0.00    -0.196 A  
HETATM   25  C   UNL     1      -9.599   7.747  68.667  1.00  0.00    -0.154 A  
HETATM   26  C   UNL     1      -8.236   8.088  68.691  1.00  0.00    -0.126 A  
HETATM   27  C   UNL     1     -10.421   5.428  70.894  1.00  0.00    -0.307 A  
HETATM   28  C   UNL     1     -10.062   4.485  71.860  1.00  0.00    -0.258 A  
HETATM   29  C   UNL     1      -7.508   8.187  67.506  1.00  0.00    -0.094 A  
HETATM   30  C   UNL     1      -9.248   4.865  72.919  1.00  0.00    -0.130 A  
HETATM   31  C   UNL     1      -8.135   7.937  66.294  1.00  0.00    -0.110 A  
HETATM   32  F   UNL     1      -7.442   8.062  65.155  1.00  0.00    -0.072 F  
HETATM   33  C   UNL     1      -9.475   7.574  66.244  1.00  0.00    -0.161 A  
HETATM   34  F   UNL     1      -8.916   3.966  73.855  1.00  0.00    -0.091 F  
HETATM   35  C   UNL     1      -8.776   6.165  73.024  1.00  0.00    -0.121 A  
HETATM   36  C   UNL     1      -9.134   7.107  72.060  1.00  0.00    -0.142 A  
HETATM   37  C   UNL     1     -10.207   7.472  67.428  1.00  0.00    -0.318 A  
ENDBRANCH  21  22
ENDBRANCH  20  21
ENDBRANCH  17  20
ENDBRANCH  13  14
ENDBRANCH  10  13
ENDBRANCH   8   9
TORSDOF 6
ENDMDL
MODEL       75
REMARK 921   NORMALIZED FREE ENERGY PREDICTED BY IDOCK:   -5.71 KCAL/MOL
REMARK 922        TOTAL FREE ENERGY PREDICTED BY IDOCK:   -8.98 KCAL/MOL
REMARK 923 INTER-LIGAND FREE ENERGY PREDICTED BY IDOCK:   -8.79 KCAL/MOL
REMARK 924 INTRA-LIGAND FREE ENERGY PREDICTED BY IDOCK:   -0.19 KCAL/MOL
REMARK 927      BINDING AFFINITY PREDICTED BY RF-SCORE:    0.00 PKD
ROOT
HETATM    1  C   UNL     1      -6.971  16.684  68.933  1.00  0.00    -0.200 C  
HETATM    2  C   UNL     1      -6.930  18.096  68.411  1.00  0.00    -0.243 A  
HETATM    3  C   UNL     1      -6.152  19.018  69.139  1.00  0.00    -0.274 A  
HETATM    4  C   UNL     1      -6.132  20.366  68.802  1.00  0.00    -0.366 A  
HETATM    5  C   UNL     1      -6.916  20.820  67.749  1.00  0.00    -0.339 A  
HETATM    6  C   UNL     1      -7.707  19.928  67.000  1.00  0.00    -0.312 A  
HETATM    7  C   UNL     1      -8.517  20.495  65.864  1.00  0.00     0.242 C  
HETATM    8  C   UNL     1      -7.674  18.545  67.293  1.00  0.00    -0.223 A  
ENDROOT
BRANCH   8   9
HETATM    9  N   UNL     1      -8.420  17.660  66.464  1.00  0.00    -0.258 N  
HETATM   10  C   UNL     1      -9.783  17.448  66.606  1.00  0.00    -0.290 C  
HETATM   11  H   UNL     1      -7.927  17.156  65.727  1.00  0.00     0.000 HD 
HETATM   12  O   UNL     1     -10.495  17.986  67.452  1.00  0.00    -0.369 OA 
BRANCH  10  13
HETATM   13  C   UNL     1     -10.383  16.344  65.724  1.00  0.00    -0.369 C  
BRANCH  13  14
HETATM   14  N   UNL     1      -9.862  14.976  65.971  1.00  0.00    -0.299 NA 
HETATM   15  C   UNL     1      -9.896  14.699  67.435  1.00  0.00    -0.222 C  
HETATM   16  C   UNL     1     -11.302  14.430  68.042  1.00  0.00    -0.294 C  
HETATM   17  N   UNL     1     -12.120  13.434  67.320  1.00  0.00    -0.342 NA 
HETATM   18  C   UNL     1     -12.088  13.720  65.876  1.00  0.00    -0.433 C  
HETATM   19  C   UNL     1     -10.671  13.932  65.299  1.00  0.00    -0.345 C  
BRANCH  17  20
HETATM   20  C   UNL     1     -11.729  12.049  67.617  1.00  0.00    -0.294 C  
BRANCH  20  21
HETATM   21  C   UNL     1     -10.361  11.971  68.310  1.00  0.00    -0.211 C  
BRANCH  21  22
HETATM   22  C   UNL     1     -10.024  10.585  68.883  1.00  0.00    -0.213 C  
HETATM   23  C   UNL     1     -10.222   9.407  67.893  1.00  0.00    -0.259 C  
HETATM   24  C   UNL     1     -10.088   8.034  68.555  1.00  0.00    -0.218 A  
HETATM   25  C   UNL     1      -9.315   9.575  66.677  1.00  0.00    -0.207 A  
HETATM   26  C   UNL     1      -7.916   9.552  66.811  1.00  0.00    -0.109 A  
HETATM   27  C   UNL     1     -10.818   6.948  68.037  1.00  0.00    -0.266 A  
HETATM   28  C   UNL     1     -10.761   5.693  68.648  1.00  0.00    -0.249 A  
HETATM   29  C   UNL     1      -7.093   9.837  65.722  1.00  0.00    -0.104 A  
HETATM   30  C   UNL     1      -9.968   5.515  69.774  1.00  0.00    -0.212 A  
HETATM   31  C   UNL     1      -7.663  10.138  64.493  1.00  0.00    -0.138 A  
HETATM   32  F   UNL     1      -6.872  10.440  63.456  1.00  0.00    -0.137 F  
HETATM   33  C   UNL     1      -9.042  10.144  64.327  1.00  0.00    -0.288 A  
HETATM   34  F   UNL     1      -9.926   4.316  70.370  1.00  0.00    -0.259 F  
HETATM   35  C   UNL     1      -9.222   6.562  70.292  1.00  0.00    -0.156 A  
HETATM   36  C   UNL     1      -9.277   7.815  69.683  1.00  0.00    -0.153 A  
HETATM   37  C   UNL     1      -9.869   9.857  65.414  1.00  0.00    -0.384 A  
ENDBRANCH  21  22
ENDBRANCH  20  21
ENDBRANCH  17  20
ENDBRANCH  13  14
ENDBRANCH  10  13
ENDBRANCH   8   9
TORSDOF 6
ENDMDL
MODEL       76
REMARK 921   NORMALIZED FREE ENERGY PREDICTED BY IDOCK:   -5.71 KCAL/MOL
REMARK 922        TOTAL FREE ENERGY PREDICTED BY IDOCK:   -8.98 KCAL/MOL
REMARK 923 INTER-LIGAND FREE ENERGY PREDICTED BY IDOCK:   -8.84 KCAL/MOL
REMARK 924 INTRA-LIGAND FREE ENERGY PREDICTED BY IDOCK:   -0.14 KCAL/MOL
REMARK 927      BINDING AFFINITY PREDICTED BY RF-SCORE:    0.00 PKD
ROOT
HETATM    1  C   UNL     1      -9.370  10.616  62.379  1.00  0.00    -0.282 C  
HETATM    2  C   UNL     1     -10.367  11.207  63.341  1.00  0.00    -0.419 A  
HETATM    3  C   UNL     1     -11.687  11.359  62.872  1.00  0.00     0.551 A  
HETATM    4  C   UNL     1     -12.655  11.990  63.643  1.00  0.00    -0.605 A  
HETATM    5  C   UNL     1     -12.311  12.506  64.886  1.00  0.00    -0.539 A  
HETATM    6  C   UNL     1     -11.002  12.373  65.387  1.00  0.00    -0.335 A  
HETATM    7  C   UNL     1     -10.711  12.947  66.749  1.00  0.00    -0.276 C  
HETATM    8  C   UNL     1     -10.032  11.669  64.636  1.00  0.00    -0.253 A  
ENDROOT
BRANCH   8   9
HETATM    9  N   UNL     1      -8.741  11.481  65.207  1.00  0.00    -0.386 N  
HETATM   10  C   UNL     1      -8.388  10.360  65.943  1.00  0.00    -0.152 C  
HETATM   11  H   UNL     1      -8.040  12.209  65.069  1.00  0.00     0.000 HD 
HETATM   12  O   UNL     1      -9.134   9.414  66.187  1.00  0.00    -0.150 OA 
BRANCH  10  13
HETATM   13  C   UNL     1      -7.005  10.406  66.609  1.00  0.00    -0.111 C  
BRANCH  13  14
HETATM   14  N   UNL     1      -7.000  10.802  68.040  1.00  0.00    -0.072 NA 
HETATM   15  C   UNL     1      -5.644  11.302  68.403  1.00  0.00    -0.042 C  
HETATM   16  C   UNL     1      -5.272  12.711  67.861  1.00  0.00    -0.096 C  
HETATM   17  N   UNL     1      -6.279  13.764  68.102  1.00  0.00    -0.111 NA 
HETATM   18  C   UNL     1      -7.615  13.266  67.734  1.00  0.00    -0.161 C  
HETATM   19  C   UNL     1      -7.969  11.886  68.330  1.00  0.00    -0.154 C  
BRANCH  17  20
HETATM   20  C   UNL     1      -6.244  14.285  69.475  1.00  0.00    -0.122 C  
BRANCH  20  21
HETATM   21  C   UNL     1      -7.624  14.773  69.943  1.00  0.00     0.113 C  
BRANCH  21  22
HETATM   22  C   UNL     1      -8.080  16.089  69.291  1.00  0.00    -0.212 C  
HETATM   23  C   UNL     1      -9.434  16.005  68.538  1.00  0.00    -0.216 C  
HETATM   24  C   UNL     1      -9.749  17.263  67.726  1.00  0.00    -0.270 A  
HETATM   25  C   UNL     1     -10.555  15.618  69.499  1.00  0.00    -0.266 A  
HETATM   26  C   UNL     1     -10.916  16.461  70.564  1.00  0.00    -0.164 A  
HETATM   27  C   UNL     1     -10.522  17.148  66.555  1.00  0.00    -0.255 A  
HETATM   28  C   UNL     1     -10.785  18.265  65.759  1.00  0.00    -0.129 A  
HETATM   29  C   UNL     1     -11.848  16.045  71.515  1.00  0.00    -0.554 A  
HETATM   30  C   UNL     1     -10.285  19.506  66.135  1.00  0.00    -0.496 A  
HETATM   31  C   UNL     1     -12.428  14.789  71.402  1.00  0.00    -0.336 A  
HETATM   32  F   UNL     1     -13.300  14.380  72.332  1.00  0.00    -0.385 F  
HETATM   33  C   UNL     1     -12.107  13.946  70.345  1.00  0.00    -0.421 A  
HETATM   34  F   UNL     1     -10.523  20.576  65.365  1.00  0.00    -0.427 F  
HETATM   35  C   UNL     1      -9.540  19.652  67.295  1.00  0.00    -0.459 A  
HETATM   36  C   UNL     1      -9.277  18.537  68.090  1.00  0.00    -0.329 A  
HETATM   37  C   UNL     1     -11.176  14.360  69.391  1.00  0.00    -0.317 A  
ENDBRANCH  21  22
ENDBRANCH  20  21
ENDBRANCH  17  20
ENDBRANCH  13  14
ENDBRANCH  10  13
ENDBRANCH   8   9
TORSDOF 6
ENDMDL
MODEL       77
REMARK 921   NORMALIZED FREE ENERGY PREDICTED BY IDOCK:   -5.70 KCAL/MOL
REMARK 922        TOTAL FREE ENERGY PREDICTED BY IDOCK:   -8.97 KCAL/MOL
REMARK 923 INTER-LIGAND FREE ENERGY PREDICTED BY IDOCK:   -8.27 KCAL/MOL
REMARK 924 INTRA-LIGAND FREE ENERGY PREDICTED BY IDOCK:   -0.71 KCAL/MOL
REMARK 927      BINDING AFFINITY PREDICTED BY RF-SCORE:    0.00 PKD
ROOT
HETATM    1  C   UNL     1      -9.538  20.726  67.158  1.00  0.00    -0.465 C  
HETATM    2  C   UNL     1      -8.209  20.093  67.473  1.00  0.00    -0.373 A  
HETATM    3  C   UNL     1      -7.214  20.940  68.001  1.00  0.00    -0.083 A  
HETATM    4  C   UNL     1      -5.923  20.478  68.227  1.00  0.00    -0.340 A  
HETATM    5  C   UNL     1      -5.596  19.168  67.898  1.00  0.00    -0.193 A  
HETATM    6  C   UNL     1      -6.564  18.294  67.368  1.00  0.00    -0.200 A  
HETATM    7  C   UNL     1      -6.137  16.885  67.051  1.00  0.00    -0.225 C  
HETATM    8  C   UNL     1      -7.897  18.739  67.204  1.00  0.00    -0.237 A  
ENDROOT
BRANCH   8   9
HETATM    9  N   UNL     1      -8.869  17.805  66.744  1.00  0.00    -0.252 N  
HETATM   10  C   UNL     1      -9.880  17.297  67.545  1.00  0.00    -0.275 C  
HETATM   11  H   UNL     1      -8.819  17.494  65.774  1.00  0.00     0.000 HD 
HETATM   12  O   UNL     1     -10.051  17.584  68.728  1.00  0.00    -0.331 OA 
BRANCH  10  13
HETATM   13  C   UNL     1     -10.735  16.187  66.919  1.00  0.00    -0.247 C  
BRANCH  13  14
HETATM   14  N   UNL     1      -9.990  15.181  66.121  1.00  0.00    -0.275 NA 
HETATM   15  C   UNL     1      -9.585  14.056  67.010  1.00  0.00    -0.253 C  
HETATM   16  C   UNL     1     -10.722  13.087  67.438  1.00  0.00    -0.245 C  
HETATM   17  N   UNL     1     -11.566  12.581  66.337  1.00  0.00    -0.372 NA 
HETATM   18  C   UNL     1     -11.970  13.700  65.468  1.00  0.00    -0.384 C  
HETATM   19  C   UNL     1     -10.806  14.613  65.023  1.00  0.00    -0.417 C  
BRANCH  17  20
HETATM   20  C   UNL     1     -10.930  11.496  65.579  1.00  0.00    -0.229 C  
BRANCH  20  21
HETATM   21  C   UNL     1     -10.154  10.533  66.491  1.00  0.00    -0.280 C  
BRANCH  21  22
HETATM   22  C   UNL     1      -9.453   9.386  65.743  1.00  0.00    -0.325 C  
HETATM   23  C   UNL     1      -8.538   8.498  66.627  1.00  0.00    -0.122 C  
HETATM   24  C   UNL     1      -7.694   7.511  65.819  1.00  0.00    -0.098 A  
HETATM   25  C   UNL     1      -9.352   7.826  67.730  1.00  0.00    -0.155 A  
HETATM   26  C   UNL     1     -10.366   6.903  67.418  1.00  0.00    -0.297 A  
HETATM   27  C   UNL     1      -6.436   7.117  66.314  1.00  0.00    -0.051 A  
HETATM   28  C   UNL     1      -5.616   6.259  65.577  1.00  0.00    -0.017 A  
HETATM   29  C   UNL     1     -11.193   6.393  68.418  1.00  0.00    -0.297 A  
HETATM   30  C   UNL     1      -6.052   5.782  64.348  1.00  0.00    -0.025 A  
HETATM   31  C   UNL     1     -11.007   6.795  69.733  1.00  0.00    -0.297 A  
HETATM   32  F   UNL     1     -11.822   6.326  70.687  1.00  0.00    -0.410 F  
HETATM   33  C   UNL     1      -9.997   7.687  70.071  1.00  0.00    -0.190 A  
HETATM   34  F   UNL     1      -5.260   4.972  63.634  1.00  0.00    -0.009 F  
HETATM   35  C   UNL     1      -7.296   6.136  63.847  1.00  0.00    -0.067 A  
HETATM   36  C   UNL     1      -8.116   6.992  64.582  1.00  0.00    -0.083 A  
HETATM   37  C   UNL     1      -9.166   8.199  69.074  1.00  0.00    -0.148 A  
ENDBRANCH  21  22
ENDBRANCH  20  21
ENDBRANCH  17  20
ENDBRANCH  13  14
ENDBRANCH  10  13
ENDBRANCH   8   9
TORSDOF 6
ENDMDL
MODEL       78
REMARK 921   NORMALIZED FREE ENERGY PREDICTED BY IDOCK:   -5.70 KCAL/MOL
REMARK 922        TOTAL FREE ENERGY PREDICTED BY IDOCK:   -8.97 KCAL/MOL
REMARK 923 INTER-LIGAND FREE ENERGY PREDICTED BY IDOCK:   -8.12 KCAL/MOL
REMARK 924 INTRA-LIGAND FREE ENERGY PREDICTED BY IDOCK:   -0.85 KCAL/MOL
REMARK 927      BINDING AFFINITY PREDICTED BY RF-SCORE:    0.00 PKD
ROOT
HETATM    1  C   UNL     1      -6.120   5.519  69.641  1.00  0.00    -0.021 C  
HETATM    2  C   UNL     1      -6.346   4.163  70.257  1.00  0.00    -0.027 A  
HETATM    3  C   UNL     1      -5.247   3.281  70.268  1.00  0.00    -0.004 A  
HETATM    4  C   UNL     1      -5.380   1.973  70.716  1.00  0.00    -0.004 A  
HETATM    5  C   UNL     1      -6.624   1.515  71.134  1.00  0.00    -0.023 A  
HETATM    6  C   UNL     1      -7.744   2.368  71.136  1.00  0.00    -0.039 A  
HETATM    7  C   UNL     1      -9.055   1.802  71.616  1.00  0.00    -0.139 C  
HETATM    8  C   UNL     1      -7.597   3.721  70.748  1.00  0.00    -0.041 A  
ENDROOT
BRANCH   8   9
HETATM    9  N   UNL     1      -8.731   4.577  70.841  1.00  0.00    -0.099 N  
HETATM   10  C   UNL     1      -8.937   5.461  71.889  1.00  0.00    -0.135 C  
HETATM   11  H   UNL     1      -9.429   4.537  70.099  1.00  0.00     0.000 HD 
HETATM   12  O   UNL     1      -8.179   5.606  72.846  1.00  0.00    -0.118 OA 
BRANCH  10  13
HETATM   13  C   UNL     1     -10.289   6.187  71.896  1.00  0.00    -0.208 C  
BRANCH  13  14
HETATM   14  N   UNL     1     -10.280   7.547  72.491  1.00  0.00    -0.214 NA 
HETATM   15  C   UNL     1      -9.652   8.496  71.530  1.00  0.00    -0.228 C  
HETATM   16  C   UNL     1     -10.515   8.883  70.296  1.00  0.00    -0.210 C  
HETATM   17  N   UNL     1     -11.893   9.316  70.603  1.00  0.00    -0.237 NA 
HETATM   18  C   UNL     1     -12.511   8.368  71.547  1.00  0.00    -0.312 C  
HETATM   19  C   UNL     1     -11.644   8.045  72.785  1.00  0.00    -0.327 C  
BRANCH  17  20
HETATM   20  C   UNL     1     -11.965  10.701  71.086  1.00  0.00    -0.300 C  
BRANCH  20  21
HETATM   21  C   UNL     1     -12.478  11.663  70.004  1.00  0.00    -0.166 C  
BRANCH  21  22
HETATM   22  C   UNL     1     -11.391  12.569  69.400  1.00  0.00    -0.275 C  
HETATM   23  C   UNL     1     -11.832  14.036  69.155  1.00  0.00    -0.391 C  
HETATM   24  C   UNL     1     -10.806  14.847  68.359  1.00  0.00    -0.252 A  
HETATM   25  C   UNL     1     -12.229  14.701  70.470  1.00  0.00    -0.389 A  
HETATM   26  C   UNL     1     -11.286  14.894  71.495  1.00  0.00    -0.232 A  
HETATM   27  C   UNL     1     -11.253  15.895  67.533  1.00  0.00    -0.171 A  
HETATM   28  C   UNL     1     -10.351  16.622  66.751  1.00  0.00    -0.295 A  
HETATM   29  C   UNL     1     -11.681  15.380  72.741  1.00  0.00    -0.535 A  
HETATM   30  C   UNL     1      -8.998  16.312  66.800  1.00  0.00    -0.231 A  
HETATM   31  C   UNL     1     -13.017  15.682  72.967  1.00  0.00    -0.510 A  
HETATM   32  F   UNL     1     -13.399  16.120  74.173  1.00  0.00    -0.423 F  
HETATM   33  C   UNL     1     -13.965  15.523  71.963  1.00  0.00    -0.599 A  
HETATM   34  F   UNL     1      -8.135  16.997  66.039  1.00  0.00    -0.313 F  
HETATM   35  C   UNL     1      -8.529  15.299  67.623  1.00  0.00    -0.172 A  
HETATM   36  C   UNL     1      -9.428  14.573  68.403  1.00  0.00    -0.209 A  
HETATM   37  C   UNL     1     -13.573  15.039  70.714  1.00  0.00    -0.266 A  
ENDBRANCH  21  22
ENDBRANCH  20  21
ENDBRANCH  17  20
ENDBRANCH  13  14
ENDBRANCH  10  13
ENDBRANCH   8   9
TORSDOF 6
ENDMDL
MODEL       79
REMARK 921   NORMALIZED FREE ENERGY PREDICTED BY IDOCK:   -5.69 KCAL/MOL
REMARK 922        TOTAL FREE ENERGY PREDICTED BY IDOCK:   -8.96 KCAL/MOL
REMARK 923 INTER-LIGAND FREE ENERGY PREDICTED BY IDOCK:   -7.85 KCAL/MOL
REMARK 924 INTRA-LIGAND FREE ENERGY PREDICTED BY IDOCK:   -1.11 KCAL/MOL
REMARK 927      BINDING AFFINITY PREDICTED BY RF-SCORE:    0.00 PKD
ROOT
HETATM    1  C   UNL     1     -10.856  19.839  66.336  1.00  0.00    -0.395 C  
HETATM    2  C   UNL     1      -9.430  19.491  66.672  1.00  0.00    -0.439 A  
HETATM    3  C   UNL     1      -8.481  20.527  66.557  1.00  0.00    -0.092 A  
HETATM    4  C   UNL     1      -7.125  20.283  66.742  1.00  0.00    -0.299 A  
HETATM    5  C   UNL     1      -6.693  18.992  67.016  1.00  0.00    -0.203 A  
HETATM    6  C   UNL     1      -7.612  17.932  67.137  1.00  0.00    -0.219 A  
HETATM    7  C   UNL     1      -7.066  16.563  67.449  1.00  0.00    -0.184 C  
HETATM    8  C   UNL     1      -8.998  18.189  67.021  1.00  0.00    -0.263 A  
ENDROOT
BRANCH   8   9
HETATM    9  N   UNL     1      -9.905  17.111  67.231  1.00  0.00    -0.258 N  
HETATM   10  C   UNL     1     -10.644  16.951  68.393  1.00  0.00    -0.365 C  
HETATM   11  H   UNL     1     -10.016  16.421  66.488  1.00  0.00     0.000 HD 
HETATM   12  O   UNL     1     -10.604  17.705  69.362  1.00  0.00    -0.171 OA 
BRANCH  10  13
HETATM   13  C   UNL     1     -11.449  15.648  68.499  1.00  0.00    -0.375 C  
BRANCH  13  14
HETATM   14  N   UNL     1     -10.961  14.678  69.513  1.00  0.00    -0.254 NA 
HETATM   15  C   UNL     1     -11.843  13.478  69.503  1.00  0.00    -0.334 C  
HETATM   16  C   UNL     1     -11.672  12.519  68.291  1.00  0.00    -0.340 C  
HETATM   17  N   UNL     1     -10.280  12.125  67.992  1.00  0.00    -0.195 NA 
HETATM   18  C   UNL     1      -9.416  13.318  67.995  1.00  0.00    -0.219 C  
HETATM   19  C   UNL     1      -9.579  14.221  69.238  1.00  0.00     0.189 C  
BRANCH  17  20
HETATM   20  C   UNL     1      -9.776  11.077  68.890  1.00  0.00    -0.172 C  
BRANCH  20  21
HETATM   21  C   UNL     1      -8.369  10.605  68.495  1.00  0.00    -0.130 C  
BRANCH  21  22
HETATM   22  C   UNL     1      -8.270   9.098  68.203  1.00  0.00    -0.116 C  
HETATM   23  C   UNL     1      -9.284   8.572  67.154  1.00  0.00    -0.173 C  
HETATM   24  C   UNL     1      -9.303   7.045  67.049  1.00  0.00    -0.174 A  
HETATM   25  C   UNL     1      -9.065   9.261  65.809  1.00  0.00    -0.260 A  
HETATM   26  C   UNL     1      -7.865   9.092  65.098  1.00  0.00    -0.106 A  
HETATM   27  C   UNL     1     -10.498   6.398  66.682  1.00  0.00    -0.240 A  
HETATM   28  C   UNL     1     -10.567   5.004  66.628  1.00  0.00    -0.256 A  
HETATM   29  C   UNL     1      -7.617   9.826  63.938  1.00  0.00    -0.133 A  
HETATM   30  C   UNL     1      -9.440   4.250  66.930  1.00  0.00    -0.187 A  
HETATM   31  C   UNL     1      -8.571  10.723  63.479  1.00  0.00    -0.063 A  
HETATM   32  F   UNL     1      -8.319  11.448  62.382  1.00  0.00    -0.288 F  
HETATM   33  C   UNL     1      -9.776  10.891  64.149  1.00  0.00    -0.347 A  
HETATM   34  F   UNL     1      -9.509   2.913  66.894  1.00  0.00    -0.190 F  
HETATM   35  C   UNL     1      -8.244   4.862  67.272  1.00  0.00    -0.106 A  
HETATM   36  C   UNL     1      -8.174   6.254  67.326  1.00  0.00    -0.109 A  
HETATM   37  C   UNL     1     -10.028  10.157  65.310  1.00  0.00    -0.381 A  
ENDBRANCH  21  22
ENDBRANCH  20  21
ENDBRANCH  17  20
ENDBRANCH  13  14
ENDBRANCH  10  13
ENDBRANCH   8   9
TORSDOF 6
ENDMDL
MODEL       80
REMARK 921   NORMALIZED FREE ENERGY PREDICTED BY IDOCK:   -5.69 KCAL/MOL
REMARK 922        TOTAL FREE ENERGY PREDICTED BY IDOCK:   -8.96 KCAL/MOL
REMARK 923 INTER-LIGAND FREE ENERGY PREDICTED BY IDOCK:   -8.99 KCAL/MOL
REMARK 924 INTRA-LIGAND FREE ENERGY PREDICTED BY IDOCK:    0.03 KCAL/MOL
REMARK 927      BINDING AFFINITY PREDICTED BY RF-SCORE:    0.00 PKD
ROOT
HETATM    1  C   UNL     1     -10.655  16.800  65.747  1.00  0.00    -0.259 C  
HETATM    2  C   UNL     1     -10.070  17.938  66.541  1.00  0.00    -0.370 A  
HETATM    3  C   UNL     1     -10.559  19.228  66.253  1.00  0.00    -0.545 A  
HETATM    4  C   UNL     1     -10.011  20.355  66.853  1.00  0.00    -0.549 A  
HETATM    5  C   UNL     1      -8.943  20.213  67.731  1.00  0.00    -0.369 A  
HETATM    6  C   UNL     1      -8.428  18.940  68.042  1.00  0.00    -0.325 A  
HETATM    7  C   UNL     1      -7.279  18.867  69.013  1.00  0.00    -0.328 C  
HETATM    8  C   UNL     1      -9.030  17.785  67.488  1.00  0.00    -0.244 A  
ENDROOT
BRANCH   8   9
HETATM    9  N   UNL     1      -8.538  16.510  67.888  1.00  0.00    -0.181 N  
HETATM   10  C   UNL     1      -7.459  15.883  67.282  1.00  0.00    -0.210 C  
HETATM   11  H   UNL     1      -9.003  16.032  68.659  1.00  0.00     0.000 HD 
HETATM   12  O   UNL     1      -6.814  16.345  66.344  1.00  0.00    -0.179 OA 
BRANCH  10  13
HETATM   13  C   UNL     1      -7.174  14.448  67.746  1.00  0.00    -0.175 C  
BRANCH  13  14
HETATM   14  N   UNL     1      -8.305  13.757  68.416  1.00  0.00    -0.157 NA 
HETATM   15  C   UNL     1      -9.554  14.002  67.641  1.00  0.00    -0.221 C  
HETATM   16  C   UNL     1      -9.684  13.226  66.301  1.00  0.00    -0.268 C  
HETATM   17  N   UNL     1      -9.419  11.776  66.385  1.00  0.00    -0.216 NA 
HETATM   18  C   UNL     1      -8.179  11.542  67.144  1.00  0.00    -0.161 C  
HETATM   19  C   UNL     1      -8.106  12.291  68.493  1.00  0.00    -0.101 C  
BRANCH  17  20
HETATM   20  C   UNL     1     -10.552  11.017  66.932  1.00  0.00    -0.258 C  
BRANCH  20  21
HETATM   21  C   UNL     1     -10.229   9.523  67.077  1.00  0.00    -0.321 C  
BRANCH  21  22
HETATM   22  C   UNL     1     -10.039   9.059  68.531  1.00  0.00    -0.211 C  
HETATM   23  C   UNL     1     -10.611   7.651  68.844  1.00  0.00    -0.176 C  
HETATM   24  C   UNL     1     -10.599   7.314  70.336  1.00  0.00    -0.240 A  
HETATM   25  C   UNL     1      -9.921   6.593  67.986  1.00  0.00    -0.157 A  
HETATM   26  C   UNL     1      -8.546   6.337  68.124  1.00  0.00    -0.116 A  
HETATM   27  C   UNL     1     -11.586   6.453  70.854  1.00  0.00    -0.393 A  
HETATM   28  C   UNL     1     -11.638   6.166  72.220  1.00  0.00    -0.362 A  
HETATM   29  C   UNL     1      -7.895   5.466  67.250  1.00  0.00    -0.101 A  
HETATM   30  C   UNL     1     -10.698   6.728  73.074  1.00  0.00    -0.285 A  
HETATM   31  C   UNL     1      -8.616   4.842  66.242  1.00  0.00    -0.115 A  
HETATM   32  F   UNL     1      -7.983   4.029  65.386  1.00  0.00    -0.089 F  
HETATM   33  C   UNL     1      -9.981   5.059  66.099  1.00  0.00    -0.240 A  
HETATM   34  F   UNL     1     -10.756   6.466  74.386  1.00  0.00    -0.273 F  
HETATM   35  C   UNL     1      -9.702   7.561  72.588  1.00  0.00    -0.229 A  
HETATM   36  C   UNL     1      -9.649   7.849  71.224  1.00  0.00    -0.186 A  
HETATM   37  C   UNL     1     -10.636   5.928  66.972  1.00  0.00    -0.376 A  
ENDBRANCH  21  22
ENDBRANCH  20  21
ENDBRANCH  17  20
ENDBRANCH  13  14
ENDBRANCH  10  13
ENDBRANCH   8   9
TORSDOF 6
ENDMDL
MODEL       81
REMARK 921   NORMALIZED FREE ENERGY PREDICTED BY IDOCK:   -5.69 KCAL/MOL
REMARK 922        TOTAL FREE ENERGY PREDICTED BY IDOCK:   -8.95 KCAL/MOL
REMARK 923 INTER-LIGAND FREE ENERGY PREDICTED BY IDOCK:   -8.11 KCAL/MOL
REMARK 924 INTRA-LIGAND FREE ENERGY PREDICTED BY IDOCK:   -0.84 KCAL/MOL
REMARK 927      BINDING AFFINITY PREDICTED BY RF-SCORE:    0.00 PKD
ROOT
HETATM    1  C   UNL     1      -5.722   5.944  72.596  1.00  0.00    -0.035 C  
HETATM    2  C   UNL     1      -6.732   4.859  72.862  1.00  0.00    -0.069 A  
HETATM    3  C   UNL     1      -6.522   4.065  74.007  1.00  0.00    -0.042 A  
HETATM    4  C   UNL     1      -7.336   2.973  74.283  1.00  0.00    -0.047 A  
HETATM    5  C   UNL     1      -8.356   2.638  73.402  1.00  0.00    -0.064 A  
HETATM    6  C   UNL     1      -8.595   3.409  72.247  1.00  0.00    -0.096 A  
HETATM    7  C   UNL     1      -9.728   2.990  71.348  1.00  0.00    -0.219 C  
HETATM    8  C   UNL     1      -7.815   4.563  72.000  1.00  0.00    -0.095 A  
ENDROOT
BRANCH   8   9
HETATM    9  N   UNL     1      -8.137   5.366  70.869  1.00  0.00    -0.110 N  
HETATM   10  C   UNL     1      -9.085   6.376  70.895  1.00  0.00    -0.151 C  
HETATM   11  H   UNL     1      -7.644   5.188  69.994  1.00  0.00     0.000 HD 
HETATM   12  O   UNL     1      -9.752   6.691  71.878  1.00  0.00    -0.155 OA 
BRANCH  10  13
HETATM   13  C   UNL     1      -9.405   7.027  69.541  1.00  0.00    -0.148 C  
BRANCH  13  14
HETATM   14  N   UNL     1      -8.715   8.315  69.274  1.00  0.00    -0.138 NA 
HETATM   15  C   UNL     1      -8.787   8.612  67.816  1.00  0.00    -0.136 C  
HETATM   16  C   UNL     1     -10.172   9.077  67.285  1.00  0.00    -0.256 C  
HETATM   17  N   UNL     1     -10.807  10.167  68.054  1.00  0.00    -0.258 NA 
HETATM   18  C   UNL     1     -10.740   9.861  69.494  1.00  0.00    -0.242 C  
HETATM   19  C   UNL     1      -9.338   9.450  69.994  1.00  0.00    -0.226 C  
BRANCH  17  20
HETATM   20  C   UNL     1     -10.247  11.488  67.744  1.00  0.00    -0.182 C  
BRANCH  20  21
HETATM   21  C   UNL     1     -11.314  12.458  67.215  1.00  0.00    -0.384 C  
BRANCH  21  22
HETATM   22  C   UNL     1     -12.024  13.271  68.310  1.00  0.00    -0.338 C  
HETATM   23  C   UNL     1     -11.082  14.133  69.193  1.00  0.00    -0.295 C  
HETATM   24  C   UNL     1     -11.790  14.754  70.399  1.00  0.00    -0.352 A  
HETATM   25  C   UNL     1     -10.344  15.160  68.338  1.00  0.00    -0.229 A  
HETATM   26  C   UNL     1     -11.044  16.174  67.662  1.00  0.00    -0.212 A  
HETATM   27  C   UNL     1     -11.055  14.996  71.575  1.00  0.00    -0.128 A  
HETATM   28  C   UNL     1     -11.679  15.512  72.713  1.00  0.00    -0.545 A  
HETATM   29  C   UNL     1     -10.382  17.028  66.779  1.00  0.00    -0.302 A  
HETATM   30  C   UNL     1     -13.038  15.799  72.679  1.00  0.00    -0.491 A  
HETATM   31  C   UNL     1      -9.018  16.878  66.575  1.00  0.00    -0.272 A  
HETATM   32  F   UNL     1      -8.390  17.679  65.706  1.00  0.00    -0.192 F  
HETATM   33  C   UNL     1      -8.298  15.900  67.250  1.00  0.00    -0.211 A  
HETATM   34  F   UNL     1     -13.640  16.279  73.775  1.00  0.00    -0.549 F  
HETATM   35  C   UNL     1     -13.780  15.591  71.527  1.00  0.00    -0.553 A  
HETATM   36  C   UNL     1     -13.158  15.076  70.390  1.00  0.00    -0.222 A  
HETATM   37  C   UNL     1      -8.956  15.045  68.135  1.00  0.00    -0.173 A  
ENDBRANCH  21  22
ENDBRANCH  20  21
ENDBRANCH  17  20
ENDBRANCH  13  14
ENDBRANCH  10  13
ENDBRANCH   8   9
TORSDOF 6
ENDMDL
MODEL       82
REMARK 921   NORMALIZED FREE ENERGY PREDICTED BY IDOCK:   -5.66 KCAL/MOL
REMARK 922        TOTAL FREE ENERGY PREDICTED BY IDOCK:   -8.92 KCAL/MOL
REMARK 923 INTER-LIGAND FREE ENERGY PREDICTED BY IDOCK:   -7.99 KCAL/MOL
REMARK 924 INTRA-LIGAND FREE ENERGY PREDICTED BY IDOCK:   -0.92 KCAL/MOL
REMARK 927      BINDING AFFINITY PREDICTED BY RF-SCORE:    0.00 PKD
ROOT
HETATM    1  C   UNL     1      -8.881   3.842  64.606  1.00  0.00    -0.123 C  
HETATM    2  C   UNL     1      -8.969   3.499  66.070  1.00  0.00    -0.140 A  
HETATM    3  C   UNL     1      -8.960   2.129  66.401  1.00  0.00    -0.109 A  
HETATM    4  C   UNL     1      -9.142   1.706  67.712  1.00  0.00    -0.185 A  
HETATM    5  C   UNL     1      -9.366   2.646  68.710  1.00  0.00    -0.230 A  
HETATM    6  C   UNL     1      -9.383   4.023  68.416  1.00  0.00    -0.218 A  
HETATM    7  C   UNL     1      -9.618   4.980  69.555  1.00  0.00    -0.237 C  
HETATM    8  C   UNL     1      -9.126   4.462  67.096  1.00  0.00    -0.131 A  
ENDROOT
BRANCH   8   9
HETATM    9  N   UNL     1      -9.067   5.862  66.849  1.00  0.00    -0.118 N  
HETATM   10  C   UNL     1      -7.886   6.589  66.847  1.00  0.00    -0.107 C  
HETATM   11  H   UNL     1      -9.940   6.358  66.664  1.00  0.00     0.000 HD 
HETATM   12  O   UNL     1      -6.770   6.118  67.057  1.00  0.00    -0.056 OA 
BRANCH  10  13
HETATM   13  C   UNL     1      -8.038   8.111  66.716  1.00  0.00    -0.103 C  
BRANCH  13  14
HETATM   14  N   UNL     1      -8.199   8.848  67.995  1.00  0.00    -0.110 NA 
HETATM   15  C   UNL     1      -7.056   9.788  68.163  1.00  0.00    -0.078 C  
HETATM   16  C   UNL     1      -7.082  11.055  67.262  1.00  0.00    -0.097 C  
HETATM   17  N   UNL     1      -8.355  11.803  67.263  1.00  0.00    -0.154 NA 
HETATM   18  C   UNL     1      -9.479  10.867  67.088  1.00  0.00    -0.160 C  
HETATM   19  C   UNL     1      -9.446   9.647  68.034  1.00  0.00    -0.132 C  
BRANCH  17  20
HETATM   20  C   UNL     1      -8.522  12.648  68.453  1.00  0.00    -0.121 C  
BRANCH  20  21
HETATM   21  C   UNL     1      -9.972  13.123  68.625  1.00  0.00    -0.117 C  
BRANCH  21  22
HETATM   22  C   UNL     1     -10.157  14.644  68.485  1.00  0.00    -0.238 C  
HETATM   23  C   UNL     1      -9.689  15.233  67.128  1.00  0.00    -0.220 C  
HETATM   24  C   UNL     1      -9.686  16.763  67.105  1.00  0.00    -0.251 A  
HETATM   25  C   UNL     1     -10.485  14.619  65.978  1.00  0.00    -0.313 A  
HETATM   26  C   UNL     1     -11.871  14.822  65.870  1.00  0.00    -0.204 A  
HETATM   27  C   UNL     1      -8.756  17.434  66.289  1.00  0.00    -0.242 A  
HETATM   28  C   UNL     1      -8.688  18.830  66.284  1.00  0.00    -0.244 A  
HETATM   29  C   UNL     1     -12.613  14.154  64.896  1.00  0.00    -0.362 A  
HETATM   30  C   UNL     1      -9.556  19.561  67.085  1.00  0.00    -0.331 A  
HETATM   31  C   UNL     1     -11.973  13.287  64.022  1.00  0.00    -0.465 A  
HETATM   32  F   UNL     1     -12.691  12.625  63.107  1.00  0.00    -0.492 F  
HETATM   33  C   UNL     1     -10.599  13.087  64.091  1.00  0.00    -0.421 A  
HETATM   34  F   UNL     1      -9.481  20.898  67.092  1.00  0.00    -0.546 F  
HETATM   35  C   UNL     1     -10.497  18.925  67.880  1.00  0.00    -0.459 A  
HETATM   36  C   UNL     1     -10.565  17.532  67.887  1.00  0.00    -0.390 A  
HETATM   37  C   UNL     1      -9.853  13.756  65.064  1.00  0.00    -0.087 A  
ENDBRANCH  21  22
ENDBRANCH  20  21
ENDBRANCH  17  20
ENDBRANCH  13  14
ENDBRANCH  10  13
ENDBRANCH   8   9
TORSDOF 6
ENDMDL
MODEL       83
REMARK 921   NORMALIZED FREE ENERGY PREDICTED BY IDOCK:   -5.66 KCAL/MOL
REMARK 922        TOTAL FREE ENERGY PREDICTED BY IDOCK:   -8.91 KCAL/MOL
REMARK 923 INTER-LIGAND FREE ENERGY PREDICTED BY IDOCK:   -7.20 KCAL/MOL
REMARK 924 INTRA-LIGAND FREE ENERGY PREDICTED BY IDOCK:   -1.71 KCAL/MOL
REMARK 927      BINDING AFFINITY PREDICTED BY RF-SCORE:    0.00 PKD
ROOT
HETATM    1  C   UNL     1     -10.555  17.353  65.568  1.00  0.00    -0.115 C  
HETATM    2  C   UNL     1     -10.340  16.596  66.853  1.00  0.00    -0.299 A  
HETATM    3  C   UNL     1     -10.576  17.301  68.050  1.00  0.00    -0.394 A  
HETATM    4  C   UNL     1     -10.306  16.728  69.286  1.00  0.00    -0.309 A  
HETATM    5  C   UNL     1      -9.767  15.449  69.345  1.00  0.00    -0.273 A  
HETATM    6  C   UNL     1      -9.517  14.715  68.170  1.00  0.00    -0.212 A  
HETATM    7  C   UNL     1      -8.944  13.330  68.317  1.00  0.00    -0.176 C  
HETATM    8  C   UNL     1      -9.857  15.267  66.912  1.00  0.00    -0.235 A  
ENDROOT
BRANCH   8   9
HETATM    9  N   UNL     1      -9.669  14.467  65.750  1.00  0.00    -0.477 N  
HETATM   10  C   UNL     1     -10.691  13.758  65.137  1.00  0.00    -0.358 C  
HETATM   11  H   UNL     1      -8.734  14.411  65.348  1.00  0.00     0.000 HD 
HETATM   12  O   UNL     1     -11.859  13.736  65.519  1.00  0.00    -0.335 OA 
BRANCH  10  13
HETATM   13  C   UNL     1     -10.267  12.830  63.990  1.00  0.00    -0.298 C  
BRANCH  13  14
HETATM   14  N   UNL     1     -10.611  11.397  64.169  1.00  0.00    -0.343 NA 
HETATM   15  C   UNL     1     -10.019  10.610  63.051  1.00  0.00    -0.187 C  
HETATM   16  C   UNL     1      -8.480  10.398  63.110  1.00  0.00    -0.179 C  
HETATM   17  N   UNL     1      -7.961   9.907  64.402  1.00  0.00    -0.139 NA 
HETATM   18  C   UNL     1      -8.544  10.695  65.502  1.00  0.00    -0.185 C  
HETATM   19  C   UNL     1     -10.080  10.842  65.437  1.00  0.00    -0.277 C  
BRANCH  17  20
HETATM   20  C   UNL     1      -8.165   8.464  64.589  1.00  0.00    -0.154 C  
BRANCH  20  21
HETATM   21  C   UNL     1      -7.338   7.912  65.760  1.00  0.00    -0.076 C  
BRANCH  21  22
HETATM   22  C   UNL     1      -7.919   6.637  66.395  1.00  0.00    -0.106 C  
HETATM   23  C   UNL     1      -7.921   6.628  67.946  1.00  0.00    -0.113 C  
HETATM   24  C   UNL     1      -8.301   5.269  68.539  1.00  0.00    -0.089 A  
HETATM   25  C   UNL     1      -8.773   7.774  68.485  1.00  0.00    -0.128 A  
HETATM   26  C   UNL     1     -10.156   7.825  68.236  1.00  0.00    -0.221 A  
HETATM   27  C   UNL     1      -7.768   4.892  69.786  1.00  0.00    -0.056 A  
HETATM   28  C   UNL     1      -8.050   3.638  70.333  1.00  0.00    -0.062 A  
HETATM   29  C   UNL     1     -10.905   8.938  68.616  1.00  0.00    -0.036 A  
HETATM   30  C   UNL     1      -8.873   2.758  69.642  1.00  0.00    -0.088 A  
HETATM   31  C   UNL     1     -10.280  10.000  69.252  1.00  0.00    -0.214 A  
HETATM   32  F   UNL     1     -10.996  11.080  69.589  1.00  0.00    -0.257 F  
HETATM   33  C   UNL     1      -8.919   9.965  69.532  1.00  0.00    -0.224 A  
HETATM   34  F   UNL     1      -9.131   1.549  70.158  1.00  0.00    -0.102 F  
HETATM   35  C   UNL     1      -9.429   3.113  68.422  1.00  0.00    -0.211 A  
HETATM   36  C   UNL     1      -9.148   4.365  67.875  1.00  0.00    -0.154 A  
HETATM   37  C   UNL     1      -8.166   8.852  69.155  1.00  0.00    -0.118 A  
ENDBRANCH  21  22
ENDBRANCH  20  21
ENDBRANCH  17  20
ENDBRANCH  13  14
ENDBRANCH  10  13
ENDBRANCH   8   9
TORSDOF 6
ENDMDL
MODEL       84
REMARK 921   NORMALIZED FREE ENERGY PREDICTED BY IDOCK:   -5.64 KCAL/MOL
REMARK 922        TOTAL FREE ENERGY PREDICTED BY IDOCK:   -8.89 KCAL/MOL
REMARK 923 INTER-LIGAND FREE ENERGY PREDICTED BY IDOCK:   -8.16 KCAL/MOL
REMARK 924 INTRA-LIGAND FREE ENERGY PREDICTED BY IDOCK:   -0.73 KCAL/MOL
REMARK 927      BINDING AFFINITY PREDICTED BY RF-SCORE:    0.00 PKD
ROOT
HETATM    1  C   UNL     1      -6.205   6.794  65.372  1.00  0.00    -0.039 C  
HETATM    2  C   UNL     1      -6.707   5.583  64.631  1.00  0.00    -0.043 A  
HETATM    3  C   UNL     1      -6.012   5.224  63.459  1.00  0.00    -0.021 A  
HETATM    4  C   UNL     1      -6.458   4.188  62.647  1.00  0.00    -0.022 A  
HETATM    5  C   UNL     1      -7.625   3.512  62.980  1.00  0.00    -0.055 A  
HETATM    6  C   UNL     1      -8.346   3.843  64.143  1.00  0.00    -0.092 A  
HETATM    7  C   UNL     1      -9.594   3.055  64.443  1.00  0.00    -0.150 C  
HETATM    8  C   UNL     1      -7.856   4.849  65.010  1.00  0.00    -0.092 A  
ENDROOT
BRANCH   8   9
HETATM    9  N   UNL     1      -8.564   5.101  66.219  1.00  0.00    -0.113 N  
HETATM   10  C   UNL     1      -8.164   4.614  67.454  1.00  0.00    -0.101 C  
HETATM   11  H   UNL     1      -9.409   5.670  66.175  1.00  0.00     0.000 HD 
HETATM   12  O   UNL     1      -7.171   3.916  67.647  1.00  0.00    -0.064 OA 
BRANCH  10  13
HETATM   13  C   UNL     1      -9.137   4.860  68.616  1.00  0.00    -0.113 C  
BRANCH  13  14
HETATM   14  N   UNL     1      -8.796   6.002  69.502  1.00  0.00    -0.124 NA 
HETATM   15  C   UNL     1      -8.791   7.257  68.698  1.00  0.00    -0.129 C  
HETATM   16  C   UNL     1     -10.187   7.804  68.286  1.00  0.00    -0.201 C  
HETATM   17  N   UNL     1     -11.170   7.911  69.382  1.00  0.00     0.088 NA 
HETATM   18  C   UNL     1     -11.175   6.664  70.166  1.00  0.00    -0.360 C  
HETATM   19  C   UNL     1      -9.775   6.178  70.600  1.00  0.00    -0.174 C  
BRANCH  17  20
HETATM   20  C   UNL     1     -10.959   9.093  70.228  1.00  0.00    -0.245 C  
BRANCH  20  21
HETATM   21  C   UNL     1     -11.032  10.400  69.424  1.00  0.00    -0.296 C  
BRANCH  21  22
HETATM   22  C   UNL     1     -11.926  11.479  70.057  1.00  0.00    -0.435 C  
HETATM   23  C   UNL     1     -11.312  12.905  70.069  1.00  0.00     0.052 C  
HETATM   24  C   UNL     1     -12.127  13.903  70.893  1.00  0.00    -0.391 A  
HETATM   25  C   UNL     1     -11.046  13.382  68.644  1.00  0.00    -0.295 A  
HETATM   26  C   UNL     1     -12.103  13.576  67.738  1.00  0.00    -0.316 A  
HETATM   27  C   UNL     1     -11.465  14.973  71.525  1.00  0.00    -0.377 A  
HETATM   28  C   UNL     1     -12.169  15.873  72.329  1.00  0.00    -0.585 A  
HETATM   29  C   UNL     1     -11.846  13.884  66.402  1.00  0.00    -0.436 A  
HETATM   30  C   UNL     1     -13.539  15.715  72.497  1.00  0.00    -0.552 A  
HETATM   31  C   UNL     1     -10.534  14.008  65.968  1.00  0.00    -0.304 A  
HETATM   32  F   UNL     1     -10.289  14.275  64.679  1.00  0.00    -0.428 F  
HETATM   33  C   UNL     1      -9.471  13.846  66.848  1.00  0.00    -0.263 A  
HETATM   34  F   UNL     1     -14.212  16.568  73.280  1.00  0.00    -0.537 F  
HETATM   35  C   UNL     1     -14.219  14.684  71.868  1.00  0.00    -0.628 A  
HETATM   36  C   UNL     1     -13.518  13.785  71.065  1.00  0.00    -0.082 A  
HETATM   37  C   UNL     1      -9.724  13.539  68.186  1.00  0.00    -0.233 A  
ENDBRANCH  21  22
ENDBRANCH  20  21
ENDBRANCH  17  20
ENDBRANCH  13  14
ENDBRANCH  10  13
ENDBRANCH   8   9
TORSDOF 6
ENDMDL
MODEL       85
REMARK 921   NORMALIZED FREE ENERGY PREDICTED BY IDOCK:   -5.63 KCAL/MOL
REMARK 922        TOTAL FREE ENERGY PREDICTED BY IDOCK:   -8.87 KCAL/MOL
REMARK 923 INTER-LIGAND FREE ENERGY PREDICTED BY IDOCK:   -8.93 KCAL/MOL
REMARK 924 INTRA-LIGAND FREE ENERGY PREDICTED BY IDOCK:    0.05 KCAL/MOL
REMARK 927      BINDING AFFINITY PREDICTED BY RF-SCORE:    0.00 PKD
ROOT
HETATM    1  C   UNL     1     -11.037  16.320  69.992  1.00  0.00    -0.351 C  
HETATM    2  C   UNL     1     -11.936  15.266  70.583  1.00  0.00    -0.386 A  
HETATM    3  C   UNL     1     -12.894  15.704  71.520  1.00  0.00    -0.538 A  
HETATM    4  C   UNL     1     -13.699  14.799  72.201  1.00  0.00    -0.543 A  
HETATM    5  C   UNL     1     -13.540  13.437  71.977  1.00  0.00    -0.577 A  
HETATM    6  C   UNL     1     -12.593  12.963  71.049  1.00  0.00    -0.376 A  
HETATM    7  C   UNL     1     -12.490  11.474  70.852  1.00  0.00    -0.464 C  
HETATM    8  C   UNL     1     -11.821  13.884  70.301  1.00  0.00    -0.290 A  
ENDROOT
BRANCH   8   9
HETATM    9  N   UNL     1     -10.933  13.374  69.312  1.00  0.00    -0.429 N  
HETATM   10  C   UNL     1     -11.253  13.297  67.965  1.00  0.00    -0.276 C  
HETATM   11  H   UNL     1     -10.014  13.049  69.610  1.00  0.00     0.000 HD 
HETATM   12  O   UNL     1     -12.324  13.650  67.475  1.00  0.00    -0.279 OA 
BRANCH  10  13
HETATM   13  C   UNL     1     -10.231  12.577  67.075  1.00  0.00    -0.221 C  
BRANCH  13  14
HETATM   14  N   UNL     1      -9.092  11.949  67.792  1.00  0.00    -0.174 NA 
HETATM   15  C   UNL     1      -9.510  10.611  68.294  1.00  0.00    -0.159 C  
HETATM   16  C   UNL     1      -9.639   9.493  67.221  1.00  0.00    -0.150 C  
HETATM   17  N   UNL     1      -8.481   9.353  66.316  1.00  0.00    -0.124 NA 
HETATM   18  C   UNL     1      -8.079  10.679  65.817  1.00  0.00    -0.158 C  
HETATM   19  C   UNL     1      -7.913  11.751  66.917  1.00  0.00    -0.149 C  
BRANCH  17  20
HETATM   20  C   UNL     1      -7.358   8.631  66.929  1.00  0.00    -0.079 C  
BRANCH  20  21
HETATM   21  C   UNL     1      -7.826   7.397  67.714  1.00  0.00    -0.113 C  
BRANCH  21  22
HETATM   22  C   UNL     1      -8.639   7.725  68.978  1.00  0.00    -0.135 C  
HETATM   23  C   UNL     1      -9.810   6.749  69.268  1.00  0.00    -0.160 C  
HETATM   24  C   UNL     1     -10.724   7.225  70.399  1.00  0.00    -0.253 A  
HETATM   25  C   UNL     1      -9.283   5.332  69.481  1.00  0.00    -0.157 A  
HETATM   26  C   UNL     1      -8.437   5.032  70.563  1.00  0.00    -0.109 A  
HETATM   27  C   UNL     1     -12.085   6.866  70.378  1.00  0.00    -0.250 A  
HETATM   28  C   UNL     1     -12.960   7.326  71.365  1.00  0.00    -0.420 A  
HETATM   29  C   UNL     1      -7.853   3.771  70.679  1.00  0.00    -0.054 A  
HETATM   30  C   UNL     1     -12.477   8.139  72.383  1.00  0.00    -0.262 A  
HETATM   31  C   UNL     1      -8.117   2.803  69.721  1.00  0.00    -0.041 A  
HETATM   32  F   UNL     1      -7.532   1.603  69.818  1.00  0.00    -0.036 F  
HETATM   33  C   UNL     1      -8.969   3.066  68.655  1.00  0.00    -0.190 A  
HETATM   34  F   UNL     1     -13.318   8.594  73.321  1.00  0.00    -0.180 F  
HETATM   35  C   UNL     1     -11.137   8.489  72.440  1.00  0.00    -0.397 A  
HETATM   36  C   UNL     1     -10.263   8.030  71.455  1.00  0.00    -0.243 A  
HETATM   37  C   UNL     1      -9.556   4.326  68.536  1.00  0.00    -0.202 A  
ENDBRANCH  21  22
ENDBRANCH  20  21
ENDBRANCH  17  20
ENDBRANCH  13  14
ENDBRANCH  10  13
ENDBRANCH   8   9
TORSDOF 6
ENDMDL
MODEL       86
REMARK 921   NORMALIZED FREE ENERGY PREDICTED BY IDOCK:   -5.58 KCAL/MOL
REMARK 922        TOTAL FREE ENERGY PREDICTED BY IDOCK:   -8.80 KCAL/MOL
REMARK 923 INTER-LIGAND FREE ENERGY PREDICTED BY IDOCK:   -7.97 KCAL/MOL
REMARK 924 INTRA-LIGAND FREE ENERGY PREDICTED BY IDOCK:   -0.84 KCAL/MOL
REMARK 927      BINDING AFFINITY PREDICTED BY RF-SCORE:    0.00 PKD
ROOT
HETATM    1  C   UNL     1     -11.228  16.829  65.152  1.00  0.00     0.076 C  
HETATM    2  C   UNL     1     -10.482  17.782  66.048  1.00  0.00    -0.286 A  
HETATM    3  C   UNL     1     -10.634  19.157  65.776  1.00  0.00    -0.417 A  
HETATM    4  C   UNL     1      -9.907  20.112  66.475  1.00  0.00    -0.574 A  
HETATM    5  C   UNL     1      -8.993  19.707  67.439  1.00  0.00    -0.383 A  
HETATM    6  C   UNL     1      -8.814  18.342  67.737  1.00  0.00    -0.289 A  
HETATM    7  C   UNL     1      -7.814  17.983  68.804  1.00  0.00    -0.267 C  
HETATM    8  C   UNL     1      -9.603  17.371  67.078  1.00  0.00    -0.273 A  
ENDROOT
BRANCH   8   9
HETATM    9  N   UNL     1      -9.457  16.008  67.462  1.00  0.00    -0.222 N  
HETATM   10  C   UNL     1     -10.377  15.333  68.249  1.00  0.00    -0.234 C  
HETATM   11  H   UNL     1      -8.631  15.501  67.141  1.00  0.00     0.000 HD 
HETATM   12  O   UNL     1     -11.408  15.823  68.704  1.00  0.00    -0.328 OA 
BRANCH  10  13
HETATM   13  C   UNL     1      -9.971  13.918  68.687  1.00  0.00    -0.189 C  
BRANCH  13  14
HETATM   14  N   UNL     1     -10.206  12.848  67.685  1.00  0.00    -0.217 NA 
HETATM   15  C   UNL     1      -8.894  12.376  67.160  1.00  0.00    -0.197 C  
HETATM   16  C   UNL     1      -8.057  11.489  68.124  1.00  0.00    -0.146 C  
HETATM   17  N   UNL     1      -8.788  10.364  68.740  1.00  0.00    -0.148 NA 
HETATM   18  C   UNL     1     -10.080  10.841  69.264  1.00  0.00    -0.177 C  
HETATM   19  C   UNL     1     -10.906  11.676  68.261  1.00  0.00    -0.219 C  
BRANCH  17  20
HETATM   20  C   UNL     1      -8.950   9.221  67.832  1.00  0.00    -0.127 C  
BRANCH  20  21
HETATM   21  C   UNL     1      -7.932   8.107  68.119  1.00  0.00    -0.127 C  
BRANCH  21  22
HETATM   22  C   UNL     1      -8.248   7.273  69.372  1.00  0.00    -0.131 C  
HETATM   23  C   UNL     1      -9.697   6.722  69.436  1.00  0.00    -0.155 C  
HETATM   24  C   UNL     1     -10.040   6.086  70.785  1.00  0.00    -0.248 A  
HETATM   25  C   UNL     1      -9.967   5.795  68.253  1.00  0.00    -0.185 A  
HETATM   26  C   UNL     1      -9.252   4.595  68.099  1.00  0.00    -0.162 A  
HETATM   27  C   UNL     1     -11.371   6.122  71.242  1.00  0.00    -0.335 A  
HETATM   28  C   UNL     1     -11.712   5.600  72.492  1.00  0.00    -0.255 A  
HETATM   29  C   UNL     1      -9.407   3.818  66.950  1.00  0.00    -0.214 A  
HETATM   30  C   UNL     1     -10.726   5.030  73.288  1.00  0.00    -0.258 A  
HETATM   31  C   UNL     1     -10.283   4.233  65.957  1.00  0.00    -0.157 A  
HETATM   32  F   UNL     1     -10.408   3.502  64.842  1.00  0.00    -0.147 F  
HETATM   33  C   UNL     1     -11.020   5.403  66.096  1.00  0.00     0.002 A  
HETATM   34  F   UNL     1     -11.048   4.544  74.493  1.00  0.00    -0.231 F  
HETATM   35  C   UNL     1      -9.411   4.961  72.853  1.00  0.00    -0.152 A  
HETATM   36  C   UNL     1      -9.070   5.482  71.605  1.00  0.00    -0.155 A  
HETATM   37  C   UNL     1     -10.868   6.182  67.244  1.00  0.00    -0.438 A  
ENDBRANCH  21  22
ENDBRANCH  20  21
ENDBRANCH  17  20
ENDBRANCH  13  14
ENDBRANCH  10  13
ENDBRANCH   8   9
TORSDOF 6
ENDMDL
MODEL       87
REMARK 921   NORMALIZED FREE ENERGY PREDICTED BY IDOCK:   -5.57 KCAL/MOL
REMARK 922        TOTAL FREE ENERGY PREDICTED BY IDOCK:   -8.79 KCAL/MOL
REMARK 923 INTER-LIGAND FREE ENERGY PREDICTED BY IDOCK:   -7.93 KCAL/MOL
REMARK 924 INTRA-LIGAND FREE ENERGY PREDICTED BY IDOCK:   -0.86 KCAL/MOL
REMARK 927      BINDING AFFINITY PREDICTED BY RF-SCORE:    0.00 PKD
ROOT
HETATM    1  C   UNL     1      -8.702   5.345  66.394  1.00  0.00    -0.121 C  
HETATM    2  C   UNL     1      -7.590   4.647  67.132  1.00  0.00    -0.086 A  
HETATM    3  C   UNL     1      -6.840   3.702  66.402  1.00  0.00    -0.054 A  
HETATM    4  C   UNL     1      -5.864   2.929  67.018  1.00  0.00    -0.023 A  
HETATM    5  C   UNL     1      -5.641   3.067  68.382  1.00  0.00    -0.018 A  
HETATM    6  C   UNL     1      -6.371   3.999  69.143  1.00  0.00    -0.029 A  
HETATM    7  C   UNL     1      -6.061   4.099  70.614  1.00  0.00    -0.018 C  
HETATM    8  C   UNL     1      -7.315   4.839  68.507  1.00  0.00    -0.065 A  
ENDROOT
BRANCH   8   9
HETATM    9  N   UNL     1      -7.976   5.827  69.290  1.00  0.00    -0.099 N  
HETATM   10  C   UNL     1      -9.183   5.609  69.937  1.00  0.00    -0.146 C  
HETATM   11  H   UNL     1      -7.539   6.745  69.379  1.00  0.00     0.000 HD 
HETATM   12  O   UNL     1      -9.815   4.555  69.908  1.00  0.00    -0.203 OA 
BRANCH  10  13
HETATM   13  C   UNL     1      -9.817   6.838  70.603  1.00  0.00    -0.179 C  
BRANCH  13  14
HETATM   14  N   UNL     1     -11.013   7.389  69.917  1.00  0.00    -0.245 NA 
HETATM   15  C   UNL     1     -11.554   8.523  70.717  1.00  0.00    -0.231 C  
HETATM   16  C   UNL     1     -10.735   9.844  70.662  1.00  0.00    -0.303 C  
HETATM   17  N   UNL     1     -10.378  10.307  69.306  1.00  0.00    -0.216 NA 
HETATM   18  C   UNL     1      -9.836   9.182  68.525  1.00  0.00    -0.164 C  
HETATM   19  C   UNL     1     -10.702   7.904  68.563  1.00  0.00    -0.024 C  
BRANCH  17  20
HETATM   20  C   UNL     1     -11.492  10.972  68.616  1.00  0.00    -0.308 C  
BRANCH  20  21
HETATM   21  C   UNL     1     -11.838  12.327  69.251  1.00  0.00    -0.363 C  
BRANCH  21  22
HETATM   22  C   UNL     1     -10.827  13.444  68.939  1.00  0.00    -0.253 C  
HETATM   23  C   UNL     1     -11.409  14.881  69.000  1.00  0.00    -0.310 C  
HETATM   24  C   UNL     1     -10.441  15.945  68.478  1.00  0.00    -0.241 A  
HETATM   25  C   UNL     1     -11.930  15.185  70.403  1.00  0.00    -0.364 A  
HETATM   26  C   UNL     1     -11.058  15.224  71.505  1.00  0.00    -0.272 A  
HETATM   27  C   UNL     1     -10.959  17.109  67.880  1.00  0.00    -0.208 A  
HETATM   28  C   UNL     1     -10.106  18.077  67.343  1.00  0.00    -0.354 A  
HETATM   29  C   UNL     1     -11.556  15.371  72.799  1.00  0.00    -0.464 A  
HETATM   30  C   UNL     1      -8.731  17.890  67.410  1.00  0.00    -0.237 A  
HETATM   31  C   UNL     1     -12.924  15.488  72.998  1.00  0.00    -0.499 A  
HETATM   32  F   UNL     1     -13.402  15.599  74.244  1.00  0.00    -0.304 F  
HETATM   33  C   UNL     1     -13.806  15.477  71.924  1.00  0.00    -0.589 A  
HETATM   34  F   UNL     1      -7.912  18.809  66.882  1.00  0.00    -0.232 F  
HETATM   35  C   UNL     1      -8.194  16.764  68.014  1.00  0.00    -0.192 A  
HETATM   36  C   UNL     1      -9.044  15.797  68.550  1.00  0.00    -0.194 A  
HETATM   37  C   UNL     1     -13.312  15.332  70.627  1.00  0.00    -0.320 A  
ENDBRANCH  21  22
ENDBRANCH  20  21
ENDBRANCH  17  20
ENDBRANCH  13  14
ENDBRANCH  10  13
ENDBRANCH   8   9
TORSDOF 6
ENDMDL
MODEL       88
REMARK 921   NORMALIZED FREE ENERGY PREDICTED BY IDOCK:   -5.56 KCAL/MOL
REMARK 922        TOTAL FREE ENERGY PREDICTED BY IDOCK:   -8.78 KCAL/MOL
REMARK 923 INTER-LIGAND FREE ENERGY PREDICTED BY IDOCK:   -8.09 KCAL/MOL
REMARK 924 INTRA-LIGAND FREE ENERGY PREDICTED BY IDOCK:   -0.69 KCAL/MOL
REMARK 927      BINDING AFFINITY PREDICTED BY RF-SCORE:    0.00 PKD
ROOT
HETATM    1  C   UNL     1      -6.381  18.775  67.572  1.00  0.00    -0.192 C  
HETATM    2  C   UNL     1      -7.882  18.893  67.572  1.00  0.00    -0.256 A  
HETATM    3  C   UNL     1      -8.419  20.150  67.226  1.00  0.00    -0.403 A  
HETATM    4  C   UNL     1      -9.785  20.392  67.298  1.00  0.00    -0.602 A  
HETATM    5  C   UNL     1     -10.636  19.390  67.746  1.00  0.00    -0.538 A  
HETATM    6  C   UNL     1     -10.136  18.122  68.101  1.00  0.00    -0.388 A  
HETATM    7  C   UNL     1     -11.123  17.084  68.564  1.00  0.00    -0.156 C  
HETATM    8  C   UNL     1      -8.754  17.849  67.961  1.00  0.00    -0.256 A  
ENDROOT
BRANCH   8   9
HETATM    9  N   UNL     1      -8.294  16.533  68.249  1.00  0.00    -0.183 N  
HETATM   10  C   UNL     1      -8.392  15.477  67.355  1.00  0.00    -0.182 C  
HETATM   11  H   UNL     1      -7.871  16.357  69.160  1.00  0.00     0.000 HD 
HETATM   12  O   UNL     1      -8.881  15.550  66.230  1.00  0.00    -0.306 OA 
BRANCH  10  13
HETATM   13  C   UNL     1      -7.985  14.100  67.900  1.00  0.00    -0.156 C  
BRANCH  13  14
HETATM   14  N   UNL     1      -8.041  12.985  66.921  1.00  0.00    -0.021 NA 
HETATM   15  C   UNL     1      -7.071  11.930  67.327  1.00  0.00    -0.143 C  
HETATM   16  C   UNL     1      -7.480  11.067  68.554  1.00  0.00    -0.106 C  
HETATM   17  N   UNL     1      -8.844  10.504  68.500  1.00  0.00    -0.136 NA 
HETATM   18  C   UNL     1      -9.799  11.555  68.106  1.00  0.00    -0.194 C  
HETATM   19  C   UNL     1      -9.382  12.358  66.855  1.00  0.00    -0.213 C  
BRANCH  17  20
HETATM   20  C   UNL     1      -8.941   9.319  67.637  1.00  0.00    -0.119 C  
BRANCH  20  21
HETATM   21  C   UNL     1      -7.880   8.264  67.984  1.00  0.00    -0.118 C  
BRANCH  21  22
HETATM   22  C   UNL     1      -8.158   7.497  69.287  1.00  0.00    -0.126 C  
HETATM   23  C   UNL     1      -9.551   6.817  69.356  1.00  0.00    -0.146 C  
HETATM   24  C   UNL     1      -9.877   6.252  70.740  1.00  0.00    -0.213 A  
HETATM   25  C   UNL     1      -9.696   5.786  68.240  1.00  0.00    -0.153 A  
HETATM   26  C   UNL     1      -8.869   4.651  68.193  1.00  0.00    -0.119 A  
HETATM   27  C   UNL     1     -11.219   6.195  71.159  1.00  0.00    -0.355 A  
HETATM   28  C   UNL     1     -11.550   5.734  72.436  1.00  0.00    -0.320 A  
HETATM   29  C   UNL     1      -8.916   3.782  67.102  1.00  0.00    -0.159 A  
HETATM   30  C   UNL     1     -10.542   5.319  73.296  1.00  0.00    -0.245 A  
HETATM   31  C   UNL     1      -9.793   4.040  66.059  1.00  0.00    -0.166 A  
HETATM   32  F   UNL     1      -9.815   3.221  65.000  1.00  0.00    -0.165 F  
HETATM   33  C   UNL     1     -10.639   5.142  66.091  1.00  0.00    -0.293 A  
HETATM   34  F   UNL     1     -10.856   4.892  74.527  1.00  0.00    -0.317 F  
HETATM   35  C   UNL     1      -9.213   5.343  72.901  1.00  0.00    -0.139 A  
HETATM   36  C   UNL     1      -8.882   5.803  71.626  1.00  0.00    -0.138 A  
HETATM   37  C   UNL     1     -10.597   6.012  67.182  1.00  0.00    -0.374 A  
ENDBRANCH  21  22
ENDBRANCH  20  21
ENDBRANCH  17  20
ENDBRANCH  13  14
ENDBRANCH  10  13
ENDBRANCH   8   9
TORSDOF 6
ENDMDL
MODEL       89
REMARK 921   NORMALIZED FREE ENERGY PREDICTED BY IDOCK:   -5.54 KCAL/MOL
REMARK 922        TOTAL FREE ENERGY PREDICTED BY IDOCK:   -8.76 KCAL/MOL
REMARK 923 INTER-LIGAND FREE ENERGY PREDICTED BY IDOCK:   -8.51 KCAL/MOL
REMARK 924 INTRA-LIGAND FREE ENERGY PREDICTED BY IDOCK:   -0.24 KCAL/MOL
REMARK 927      BINDING AFFINITY PREDICTED BY RF-SCORE:    0.00 PKD
ROOT
HETATM    1  C   UNL     1      -9.072   4.519  68.743  1.00  0.00    -0.166 C  
HETATM    2  C   UNL     1      -9.070   3.729  70.025  1.00  0.00    -0.193 A  
HETATM    3  C   UNL     1      -8.179   2.640  70.097  1.00  0.00    -0.065 A  
HETATM    4  C   UNL     1      -8.174   1.786  71.193  1.00  0.00    -0.057 A  
HETATM    5  C   UNL     1      -9.083   1.990  72.224  1.00  0.00    -0.116 A  
HETATM    6  C   UNL     1      -9.989   3.067  72.186  1.00  0.00    -0.233 A  
HETATM    7  C   UNL     1     -10.933   3.230  73.348  1.00  0.00    -0.301 C  
HETATM    8  C   UNL     1      -9.948   3.981  71.106  1.00  0.00    -0.127 A  
ENDROOT
BRANCH   8   9
HETATM    9  N   UNL     1     -10.821   5.105  71.140  1.00  0.00    -0.072 N  
HETATM   10  C   UNL     1     -10.563   6.251  71.878  1.00  0.00    -0.219 C  
HETATM   11  H   UNL     1     -11.681   5.067  70.593  1.00  0.00     0.000 HD 
HETATM   12  O   UNL     1      -9.570   6.426  72.581  1.00  0.00    -0.149 OA 
BRANCH  10  13
HETATM   13  C   UNL     1     -11.691   7.291  71.913  1.00  0.00    -0.287 C  
BRANCH  13  14
HETATM   14  N   UNL     1     -11.268   8.680  72.228  1.00  0.00    -0.357 NA 
HETATM   15  C   UNL     1     -10.460   9.212  71.095  1.00  0.00    -0.315 C  
HETATM   16  C   UNL     1     -11.255   9.590  69.814  1.00  0.00    -0.144 C  
HETATM   17  N   UNL     1     -12.437  10.446  70.036  1.00  0.00    -0.190 NA 
HETATM   18  C   UNL     1     -13.235   9.908  71.151  1.00  0.00    -0.347 C  
HETATM   19  C   UNL     1     -12.420   9.591  72.424  1.00  0.00    -0.126 C  
BRANCH  17  20
HETATM   20  C   UNL     1     -12.092  11.859  70.236  1.00  0.00    -0.325 C  
BRANCH  20  21
HETATM   21  C   UNL     1     -11.661  12.539  68.928  1.00  0.00    -0.367 C  
BRANCH  21  22
HETATM   22  C   UNL     1     -10.386  11.949  68.302  1.00  0.00    -0.211 C  
HETATM   23  C   UNL     1     -10.522  11.549  66.809  1.00  0.00    -0.275 C  
HETATM   24  C   UNL     1      -9.313  10.772  66.282  1.00  0.00    -0.205 A  
HETATM   25  C   UNL     1     -10.863  12.771  65.959  1.00  0.00    -0.301 A  
HETATM   26  C   UNL     1      -9.966  13.846  65.846  1.00  0.00    -0.317 A  
HETATM   27  C   UNL     1      -9.499   9.829  65.254  1.00  0.00    -0.343 A  
HETATM   28  C   UNL     1      -8.429   9.063  64.785  1.00  0.00    -0.197 A  
HETATM   29  C   UNL     1     -10.336  15.013  65.178  1.00  0.00    -0.422 A  
HETATM   30  C   UNL     1      -7.166   9.243  65.335  1.00  0.00    -0.090 A  
HETATM   31  C   UNL     1     -11.600  15.108  64.614  1.00  0.00    -0.357 A  
HETATM   32  F   UNL     1     -11.964  16.240  63.999  1.00  0.00    -0.468 F  
HETATM   33  C   UNL     1     -12.498  14.050  64.690  1.00  0.00    -0.366 A  
HETATM   34  F   UNL     1      -6.142   8.498  64.897  1.00  0.00    -0.056 F  
HETATM   35  C   UNL     1      -6.950  10.181  66.333  1.00  0.00    -0.105 A  
HETATM   36  C   UNL     1      -8.018  10.946  66.801  1.00  0.00    -0.143 A  
HETATM   37  C   UNL     1     -12.130  12.880  65.356  1.00  0.00    -0.501 A  
ENDBRANCH  21  22
ENDBRANCH  20  21
ENDBRANCH  17  20
ENDBRANCH  13  14
ENDBRANCH  10  13
ENDBRANCH   8   9
TORSDOF 6
ENDMDL
MODEL       90
REMARK 921   NORMALIZED FREE ENERGY PREDICTED BY IDOCK:   -5.48 KCAL/MOL
REMARK 922        TOTAL FREE ENERGY PREDICTED BY IDOCK:   -8.67 KCAL/MOL
REMARK 923 INTER-LIGAND FREE ENERGY PREDICTED BY IDOCK:   -7.60 KCAL/MOL
REMARK 924 INTRA-LIGAND FREE ENERGY PREDICTED BY IDOCK:   -1.07 KCAL/MOL
REMARK 927      BINDING AFFINITY PREDICTED BY RF-SCORE:    0.00 PKD
ROOT
HETATM    1  C   UNL     1     -10.098  17.088  69.522  1.00  0.00    -0.048 C  
HETATM    2  C   UNL     1     -10.245  17.599  68.113  1.00  0.00    -0.371 A  
HETATM    3  C   UNL     1     -10.243  18.998  67.944  1.00  0.00    -0.479 A  
HETATM    4  C   UNL     1     -10.478  19.571  66.700  1.00  0.00    -0.593 A  
HETATM    5  C   UNL     1     -10.750  18.755  65.610  1.00  0.00    -0.164 A  
HETATM    6  C   UNL     1     -10.762  17.353  65.742  1.00  0.00    -0.120 A  
HETATM    7  C   UNL     1     -11.051  16.535  64.511  1.00  0.00    -0.023 C  
HETATM    8  C   UNL     1     -10.452  16.763  66.990  1.00  0.00    -0.285 A  
ENDROOT
BRANCH   8   9
HETATM    9  N   UNL     1     -10.391  15.343  67.069  1.00  0.00    -0.274 N  
HETATM   10  C   UNL     1     -11.506  14.540  67.258  1.00  0.00    -0.365 C  
HETATM   11  H   UNL     1      -9.480  14.893  66.983  1.00  0.00     0.000 HD 
HETATM   12  O   UNL     1     -12.657  14.952  67.381  1.00  0.00     0.328 OA 
BRANCH  10  13
HETATM   13  C   UNL     1     -11.225  13.046  67.474  1.00  0.00    -0.284 C  
BRANCH  13  14
HETATM   14  N   UNL     1     -10.496  12.708  68.723  1.00  0.00    -0.188 NA 
HETATM   15  C   UNL     1     -11.423  12.848  69.881  1.00  0.00    -0.077 C  
HETATM   16  C   UNL     1     -12.495  11.732  70.031  1.00  0.00    -0.065 C  
HETATM   17  N   UNL     1     -11.978  10.350  69.963  1.00  0.00    -0.264 NA 
HETATM   18  C   UNL     1     -11.070  10.217  68.811  1.00  0.00    -0.228 C  
HETATM   19  C   UNL     1      -9.988  11.316  68.722  1.00  0.00    -0.193 C  
BRANCH  17  20
HETATM   20  C   UNL     1     -11.348   9.911  71.215  1.00  0.00    -0.333 C  
BRANCH  20  21
HETATM   21  C   UNL     1     -11.913   8.570  71.707  1.00  0.00    -0.393 C  
BRANCH  21  22
HETATM   22  C   UNL     1     -10.858   7.624  72.304  1.00  0.00    -0.318 C  
HETATM   23  C   UNL     1     -10.752   6.244  71.601  1.00  0.00    -0.284 C  
HETATM   24  C   UNL     1      -9.854   5.256  72.349  1.00  0.00    -0.198 A  
HETATM   25  C   UNL     1     -10.356   6.422  70.137  1.00  0.00    -0.245 A  
HETATM   26  C   UNL     1      -9.112   6.974  69.787  1.00  0.00    -0.144 A  
HETATM   27  C   UNL     1     -10.125   3.878  72.255  1.00  0.00    -0.234 A  
HETATM   28  C   UNL     1      -9.360   2.950  72.966  1.00  0.00    -0.122 A  
HETATM   29  C   UNL     1      -8.809   7.255  68.455  1.00  0.00    -0.128 A  
HETATM   30  C   UNL     1      -8.315   3.394  73.767  1.00  0.00    -0.075 A  
HETATM   31  C   UNL     1      -9.744   6.979  67.467  1.00  0.00    -0.136 A  
HETATM   32  F   UNL     1      -9.463   7.277  66.192  1.00  0.00    -0.206 F  
HETATM   33  C   UNL     1     -10.971   6.410  67.783  1.00  0.00    -0.425 A  
HETATM   34  F   UNL     1      -7.591   2.507  74.462  1.00  0.00    -0.039 F  
HETATM   35  C   UNL     1      -8.012   4.744  73.859  1.00  0.00    -0.102 A  
HETATM   36  C   UNL     1      -8.775   5.671  73.149  1.00  0.00    -0.120 A  
HETATM   37  C   UNL     1     -11.277   6.126  69.115  1.00  0.00    -0.409 A  
ENDBRANCH  21  22
ENDBRANCH  20  21
ENDBRANCH  17  20
ENDBRANCH  13  14
ENDBRANCH  10  13
ENDBRANCH   8   9
TORSDOF 6
ENDMDL
MODEL       91
REMARK 921   NORMALIZED FREE ENERGY PREDICTED BY IDOCK:   -5.47 KCAL/MOL
REMARK 922        TOTAL FREE ENERGY PREDICTED BY IDOCK:   -8.66 KCAL/MOL
REMARK 923 INTER-LIGAND FREE ENERGY PREDICTED BY IDOCK:   -7.72 KCAL/MOL
REMARK 924 INTRA-LIGAND FREE ENERGY PREDICTED BY IDOCK:   -0.94 KCAL/MOL
REMARK 927      BINDING AFFINITY PREDICTED BY RF-SCORE:    0.00 PKD
ROOT
HETATM    1  C   UNL     1      -9.592   6.066  66.044  1.00  0.00    -0.029 C  
HETATM    2  C   UNL     1      -9.181   4.650  66.350  1.00  0.00    -0.133 A  
HETATM    3  C   UNL     1      -8.660   3.896  65.279  1.00  0.00    -0.114 A  
HETATM    4  C   UNL     1      -8.350   2.550  65.432  1.00  0.00    -0.096 A  
HETATM    5  C   UNL     1      -8.586   1.927  66.650  1.00  0.00    -0.114 A  
HETATM    6  C   UNL     1      -9.107   2.648  67.742  1.00  0.00    -0.227 A  
HETATM    7  C   UNL     1      -9.322   1.905  69.034  1.00  0.00    -0.194 C  
HETATM    8  C   UNL     1      -9.356   4.035  67.613  1.00  0.00    -0.181 A  
ENDROOT
BRANCH   8   9
HETATM    9  N   UNL     1      -9.803   4.751  68.759  1.00  0.00    -0.165 N  
HETATM   10  C   UNL     1      -8.965   5.511  69.560  1.00  0.00    -0.113 C  
HETATM   11  H   UNL     1     -10.792   4.701  69.004  1.00  0.00     0.000 HD 
HETATM   12  O   UNL     1      -7.758   5.652  69.380  1.00  0.00    -0.084 OA 
BRANCH  10  13
HETATM   13  C   UNL     1      -9.598   6.082  70.837  1.00  0.00    -0.169 C  
BRANCH  13  14
HETATM   14  N   UNL     1     -10.841   6.869  70.636  1.00  0.00    -0.236 NA 
HETATM   15  C   UNL     1     -10.904   7.949  71.661  1.00  0.00    -0.232 C  
HETATM   16  C   UNL     1      -9.938   9.147  71.445  1.00  0.00    -0.303 C  
HETATM   17  N   UNL     1      -9.957   9.735  70.091  1.00  0.00    -0.255 NA 
HETATM   18  C   UNL     1      -9.884   8.662  69.084  1.00  0.00    -0.185 C  
HETATM   19  C   UNL     1     -10.893   7.513  69.303  1.00  0.00    -0.117 C  
BRANCH  17  20
HETATM   20  C   UNL     1     -11.105  10.624  69.868  1.00  0.00    -0.298 C  
BRANCH  20  21
HETATM   21  C   UNL     1     -11.486  10.714  68.383  1.00  0.00    -0.330 C  
BRANCH  21  22
HETATM   22  C   UNL     1     -11.342  12.121  67.780  1.00  0.00    -0.371 C  
HETATM   23  C   UNL     1      -9.923  12.458  67.249  1.00  0.00    -0.209 C  
HETATM   24  C   UNL     1      -9.761  13.929  66.858  1.00  0.00    -0.268 A  
HETATM   25  C   UNL     1      -9.531  11.496  66.131  1.00  0.00    -0.239 A  
HETATM   26  C   UNL     1     -10.246  11.463  64.922  1.00  0.00    -0.330 A  
HETATM   27  C   UNL     1      -8.495  14.533  66.974  1.00  0.00    -0.222 A  
HETATM   28  C   UNL     1      -8.320  15.887  66.678  1.00  0.00    -0.328 A  
HETATM   29  C   UNL     1      -9.968  10.495  63.958  1.00  0.00    -0.363 A  
HETATM   30  C   UNL     1      -9.407  16.641  66.254  1.00  0.00    -0.292 A  
HETATM   31  C   UNL     1      -8.970   9.560  64.194  1.00  0.00    -0.198 A  
HETATM   32  F   UNL     1      -8.724   8.613  63.280  1.00  0.00    -0.172 F  
HETATM   33  C   UNL     1      -8.231   9.585  65.370  1.00  0.00    -0.128 A  
HETATM   34  F   UNL     1      -9.245  17.943  65.985  1.00  0.00    -0.264 F  
HETATM   35  C   UNL     1     -10.660  16.066  66.110  1.00  0.00    -0.302 A  
HETATM   36  C   UNL     1     -10.836  14.714  66.406  1.00  0.00    -0.315 A  
HETATM   37  C   UNL     1      -8.505  10.554  66.337  1.00  0.00    -0.143 A  
ENDBRANCH  21  22
ENDBRANCH  20  21
ENDBRANCH  17  20
ENDBRANCH  13  14
ENDBRANCH  10  13
ENDBRANCH   8   9
TORSDOF 6
ENDMDL
MODEL       92
REMARK 921   NORMALIZED FREE ENERGY PREDICTED BY IDOCK:   -5.46 KCAL/MOL
REMARK 922        TOTAL FREE ENERGY PREDICTED BY IDOCK:   -8.65 KCAL/MOL
REMARK 923 INTER-LIGAND FREE ENERGY PREDICTED BY IDOCK:   -7.34 KCAL/MOL
REMARK 924 INTRA-LIGAND FREE ENERGY PREDICTED BY IDOCK:   -1.31 KCAL/MOL
REMARK 927      BINDING AFFINITY PREDICTED BY RF-SCORE:    0.00 PKD
ROOT
HETATM    1  C   UNL     1     -10.715  12.301  63.269  1.00  0.00    -0.335 C  
HETATM    2  C   UNL     1     -11.053  12.639  64.697  1.00  0.00    -0.348 A  
HETATM    3  C   UNL     1     -12.297  13.262  64.923  1.00  0.00    -0.476 A  
HETATM    4  C   UNL     1     -12.656  13.708  66.189  1.00  0.00    -0.391 A  
HETATM    5  C   UNL     1     -11.765  13.566  67.245  1.00  0.00    -0.423 A  
HETATM    6  C   UNL     1     -10.513  12.949  67.056  1.00  0.00    -0.244 A  
HETATM    7  C   UNL     1      -9.608  12.820  68.252  1.00  0.00    -0.211 C  
HETATM    8  C   UNL     1     -10.172  12.429  65.785  1.00  0.00    -0.260 A  
ENDROOT
BRANCH   8   9
HETATM    9  N   UNL     1      -8.935  11.738  65.648  1.00  0.00    -0.407 N  
HETATM   10  C   UNL     1      -8.844  10.372  65.427  1.00  0.00    -0.179 C  
HETATM   11  H   UNL     1      -8.071  12.275  65.716  1.00  0.00     0.000 HD 
HETATM   12  O   UNL     1      -9.802   9.609  65.328  1.00  0.00    -0.310 OA 
BRANCH  10  13
HETATM   13  C   UNL     1      -7.426   9.783  65.462  1.00  0.00    -0.115 C  
BRANCH  13  14
HETATM   14  N   UNL     1      -7.307   8.446  66.098  1.00  0.00    -0.083 NA 
HETATM   15  C   UNL     1      -5.872   8.170  66.387  1.00  0.00    -0.041 C  
HETATM   16  C   UNL     1      -5.257   8.954  67.581  1.00  0.00    -0.034 C  
HETATM   17  N   UNL     1      -6.041   8.911  68.832  1.00  0.00    -0.044 NA 
HETATM   18  C   UNL     1      -7.457   9.194  68.539  1.00  0.00    -0.081 C  
HETATM   19  C   UNL     1      -8.047   8.361  67.379  1.00  0.00    -0.106 C  
BRANCH  17  20
HETATM   20  C   UNL     1      -5.871   7.654  69.572  1.00  0.00    -0.023 C  
BRANCH  20  21
HETATM   21  C   UNL     1      -6.638   7.660  70.903  1.00  0.00    -0.038 C  
BRANCH  21  22
HETATM   22  C   UNL     1      -7.470   6.391  71.155  1.00  0.00    -0.085 C  
HETATM   23  C   UNL     1      -8.750   6.613  72.003  1.00  0.00    -0.127 C  
HETATM   24  C   UNL     1      -9.433   5.306  72.415  1.00  0.00    -0.160 A  
HETATM   25  C   UNL     1      -9.694   7.585  71.300  1.00  0.00    -0.173 A  
HETATM   26  C   UNL     1     -10.273   7.260  70.061  1.00  0.00    -0.206 A  
HETATM   27  C   UNL     1     -10.154   5.260  73.623  1.00  0.00    -0.213 A  
HETATM   28  C   UNL     1     -10.745   4.071  74.056  1.00  0.00    -0.298 A  
HETATM   29  C   UNL     1     -11.027   8.202  69.361  1.00  0.00    -0.015 A  
HETATM   30  C   UNL     1     -10.627   2.925  73.280  1.00  0.00    -0.166 A  
HETATM   31  C   UNL     1     -11.214   9.467  69.899  1.00  0.00    -0.155 A  
HETATM   32  F   UNL     1     -11.914  10.379  69.212  1.00  0.00    -0.288 F  
HETATM   33  C   UNL     1     -10.674   9.806  71.134  1.00  0.00    -0.284 A  
HETATM   34  F   UNL     1     -11.180   1.780  73.703  1.00  0.00    -0.204 F  
HETATM   35  C   UNL     1      -9.942   2.948  72.075  1.00  0.00    -0.227 A  
HETATM   36  C   UNL     1      -9.352   4.135  71.641  1.00  0.00    -0.202 A  
HETATM   37  C   UNL     1      -9.919   8.865  71.838  1.00  0.00    -0.384 A  
ENDBRANCH  21  22
ENDBRANCH  20  21
ENDBRANCH  17  20
ENDBRANCH  13  14
ENDBRANCH  10  13
ENDBRANCH   8   9
TORSDOF 6
ENDMDL
MODEL       93
REMARK 921   NORMALIZED FREE ENERGY PREDICTED BY IDOCK:   -5.45 KCAL/MOL
REMARK 922        TOTAL FREE ENERGY PREDICTED BY IDOCK:   -8.63 KCAL/MOL
REMARK 923 INTER-LIGAND FREE ENERGY PREDICTED BY IDOCK:   -7.99 KCAL/MOL
REMARK 924 INTRA-LIGAND FREE ENERGY PREDICTED BY IDOCK:   -0.64 KCAL/MOL
REMARK 927      BINDING AFFINITY PREDICTED BY RF-SCORE:    0.00 PKD
ROOT
HETATM    1  C   UNL     1      -9.496  20.047  66.630  1.00  0.00    -0.524 C  
HETATM    2  C   UNL     1      -8.154  19.768  67.254  1.00  0.00    -0.327 A  
HETATM    3  C   UNL     1      -7.355  20.886  67.565  1.00  0.00    -0.334 A  
HETATM    4  C   UNL     1      -6.060  20.732  68.046  1.00  0.00    -0.364 A  
HETATM    5  C   UNL     1      -5.532  19.456  68.195  1.00  0.00    -0.203 A  
HETATM    6  C   UNL     1      -6.301  18.316  67.894  1.00  0.00    -0.190 A  
HETATM    7  C   UNL     1      -5.663  16.966  68.095  1.00  0.00    -0.120 C  
HETATM    8  C   UNL     1      -7.644  18.466  67.473  1.00  0.00    -0.223 A  
ENDROOT
BRANCH   8   9
HETATM    9  N   UNL     1      -8.419  17.292  67.256  1.00  0.00    -0.195 N  
HETATM   10  C   UNL     1      -9.475  16.913  68.070  1.00  0.00    -0.243 C  
HETATM   11  H   UNL     1      -8.185  16.698  66.461  1.00  0.00     0.000 HD 
HETATM   12  O   UNL     1      -9.858  17.533  69.060  1.00  0.00    -0.285 OA 
BRANCH  10  13
HETATM   13  C   UNL     1     -10.091  15.539  67.771  1.00  0.00    -0.232 C  
BRANCH  13  14
HETATM   14  N   UNL     1      -9.954  14.530  68.852  1.00  0.00    -0.226 NA 
HETATM   15  C   UNL     1     -11.311  14.140  69.329  1.00  0.00    -0.281 C  
HETATM   16  C   UNL     1     -12.127  13.222  68.376  1.00  0.00    -0.209 C  
HETATM   17  N   UNL     1     -11.407  12.033  67.877  1.00  0.00    -0.282 NA 
HETATM   18  C   UNL     1     -10.070  12.428  67.400  1.00  0.00    -0.201 C  
HETATM   19  C   UNL     1      -9.270  13.298  68.394  1.00  0.00    -0.145 C  
BRANCH  17  20
HETATM   20  C   UNL     1     -11.341  10.947  68.864  1.00  0.00    -0.288 C  
BRANCH  20  21
HETATM   21  C   UNL     1     -10.431   9.800  68.401  1.00  0.00    -0.250 C  
BRANCH  21  22
HETATM   22  C   UNL     1      -9.733   9.048  69.547  1.00  0.00    -0.171 C  
HETATM   23  C   UNL     1     -10.211   7.585  69.748  1.00  0.00    -0.211 C  
HETATM   24  C   UNL     1      -9.659   6.942  71.022  1.00  0.00    -0.172 A  
HETATM   25  C   UNL     1      -9.938   6.758  68.494  1.00  0.00    -0.149 A  
HETATM   26  C   UNL     1      -8.624   6.530  68.052  1.00  0.00    -0.118 A  
HETATM   27  C   UNL     1     -10.420   5.956  71.678  1.00  0.00    -0.285 A  
HETATM   28  C   UNL     1      -9.972   5.385  72.872  1.00  0.00    -0.193 A  
HETATM   29  C   UNL     1      -8.385   5.888  66.837  1.00  0.00    -0.108 A  
HETATM   30  C   UNL     1      -8.757   5.790  73.411  1.00  0.00    -0.120 A  
HETATM   31  C   UNL     1      -9.457   5.464  66.064  1.00  0.00    -0.146 A  
HETATM   32  F   UNL     1      -9.225   4.874  64.884  1.00  0.00    -0.155 F  
HETATM   33  C   UNL     1     -10.765   5.655  66.490  1.00  0.00    -0.296 A  
HETATM   34  F   UNL     1      -8.335   5.255  74.564  1.00  0.00    -0.103 F  
HETATM   35  C   UNL     1      -7.978   6.743  72.774  1.00  0.00    -0.099 A  
HETATM   36  C   UNL     1      -8.423   7.313  71.582  1.00  0.00    -0.114 A  
HETATM   37  C   UNL     1     -11.008   6.296  67.706  1.00  0.00    -0.427 A  
ENDBRANCH  21  22
ENDBRANCH  20  21
ENDBRANCH  17  20
ENDBRANCH  13  14
ENDBRANCH  10  13
ENDBRANCH   8   9
TORSDOF 6
ENDMDL
MODEL       94
REMARK 921   NORMALIZED FREE ENERGY PREDICTED BY IDOCK:   -5.44 KCAL/MOL
REMARK 922        TOTAL FREE ENERGY PREDICTED BY IDOCK:   -8.62 KCAL/MOL
REMARK 923 INTER-LIGAND FREE ENERGY PREDICTED BY IDOCK:   -8.32 KCAL/MOL
REMARK 924 INTRA-LIGAND FREE ENERGY PREDICTED BY IDOCK:   -0.30 KCAL/MOL
REMARK 927      BINDING AFFINITY PREDICTED BY RF-SCORE:    0.00 PKD
ROOT
HETATM    1  C   UNL     1     -11.997  16.401  72.658  1.00  0.00    -0.595 C  
HETATM    2  C   UNL     1     -12.478  15.083  72.111  1.00  0.00    -0.421 A  
HETATM    3  C   UNL     1     -13.640  14.541  72.698  1.00  0.00    -0.577 A  
HETATM    4  C   UNL     1     -14.105  13.282  72.338  1.00  0.00    -0.460 A  
HETATM    5  C   UNL     1     -13.399  12.531  71.406  1.00  0.00    -0.058 A  
HETATM    6  C   UNL     1     -12.234  13.040  70.801  1.00  0.00    -0.359 A  
HETATM    7  C   UNL     1     -11.533  12.171  69.790  1.00  0.00    -0.261 C  
HETATM    8  C   UNL     1     -11.797  14.350  71.111  1.00  0.00    -0.251 A  
ENDROOT
BRANCH   8   9
HETATM    9  N   UNL     1     -10.665  14.865  70.419  1.00  0.00    -0.502 N  
HETATM   10  C   UNL     1     -10.751  15.552  69.218  1.00  0.00    -0.245 C  
HETATM   11  H   UNL     1      -9.742  14.721  70.828  1.00  0.00     0.000 HD 
HETATM   12  O   UNL     1     -11.796  15.791  68.617  1.00  0.00    -0.385 OA 
BRANCH  10  13
HETATM   13  C   UNL     1      -9.413  15.894  68.546  1.00  0.00    -0.209 C  
BRANCH  13  14
HETATM   14  N   UNL     1      -9.154  15.206  67.256  1.00  0.00    -0.190 NA 
HETATM   15  C   UNL     1      -7.685  15.176  67.007  1.00  0.00    -0.123 C  
HETATM   16  C   UNL     1      -6.871  14.173  67.872  1.00  0.00    -0.165 C  
HETATM   17  N   UNL     1      -7.405  12.797  67.911  1.00  0.00    -0.105 NA 
HETATM   18  C   UNL     1      -8.855  12.835  68.166  1.00  0.00    -0.194 C  
HETATM   19  C   UNL     1      -9.637  13.806  67.255  1.00  0.00    -0.237 C  
BRANCH  17  20
HETATM   20  C   UNL     1      -7.077  12.021  66.708  1.00  0.00     0.044 C  
BRANCH  20  21
HETATM   21  C   UNL     1      -7.695  10.616  66.741  1.00  0.00    -0.127 C  
BRANCH  21  22
HETATM   22  C   UNL     1      -8.130  10.152  68.141  1.00  0.00    -0.105 C  
HETATM   23  C   UNL     1      -9.102   8.943  68.152  1.00  0.00    -0.142 C  
HETATM   24  C   UNL     1      -9.680   8.648  69.537  1.00  0.00    -0.179 A  
HETATM   25  C   UNL     1      -8.445   7.725  67.507  1.00  0.00    -0.120 A  
HETATM   26  C   UNL     1      -7.306   7.132  68.078  1.00  0.00    -0.097 A  
HETATM   27  C   UNL     1     -10.964   8.078  69.638  1.00  0.00    -0.106 A  
HETATM   28  C   UNL     1     -11.545   7.844  70.886  1.00  0.00    -0.286 A  
HETATM   29  C   UNL     1      -6.633   6.104  67.417  1.00  0.00    -0.052 A  
HETATM   30  C   UNL     1     -10.843   8.169  72.040  1.00  0.00    -0.284 A  
HETATM   31  C   UNL     1      -7.098   5.661  66.188  1.00  0.00    -0.068 A  
HETATM   32  F   UNL     1      -6.433   4.695  65.541  1.00  0.00    -0.035 F  
HETATM   33  C   UNL     1      -8.236   6.214  65.612  1.00  0.00    -0.141 A  
HETATM   34  F   UNL     1     -11.407   7.961  73.238  1.00  0.00    -0.456 F  
HETATM   35  C   UNL     1      -9.569   8.711  71.970  1.00  0.00    -0.385 A  
HETATM   36  C   UNL     1      -8.987   8.944  70.724  1.00  0.00    -0.254 A  
HETATM   37  C   UNL     1      -8.913   7.240  66.271  1.00  0.00    -0.185 A  
ENDBRANCH  21  22
ENDBRANCH  20  21
ENDBRANCH  17  20
ENDBRANCH  13  14
ENDBRANCH  10  13
ENDBRANCH   8   9
TORSDOF 6
ENDMDL
MODEL       95
REMARK 921   NORMALIZED FREE ENERGY PREDICTED BY IDOCK:   -5.43 KCAL/MOL
REMARK 922        TOTAL FREE ENERGY PREDICTED BY IDOCK:   -8.61 KCAL/MOL
REMARK 923 INTER-LIGAND FREE ENERGY PREDICTED BY IDOCK:   -7.88 KCAL/MOL
REMARK 924 INTRA-LIGAND FREE ENERGY PREDICTED BY IDOCK:   -0.73 KCAL/MOL
REMARK 927      BINDING AFFINITY PREDICTED BY RF-SCORE:    0.00 PKD
ROOT
HETATM    1  C   UNL     1      -9.106   5.139  64.304  1.00  0.00     0.112 C  
HETATM    2  C   UNL     1      -8.969   4.020  65.302  1.00  0.00    -0.132 A  
HETATM    3  C   UNL     1      -8.899   2.712  64.781  1.00  0.00    -0.118 A  
HETATM    4  C   UNL     1      -8.878   1.605  65.620  1.00  0.00    -0.124 A  
HETATM    5  C   UNL     1      -8.957   1.786  66.995  1.00  0.00    -0.137 A  
HETATM    6  C   UNL     1      -9.029   3.077  67.551  1.00  0.00    -0.189 A  
HETATM    7  C   UNL     1      -9.099   3.192  69.051  1.00  0.00    -0.208 C  
HETATM    8  C   UNL     1      -8.978   4.210  66.704  1.00  0.00    -0.125 A  
ENDROOT
BRANCH   8   9
HETATM    9  N   UNL     1      -8.970   5.501  67.303  1.00  0.00    -0.112 N  
HETATM   10  C   UNL     1     -10.121   6.176  67.681  1.00  0.00    -0.155 C  
HETATM   11  H   UNL     1      -8.070   5.954  67.463  1.00  0.00     0.000 HD 
HETATM   12  O   UNL     1     -11.264   5.748  67.542  1.00  0.00    -0.039 OA 
BRANCH  10  13
HETATM   13  C   UNL     1      -9.921   7.619  68.165  1.00  0.00    -0.175 C  
BRANCH  13  14
HETATM   14  N   UNL     1     -10.397   8.675  67.237  1.00  0.00    -0.274 NA 
HETATM   15  C   UNL     1     -11.019   9.774  68.027  1.00  0.00    -0.180 C  
HETATM   16  C   UNL     1     -10.035  10.695  68.801  1.00  0.00    -0.193 C  
HETATM   17  N   UNL     1      -8.908  11.222  68.005  1.00  0.00    -0.143 NA 
HETATM   18  C   UNL     1      -8.292  10.128  67.234  1.00  0.00    -0.121 C  
HETATM   19  C   UNL     1      -9.297   9.265  66.439  1.00  0.00    -0.192 C  
BRANCH  17  20
HETATM   20  C   UNL     1      -9.290  12.353  67.149  1.00  0.00    -0.199 C  
BRANCH  20  21
HETATM   21  C   UNL     1     -10.173  13.366  67.892  1.00  0.00    -0.241 C  
BRANCH  21  22
HETATM   22  C   UNL     1      -9.566  14.776  67.993  1.00  0.00    -0.209 C  
HETATM   23  C   UNL     1     -10.604  15.920  68.142  1.00  0.00    -0.280 C  
HETATM   24  C   UNL     1      -9.984  17.314  68.021  1.00  0.00    -0.304 A  
HETATM   25  C   UNL     1     -11.419  15.737  69.419  1.00  0.00    -0.357 A  
HETATM   26  C   UNL     1     -10.805  15.794  70.682  1.00  0.00    -0.281 A  
HETATM   27  C   UNL     1     -10.762  18.369  67.508  1.00  0.00    -0.399 A  
HETATM   28  C   UNL     1     -10.213  19.641  67.334  1.00  0.00    -0.561 A  
HETATM   29  C   UNL     1     -11.527  15.496  71.838  1.00  0.00    -0.506 A  
HETATM   30  C   UNL     1      -8.888  19.869  67.681  1.00  0.00    -0.334 A  
HETATM   31  C   UNL     1     -12.866  15.148  71.737  1.00  0.00    -0.355 A  
HETATM   32  F   UNL     1     -13.550  14.833  72.845  1.00  0.00    -0.477 F  
HETATM   33  C   UNL     1     -13.504  15.107  70.503  1.00  0.00    -0.122 A  
HETATM   34  F   UNL     1      -8.356  21.085  67.499  1.00  0.00    -0.337 F  
HETATM   35  C   UNL     1      -8.105  18.854  68.209  1.00  0.00    -0.353 A  
HETATM   36  C   UNL     1      -8.652  17.583  68.384  1.00  0.00    -0.275 A  
HETATM   37  C   UNL     1     -12.785  15.406  69.345  1.00  0.00     0.216 A  
ENDBRANCH  21  22
ENDBRANCH  20  21
ENDBRANCH  17  20
ENDBRANCH  13  14
ENDBRANCH  10  13
ENDBRANCH   8   9
TORSDOF 6
ENDMDL
MODEL       96
REMARK 921   NORMALIZED FREE ENERGY PREDICTED BY IDOCK:   -5.41 KCAL/MOL
REMARK 922        TOTAL FREE ENERGY PREDICTED BY IDOCK:   -8.58 KCAL/MOL
REMARK 923 INTER-LIGAND FREE ENERGY PREDICTED BY IDOCK:   -7.95 KCAL/MOL
REMARK 924 INTRA-LIGAND FREE ENERGY PREDICTED BY IDOCK:   -0.63 KCAL/MOL
REMARK 927      BINDING AFFINITY PREDICTED BY RF-SCORE:    0.00 PKD
ROOT
HETATM    1  C   UNL     1     -10.767   4.150  64.815  1.00  0.00    -0.151 C  
HETATM    2  C   UNL     1      -9.327   4.090  64.379  1.00  0.00    -0.159 A  
HETATM    3  C   UNL     1      -9.070   3.512  63.119  1.00  0.00    -0.096 A  
HETATM    4  C   UNL     1      -7.769   3.314  62.671  1.00  0.00    -0.059 A  
HETATM    5  C   UNL     1      -6.702   3.665  63.489  1.00  0.00    -0.042 A  
HETATM    6  C   UNL     1      -6.921   4.244  64.754  1.00  0.00    -0.050 A  
HETATM    7  C   UNL     1      -5.713   4.610  65.576  1.00  0.00    -0.018 C  
HETATM    8  C   UNL     1      -8.242   4.513  65.184  1.00  0.00    -0.112 A  
ENDROOT
BRANCH   8   9
HETATM    9  N   UNL     1      -8.425   5.175  66.431  1.00  0.00    -0.112 N  
HETATM   10  C   UNL     1      -8.514   6.553  66.558  1.00  0.00    -0.120 C  
HETATM   11  H   UNL     1      -8.494   4.607  67.274  1.00  0.00     0.000 HD 
HETATM   12  O   UNL     1      -8.443   7.352  65.626  1.00  0.00    -0.136 OA 
BRANCH  10  13
HETATM   13  C   UNL     1      -8.554   7.090  67.995  1.00  0.00    -0.124 C  
BRANCH  13  14
HETATM   14  N   UNL     1      -9.897   7.123  68.627  1.00  0.00    -0.151 NA 
HETATM   15  C   UNL     1      -9.748   7.443  70.074  1.00  0.00    -0.175 C  
HETATM   16  C   UNL     1      -9.394   8.919  70.411  1.00  0.00    -0.193 C  
HETATM   17  N   UNL     1     -10.241   9.935  69.755  1.00  0.00    -0.230 NA 
HETATM   18  C   UNL     1     -10.377   9.617  68.323  1.00  0.00    -0.204 C  
HETATM   19  C   UNL     1     -10.778   8.154  68.029  1.00  0.00    -0.044 C  
BRANCH  17  20
HETATM   20  C   UNL     1     -11.546  10.101  70.409  1.00  0.00    -0.316 C  
BRANCH  20  21
HETATM   21  C   UNL     1     -12.000  11.568  70.427  1.00  0.00    -0.459 C  
BRANCH  21  22
HETATM   22  C   UNL     1     -11.050  12.530  69.693  1.00  0.00     0.015 C  
HETATM   23  C   UNL     1     -11.699  13.865  69.243  1.00  0.00    -0.381 C  
HETATM   24  C   UNL     1     -10.793  14.698  68.334  1.00  0.00    -0.250 A  
HETATM   25  C   UNL     1     -12.210  14.644  70.452  1.00  0.00    -0.391 A  
HETATM   26  C   UNL     1     -11.322  15.119  71.433  1.00  0.00    -0.380 A  
HETATM   27  C   UNL     1     -11.377  15.540  67.368  1.00  0.00    -0.203 A  
HETATM   28  C   UNL     1     -10.581  16.274  66.486  1.00  0.00    -0.256 A  
HETATM   29  C   UNL     1     -11.804  15.712  72.600  1.00  0.00    -0.590 A  
HETATM   30  C   UNL     1      -9.197  16.179  66.570  1.00  0.00    -0.272 A  
HETATM   31  C   UNL     1     -13.173  15.841  72.788  1.00  0.00    -0.518 A  
HETATM   32  F   UNL     1     -13.634  16.385  73.921  1.00  0.00    -0.434 F  
HETATM   33  C   UNL     1     -14.071  15.402  71.823  1.00  0.00    -0.630 A  
HETATM   34  F   UNL     1      -8.433  16.870  65.714  1.00  0.00    -0.289 F  
HETATM   35  C   UNL     1      -8.596  15.375  67.526  1.00  0.00    -0.187 A  
HETATM   36  C   UNL     1      -9.390  14.641  68.408  1.00  0.00    -0.201 A  
HETATM   37  C   UNL     1     -13.593  14.809  70.654  1.00  0.00    -0.033 A  
ENDBRANCH  21  22
ENDBRANCH  20  21
ENDBRANCH  17  20
ENDBRANCH  13  14
ENDBRANCH  10  13
ENDBRANCH   8   9
TORSDOF 6
ENDMDL
MODEL       97
REMARK 921   NORMALIZED FREE ENERGY PREDICTED BY IDOCK:   -5.39 KCAL/MOL
REMARK 922        TOTAL FREE ENERGY PREDICTED BY IDOCK:   -8.55 KCAL/MOL
REMARK 923 INTER-LIGAND FREE ENERGY PREDICTED BY IDOCK:   -7.69 KCAL/MOL
REMARK 924 INTRA-LIGAND FREE ENERGY PREDICTED BY IDOCK:   -0.86 KCAL/MOL
REMARK 927      BINDING AFFINITY PREDICTED BY RF-SCORE:    0.00 PKD
ROOT
HETATM    1  C   UNL     1     -11.740  16.458  72.373  1.00  0.00    -0.459 C  
HETATM    2  C   UNL     1     -12.444  15.162  72.070  1.00  0.00    -0.414 A  
HETATM    3  C   UNL     1     -13.618  14.892  72.802  1.00  0.00    -0.537 A  
HETATM    4  C   UNL     1     -14.282  13.679  72.673  1.00  0.00    -0.158 A  
HETATM    5  C   UNL     1     -13.766  12.701  71.832  1.00  0.00    -0.150 A  
HETATM    6  C   UNL     1     -12.595  12.935  71.086  1.00  0.00    -0.373 A  
HETATM    7  C   UNL     1     -12.106  11.831  70.185  1.00  0.00    -0.398 C  
HETATM    8  C   UNL     1     -11.956  14.195  71.159  1.00  0.00    -0.239 A  
ENDROOT
BRANCH   8   9
HETATM    9  N   UNL     1     -10.822  14.427  70.329  1.00  0.00    -0.458 N  
HETATM   10  C   UNL     1     -10.885  15.111  69.125  1.00  0.00    -0.251 C  
HETATM   11  H   UNL     1      -9.917  14.071  70.637  1.00  0.00     0.000 HD 
HETATM   12  O   UNL     1     -11.908  15.587  68.638  1.00  0.00    -0.362 OA 
BRANCH  10  13
HETATM   13  C   UNL     1      -9.592  15.126  68.297  1.00  0.00    -0.211 C  
BRANCH  13  14
HETATM   14  N   UNL     1      -9.617  14.303  67.061  1.00  0.00    -0.248 NA 
HETATM   15  C   UNL     1      -8.217  14.031  66.628  1.00  0.00     0.377 C  
HETATM   16  C   UNL     1      -7.434  12.991  67.479  1.00  0.00    -0.156 C  
HETATM   17  N   UNL     1      -8.142  11.719  67.726  1.00  0.00    -0.134 NA 
HETATM   18  C   UNL     1      -9.522  11.997  68.161  1.00  0.00    -0.200 C  
HETATM   19  C   UNL     1     -10.285  12.997  67.265  1.00  0.00    -0.239 C  
BRANCH  17  20
HETATM   20  C   UNL     1      -8.100  10.807  66.575  1.00  0.00    -0.146 C  
BRANCH  20  21
HETATM   21  C   UNL     1      -9.459  10.138  66.319  1.00  0.00    -0.229 C  
BRANCH  21  22
HETATM   22  C   UNL     1      -9.392   8.607  66.192  1.00  0.00    -0.291 C  
HETATM   23  C   UNL     1      -8.598   7.896  67.320  1.00  0.00    -0.128 C  
HETATM   24  C   UNL     1      -8.369   6.408  67.049  1.00  0.00    -0.112 A  
HETATM   25  C   UNL     1      -9.246   8.163  68.677  1.00  0.00    -0.143 A  
HETATM   26  C   UNL     1     -10.544   7.704  68.961  1.00  0.00    -0.186 A  
HETATM   27  C   UNL     1      -7.216   5.786  67.564  1.00  0.00    -0.076 A  
HETATM   28  C   UNL     1      -6.947   4.443  67.291  1.00  0.00    -0.063 A  
HETATM   29  C   UNL     1     -11.180   8.063  70.149  1.00  0.00    -0.145 A  
HETATM   30  C   UNL     1      -7.834   3.711  66.512  1.00  0.00    -0.088 A  
HETATM   31  C   UNL     1     -10.520   8.874  71.061  1.00  0.00    -0.248 A  
HETATM   32  F   UNL     1     -11.144   9.242  72.187  1.00  0.00    -0.422 F  
HETATM   33  C   UNL     1      -9.228   9.322  70.816  1.00  0.00    -0.316 A  
HETATM   34  F   UNL     1      -7.568   2.427  66.236  1.00  0.00    -0.066 F  
HETATM   35  C   UNL     1      -8.988   4.292  66.011  1.00  0.00    -0.123 A  
HETATM   36  C   UNL     1      -9.258   5.633  66.282  1.00  0.00    -0.165 A  
HETATM   37  C   UNL     1      -8.587   8.963  69.629  1.00  0.00    -0.131 A  
ENDBRANCH  21  22
ENDBRANCH  20  21
ENDBRANCH  17  20
ENDBRANCH  13  14
ENDBRANCH  10  13
ENDBRANCH   8   9
TORSDOF 6
ENDMDL
MODEL       98
REMARK 921   NORMALIZED FREE ENERGY PREDICTED BY IDOCK:   -5.37 KCAL/MOL
REMARK 922        TOTAL FREE ENERGY PREDICTED BY IDOCK:   -8.53 KCAL/MOL
REMARK 923 INTER-LIGAND FREE ENERGY PREDICTED BY IDOCK:   -7.77 KCAL/MOL
REMARK 924 INTRA-LIGAND FREE ENERGY PREDICTED BY IDOCK:   -0.75 KCAL/MOL
REMARK 927      BINDING AFFINITY PREDICTED BY RF-SCORE:    0.00 PKD
ROOT
HETATM    1  C   UNL     1      -6.899   3.424  67.507  1.00  0.00    -0.050 C  
HETATM    2  C   UNL     1      -7.961   3.970  68.425  1.00  0.00    -0.072 A  
HETATM    3  C   UNL     1      -8.388   3.128  69.471  1.00  0.00    -0.088 A  
HETATM    4  C   UNL     1      -9.435   3.495  70.307  1.00  0.00    -0.254 A  
HETATM    5  C   UNL     1     -10.094   4.699  70.091  1.00  0.00    -0.283 A  
HETATM    6  C   UNL     1      -9.696   5.565  69.055  1.00  0.00    -0.195 A  
HETATM    7  C   UNL     1     -10.451   6.858  68.893  1.00  0.00    -0.225 C  
HETATM    8  C   UNL     1      -8.584   5.228  68.247  1.00  0.00    -0.099 A  
ENDROOT
BRANCH   8   9
HETATM    9  N   UNL     1      -8.156   6.164  67.263  1.00  0.00    -0.106 N  
HETATM   10  C   UNL     1      -8.651   6.190  65.968  1.00  0.00    -0.145 C  
HETATM   11  H   UNL     1      -7.449   6.851  67.524  1.00  0.00     0.000 HD 
HETATM   12  O   UNL     1      -9.499   5.420  65.523  1.00  0.00    -0.109 OA 
BRANCH  10  13
HETATM   13  C   UNL     1      -7.958   7.167  65.007  1.00  0.00    -0.129 C  
BRANCH  13  14
HETATM   14  N   UNL     1      -7.632   8.499  65.578  1.00  0.00    -0.088 NA 
HETATM   15  C   UNL     1      -7.533   9.492  64.472  1.00  0.00    -0.114 C  
HETATM   16  C   UNL     1      -8.880   9.934  63.833  1.00  0.00    -0.227 C  
HETATM   17  N   UNL     1      -9.925  10.348  64.791  1.00  0.00    -0.334 NA 
HETATM   18  C   UNL     1     -10.023   9.357  65.876  1.00  0.00    -0.256 C  
HETATM   19  C   UNL     1      -8.670   8.980  66.520  1.00  0.00    -0.129 C  
BRANCH  17  20
HETATM   20  C   UNL     1      -9.724  11.710  65.304  1.00  0.00    -0.229 C  
BRANCH  20  21
HETATM   21  C   UNL     1     -11.041  12.355  65.760  1.00  0.00    -0.351 C  
BRANCH  21  22
HETATM   22  C   UNL     1     -11.601  11.782  67.072  1.00  0.00    -0.321 C  
HETATM   23  C   UNL     1     -10.584  11.727  68.243  1.00  0.00    -0.236 C  
HETATM   24  C   UNL     1     -11.107  10.958  69.458  1.00  0.00    -0.326 A  
HETATM   25  C   UNL     1     -10.094  13.131  68.589  1.00  0.00    -0.146 A  
HETATM   26  C   UNL     1     -10.981  14.105  69.078  1.00  0.00    -0.286 A  
HETATM   27  C   UNL     1     -10.192  10.281  70.287  1.00  0.00    -0.075 A  
HETATM   28  C   UNL     1     -10.637   9.525  71.374  1.00  0.00    -0.307 A  
HETATM   29  C   UNL     1     -10.557  15.420  69.268  1.00  0.00    -0.252 A  
HETATM   30  C   UNL     1     -11.998   9.450  71.644  1.00  0.00    -0.393 A  
HETATM   31  C   UNL     1      -9.245  15.765  68.978  1.00  0.00    -0.243 A  
HETATM   32  F   UNL     1      -8.848  17.035  69.133  1.00  0.00    -0.250 F  
HETATM   33  C   UNL     1      -8.341  14.816  68.517  1.00  0.00    -0.160 A  
HETATM   34  F   UNL     1     -12.427   8.712  72.676  1.00  0.00    -0.443 F  
HETATM   35  C   UNL     1     -12.919  10.124  70.857  1.00  0.00    -0.432 A  
HETATM   36  C   UNL     1     -12.475  10.880  69.772  1.00  0.00    -0.250 A  
HETATM   37  C   UNL     1      -8.761  13.499  68.327  1.00  0.00    -0.172 A  
ENDBRANCH  21  22
ENDBRANCH  20  21
ENDBRANCH  17  20
ENDBRANCH  13  14
ENDBRANCH  10  13
ENDBRANCH   8   9
TORSDOF 6
ENDMDL
MODEL       99
REMARK 921   NORMALIZED FREE ENERGY PREDICTED BY IDOCK:   -5.37 KCAL/MOL
REMARK 922        TOTAL FREE ENERGY PREDICTED BY IDOCK:   -8.52 KCAL/MOL
REMARK 923 INTER-LIGAND FREE ENERGY PREDICTED BY IDOCK:   -7.79 KCAL/MOL
REMARK 924 INTRA-LIGAND FREE ENERGY PREDICTED BY IDOCK:   -0.73 KCAL/MOL
REMARK 927      BINDING AFFINITY PREDICTED BY RF-SCORE:    0.00 PKD
ROOT
HETATM    1  C   UNL     1      -9.020   2.131  66.568  1.00  0.00    -0.114 C  
HETATM    2  C   UNL     1      -9.076   2.625  65.146  1.00  0.00    -0.140 A  
HETATM    3  C   UNL     1      -9.346   1.663  64.152  1.00  0.00    -0.126 A  
HETATM    4  C   UNL     1      -9.316   1.996  62.804  1.00  0.00    -0.090 A  
HETATM    5  C   UNL     1      -8.985   3.291  62.425  1.00  0.00    -0.084 A  
HETATM    6  C   UNL     1      -8.708   4.278  63.390  1.00  0.00    -0.117 A  
HETATM    7  C   UNL     1      -8.371   5.661  62.901  1.00  0.00    -0.072 C  
HETATM    8  C   UNL     1      -8.808   3.961  64.766  1.00  0.00    -0.123 A  
ENDROOT
BRANCH   8   9
HETATM    9  N   UNL     1      -8.604   5.003  65.714  1.00  0.00    -0.127 N  
HETATM   10  C   UNL     1      -9.631   5.590  66.437  1.00  0.00    -0.158 C  
HETATM   11  H   UNL     1      -7.652   5.334  65.871  1.00  0.00     0.000 HD 
HETATM   12  O   UNL     1     -10.819   5.289  66.344  1.00  0.00    -0.292 OA 
BRANCH  10  13
HETATM   13  C   UNL     1      -9.237   6.800  67.296  1.00  0.00    -0.133 C  
BRANCH  13  14
HETATM   14  N   UNL     1     -10.361   7.493  67.976  1.00  0.00    -0.198 NA 
HETATM   15  C   UNL     1      -9.975   7.782  69.385  1.00  0.00    -0.188 C  
HETATM   16  C   UNL     1      -8.952   8.936  69.585  1.00  0.00    -0.147 C  
HETATM   17  N   UNL     1      -9.275  10.193  68.882  1.00  0.00    -0.163 NA 
HETATM   18  C   UNL     1      -9.648   9.900  67.488  1.00  0.00    -0.157 C  
HETATM   19  C   UNL     1     -10.703   8.782  67.331  1.00  0.00    -0.146 C  
BRANCH  17  20
HETATM   20  C   UNL     1     -10.302  10.987  69.572  1.00  0.00    -0.040 C  
BRANCH  20  21
HETATM   21  C   UNL     1     -11.133  11.830  68.593  1.00  0.00    -0.289 C  
BRANCH  21  22
HETATM   22  C   UNL     1     -10.968  13.348  68.773  1.00  0.00    -0.290 C  
HETATM   23  C   UNL     1     -10.109  14.041  67.681  1.00  0.00    -0.241 C  
HETATM   24  C   UNL     1      -9.786  15.501  68.006  1.00  0.00    -0.212 A  
HETATM   25  C   UNL     1     -10.748  13.861  66.307  1.00  0.00    -0.285 A  
HETATM   26  C   UNL     1     -12.007  14.415  66.018  1.00  0.00    -0.377 A  
HETATM   27  C   UNL     1      -8.585  16.060  67.530  1.00  0.00    -0.190 A  
HETATM   28  C   UNL     1      -8.232  17.373  67.852  1.00  0.00    -0.225 A  
HETATM   29  C   UNL     1     -12.645  14.138  64.809  1.00  0.00    -0.326 A  
HETATM   30  C   UNL     1      -9.082  18.136  68.642  1.00  0.00    -0.277 A  
HETATM   31  C   UNL     1     -12.025  13.315  63.881  1.00  0.00    -0.483 A  
HETATM   32  F   UNL     1     -12.651  13.027  62.733  1.00  0.00    -0.350 F  
HETATM   33  C   UNL     1     -10.769  12.774  64.130  1.00  0.00    -0.441 A  
HETATM   34  F   UNL     1      -8.737  19.390  68.964  1.00  0.00    -0.392 F  
HETATM   35  C   UNL     1     -10.282  17.618  69.105  1.00  0.00    -0.238 A  
HETATM   36  C   UNL     1     -10.635  16.307  68.784  1.00  0.00    -0.298 A  
HETATM   37  C   UNL     1     -10.127  13.050  65.339  1.00  0.00    -0.265 A  
ENDBRANCH  21  22
ENDBRANCH  20  21
ENDBRANCH  17  20
ENDBRANCH  13  14
ENDBRANCH  10  13
ENDBRANCH   8   9
TORSDOF 6
ENDMDL
MODEL      100
REMARK 921   NORMALIZED FREE ENERGY PREDICTED BY IDOCK:   -5.36 KCAL/MOL
REMARK 922        TOTAL FREE ENERGY PREDICTED BY IDOCK:   -8.51 KCAL/MOL
REMARK 923 INTER-LIGAND FREE ENERGY PREDICTED BY IDOCK:   -7.61 KCAL/MOL
REMARK 924 INTRA-LIGAND FREE ENERGY PREDICTED BY IDOCK:   -0.90 KCAL/MOL
REMARK 927      BINDING AFFINITY PREDICTED BY RF-SCORE:    0.00 PKD
ROOT
HETATM    1  C   UNL     1     -10.160   4.774  69.055  1.00  0.00    -0.171 C  
HETATM    2  C   UNL     1      -9.173   3.858  68.381  1.00  0.00    -0.210 A  
HETATM    3  C   UNL     1      -9.416   2.474  68.492  1.00  0.00    -0.207 A  
HETATM    4  C   UNL     1      -8.511   1.544  67.996  1.00  0.00    -0.082 A  
HETATM    5  C   UNL     1      -7.331   1.982  67.408  1.00  0.00    -0.055 A  
HETATM    6  C   UNL     1      -7.055   3.357  67.280  1.00  0.00    -0.058 A  
HETATM    7  C   UNL     1      -5.761   3.753  66.617  1.00  0.00    -0.022 C  
HETATM    8  C   UNL     1      -8.006   4.308  67.718  1.00  0.00    -0.087 A  
ENDROOT
BRANCH   8   9
HETATM    9  N   UNL     1      -7.732   5.687  67.499  1.00  0.00    -0.096 N  
HETATM   10  C   UNL     1      -8.277   6.418  66.453  1.00  0.00    -0.115 C  
HETATM   11  H   UNL     1      -7.103   6.164  68.144  1.00  0.00     0.000 HD 
HETATM   12  O   UNL     1      -9.044   5.967  65.605  1.00  0.00    -0.124 OA 
BRANCH  10  13
HETATM   13  C   UNL     1      -7.744   7.848  66.288  1.00  0.00    -0.092 C  
BRANCH  13  14
HETATM   14  N   UNL     1      -8.004   8.761  67.431  1.00  0.00    -0.098 NA 
HETATM   15  C   UNL     1      -7.322  10.061  67.180  1.00  0.00    -0.091 C  
HETATM   16  C   UNL     1      -7.980  10.978  66.110  1.00  0.00    -0.129 C  
HETATM   17  N   UNL     1      -9.432  11.192  66.272  1.00  0.00    -0.190 NA 
HETATM   18  C   UNL     1     -10.100   9.901  66.511  1.00  0.00    -0.232 C  
HETATM   19  C   UNL     1      -9.447   9.040  67.614  1.00  0.00    -0.140 C  
BRANCH  17  20
HETATM   20  C   UNL     1      -9.753  12.179  67.311  1.00  0.00    -0.191 C  
BRANCH  20  21
HETATM   21  C   UNL     1     -10.862  13.145  66.868  1.00  0.00    -0.278 C  
BRANCH  21  22
HETATM   22  C   UNL     1     -11.682  13.737  68.026  1.00  0.00    -0.390 C  
HETATM   23  C   UNL     1     -10.863  14.587  69.033  1.00  0.00    -0.265 C  
HETATM   24  C   UNL     1     -11.660  14.977  70.280  1.00  0.00    -0.329 A  
HETATM   25  C   UNL     1     -10.233  15.786  68.328  1.00  0.00    -0.225 A  
HETATM   26  C   UNL     1     -11.033  16.788  67.752  1.00  0.00    -0.217 A  
HETATM   27  C   UNL     1     -10.980  15.157  71.500  1.00  0.00    -0.084 A  
HETATM   28  C   UNL     1     -11.681  15.461  72.669  1.00  0.00    -0.556 A  
HETATM   29  C   UNL     1     -10.457  17.809  66.997  1.00  0.00    -0.324 A  
HETATM   30  C   UNL     1     -13.063  15.594  72.624  1.00  0.00    -0.480 A  
HETATM   31  C   UNL     1      -9.081  17.840  66.821  1.00  0.00    -0.262 A  
HETATM   32  F   UNL     1      -8.534  18.805  66.072  1.00  0.00    -0.297 F  
HETATM   33  C   UNL     1      -8.265  16.876  67.401  1.00  0.00    -0.199 A  
HETATM   34  F   UNL     1     -13.738  15.869  73.748  1.00  0.00    -0.406 F  
HETATM   35  C   UNL     1     -13.755  15.444  71.432  1.00  0.00    -0.591 A  
HETATM   36  C   UNL     1     -13.056  15.141  70.264  1.00  0.00    -0.138 A  
HETATM   37  C   UNL     1      -8.837  15.853  68.158  1.00  0.00    -0.176 A  
ENDBRANCH  21  22
ENDBRANCH  20  21
ENDBRANCH  17  20
ENDBRANCH  13  14
ENDBRANCH  10  13
ENDBRANCH   8   9
TORSDOF 6
ENDMDL
MODEL      101
REMARK 921   NORMALIZED FREE ENERGY PREDICTED BY IDOCK:   -5.34 KCAL/MOL
REMARK 922        TOTAL FREE ENERGY PREDICTED BY IDOCK:   -8.48 KCAL/MOL
REMARK 923 INTER-LIGAND FREE ENERGY PREDICTED BY IDOCK:   -8.18 KCAL/MOL
REMARK 924 INTRA-LIGAND FREE ENERGY PREDICTED BY IDOCK:   -0.31 KCAL/MOL
REMARK 927      BINDING AFFINITY PREDICTED BY RF-SCORE:    0.00 PKD
ROOT
HETATM    1  C   UNL     1      -9.860   7.778  73.354  1.00  0.00    -0.346 C  
HETATM    2  C   UNL     1      -9.968   6.352  72.882  1.00  0.00    -0.186 A  
HETATM    3  C   UNL     1     -10.906   5.535  73.546  1.00  0.00    -0.321 A  
HETATM    4  C   UNL     1     -11.009   4.180  73.258  1.00  0.00    -0.324 A  
HETATM    5  C   UNL     1     -10.154   3.612  72.321  1.00  0.00    -0.225 A  
HETATM    6  C   UNL     1      -9.205   4.397  71.639  1.00  0.00    -0.186 A  
HETATM    7  C   UNL     1      -8.324   3.711  70.628  1.00  0.00    -0.092 C  
HETATM    8  C   UNL     1      -9.145   5.790  71.877  1.00  0.00    -0.138 A  
ENDROOT
BRANCH   8   9
HETATM    9  N   UNL     1      -8.232   6.568  71.111  1.00  0.00    -0.120 N  
HETATM   10  C   UNL     1      -8.556   7.148  69.894  1.00  0.00    -0.141 C  
HETATM   11  H   UNL     1      -7.289   6.705  71.475  1.00  0.00     0.000 HD 
HETATM   12  O   UNL     1      -9.650   7.059  69.341  1.00  0.00    -0.155 OA 
BRANCH  10  13
HETATM   13  C   UNL     1      -7.397   7.817  69.142  1.00  0.00    -0.088 C  
BRANCH  13  14
HETATM   14  N   UNL     1      -7.771   8.980  68.297  1.00  0.00    -0.095 NA 
HETATM   15  C   UNL     1      -8.163  10.116  69.177  1.00  0.00    -0.145 C  
HETATM   16  C   UNL     1      -6.999  10.839  69.911  1.00  0.00    -0.123 C  
HETATM   17  N   UNL     1      -5.863  11.234  69.054  1.00  0.00    -0.040 NA 
HETATM   18  C   UNL     1      -5.476  10.103  68.193  1.00  0.00    -0.038 C  
HETATM   19  C   UNL     1      -6.652   9.441  67.442  1.00  0.00    -0.064 C  
BRANCH  17  20
HETATM   20  C   UNL     1      -6.128  12.452  68.277  1.00  0.00    -0.055 C  
BRANCH  20  21
HETATM   21  C   UNL     1      -7.588  12.912  68.404  1.00  0.00    -0.133 C  
BRANCH  21  22
HETATM   22  C   UNL     1      -8.415  12.744  67.119  1.00  0.00    -0.181 C  
HETATM   23  C   UNL     1      -9.794  13.455  67.136  1.00  0.00    -0.237 C  
HETATM   24  C   UNL     1     -10.674  13.090  65.939  1.00  0.00    -0.292 A  
HETATM   25  C   UNL     1      -9.614  14.961  67.309  1.00  0.00    -0.216 A  
HETATM   26  C   UNL     1      -8.954  15.727  66.333  1.00  0.00    -0.366 A  
HETATM   27  C   UNL     1     -12.074  13.098  66.089  1.00  0.00    -0.479 A  
HETATM   28  C   UNL     1     -12.907  12.719  65.034  1.00  0.00    -0.312 A  
HETATM   29  C   UNL     1      -8.676  17.075  66.555  1.00  0.00    -0.297 A  
HETATM   30  C   UNL     1     -12.347  12.341  63.820  1.00  0.00    -0.538 A  
HETATM   31  C   UNL     1      -9.064  17.666  67.749  1.00  0.00    -0.247 A  
HETATM   32  F   UNL     1      -8.770  18.953  67.973  1.00  0.00    -0.289 F  
HETATM   33  C   UNL     1      -9.740  16.938  68.721  1.00  0.00    -0.265 A  
HETATM   34  F   UNL     1     -13.144  11.962  62.813  1.00  0.00    -0.453 F  
HETATM   35  C   UNL     1     -10.972  12.346  63.638  1.00  0.00    -0.525 A  
HETATM   36  C   UNL     1     -10.139  12.724  64.691  1.00  0.00    -0.256 A  
HETATM   37  C   UNL     1     -10.021  15.589  68.501  1.00  0.00    -0.208 A  
ENDBRANCH  21  22
ENDBRANCH  20  21
ENDBRANCH  17  20
ENDBRANCH  13  14
ENDBRANCH  10  13
ENDBRANCH   8   9
TORSDOF 6
ENDMDL
MODEL      102
REMARK 921   NORMALIZED FREE ENERGY PREDICTED BY IDOCK:   -5.34 KCAL/MOL
REMARK 922        TOTAL FREE ENERGY PREDICTED BY IDOCK:   -8.48 KCAL/MOL
REMARK 923 INTER-LIGAND FREE ENERGY PREDICTED BY IDOCK:   -7.71 KCAL/MOL
REMARK 924 INTRA-LIGAND FREE ENERGY PREDICTED BY IDOCK:   -0.78 KCAL/MOL
REMARK 927      BINDING AFFINITY PREDICTED BY RF-SCORE:    0.00 PKD
ROOT
HETATM    1  C   UNL     1      -7.737   6.543  63.912  1.00  0.00    -0.108 C  
HETATM    2  C   UNL     1      -8.128   5.091  63.993  1.00  0.00    -0.119 A  
HETATM    3  C   UNL     1      -8.329   4.420  62.769  1.00  0.00    -0.091 A  
HETATM    4  C   UNL     1      -8.793   3.111  62.736  1.00  0.00    -0.091 A  
HETATM    5  C   UNL     1      -9.093   2.459  63.925  1.00  0.00    -0.104 A  
HETATM    6  C   UNL     1      -8.905   3.098  65.166  1.00  0.00    -0.129 A  
HETATM    7  C   UNL     1      -9.239   2.321  66.412  1.00  0.00    -0.008 C  
HETATM    8  C   UNL     1      -8.365   4.405  65.208  1.00  0.00    -0.112 A  
ENDROOT
BRANCH   8   9
HETATM    9  N   UNL     1      -8.109   4.990  66.481  1.00  0.00    -0.107 N  
HETATM   10  C   UNL     1      -9.057   5.706  67.196  1.00  0.00    -0.111 C  
HETATM   11  H   UNL     1      -7.181   4.877  66.887  1.00  0.00     0.000 HD 
HETATM   12  O   UNL     1     -10.208   5.920  66.821  1.00  0.00    -0.179 OA 
BRANCH  10  13
HETATM   13  C   UNL     1      -8.552   6.392  68.473  1.00  0.00    -0.122 C  
BRANCH  13  14
HETATM   14  N   UNL     1      -7.585   7.499  68.263  1.00  0.00    -0.111 NA 
HETATM   15  C   UNL     1      -8.080   8.377  67.167  1.00  0.00    -0.104 C  
HETATM   16  C   UNL     1      -9.279   9.300  67.525  1.00  0.00    -0.124 C  
HETATM   17  N   UNL     1      -9.122  10.083  68.767  1.00  0.00    -0.141 NA 
HETATM   18  C   UNL     1      -8.640   9.205  69.848  1.00  0.00    -0.150 C  
HETATM   19  C   UNL     1      -7.418   8.340  69.471  1.00  0.00    -0.086 C  
BRANCH  17  20
HETATM   20  C   UNL     1      -8.267  11.265  68.595  1.00  0.00    -0.146 C  
BRANCH  20  21
HETATM   21  C   UNL     1      -8.660  12.086  67.358  1.00  0.00    -0.171 C  
BRANCH  21  22
HETATM   22  C   UNL     1      -9.163  13.504  67.678  1.00  0.00    -0.214 C  
HETATM   23  C   UNL     1      -9.397  14.405  66.437  1.00  0.00    -0.284 C  
HETATM   24  C   UNL     1      -9.685  15.864  66.798  1.00  0.00    -0.252 A  
HETATM   25  C   UNL     1     -10.459  13.794  65.527  1.00  0.00    -0.327 A  
HETATM   26  C   UNL     1     -11.784  13.634  65.970  1.00  0.00    -0.383 A  
HETATM   27  C   UNL     1      -9.302  16.881  65.903  1.00  0.00    -0.129 A  
HETATM   28  C   UNL     1      -9.501  18.226  66.223  1.00  0.00    -0.237 A  
HETATM   29  C   UNL     1     -12.718  12.956  65.186  1.00  0.00    -0.443 A  
HETATM   30  C   UNL     1     -10.092  18.561  67.435  1.00  0.00    -0.352 A  
HETATM   31  C   UNL     1     -12.335  12.443  63.955  1.00  0.00    -0.488 A  
HETATM   32  F   UNL     1     -13.226  11.767  63.218  1.00  0.00    -0.614 F  
HETATM   33  C   UNL     1     -11.039  12.608  63.483  1.00  0.00    -0.449 A  
HETATM   34  F   UNL     1     -10.268  19.851  67.750  1.00  0.00    -0.467 F  
HETATM   35  C   UNL     1     -10.499  17.579  68.325  1.00  0.00    -0.383 A  
HETATM   36  C   UNL     1     -10.301  16.236  68.006  1.00  0.00    -0.279 A  
HETATM   37  C   UNL     1     -10.102  13.287  64.264  1.00  0.00    -0.089 A  
ENDBRANCH  21  22
ENDBRANCH  20  21
ENDBRANCH  17  20
ENDBRANCH  13  14
ENDBRANCH  10  13
ENDBRANCH   8   9
TORSDOF 6
ENDMDL
MODEL      103
REMARK 921   NORMALIZED FREE ENERGY PREDICTED BY IDOCK:   -5.32 KCAL/MOL
REMARK 922        TOTAL FREE ENERGY PREDICTED BY IDOCK:   -8.46 KCAL/MOL
REMARK 923 INTER-LIGAND FREE ENERGY PREDICTED BY IDOCK:   -8.07 KCAL/MOL
REMARK 924 INTRA-LIGAND FREE ENERGY PREDICTED BY IDOCK:   -0.39 KCAL/MOL
REMARK 927      BINDING AFFINITY PREDICTED BY RF-SCORE:    0.00 PKD
ROOT
HETATM    1  C   UNL     1     -12.004  16.653  72.797  1.00  0.00    -0.340 C  
HETATM    2  C   UNL     1     -12.512  15.375  72.183  1.00  0.00    -0.452 A  
HETATM    3  C   UNL     1     -13.726  14.868  72.689  1.00  0.00    -0.552 A  
HETATM    4  C   UNL     1     -14.225  13.643  72.265  1.00  0.00    -0.521 A  
HETATM    5  C   UNL     1     -13.503  12.889  71.348  1.00  0.00    -0.015 A  
HETATM    6  C   UNL     1     -12.286  13.363  70.821  1.00  0.00    -0.433 A  
HETATM    7  C   UNL     1     -11.569  12.495  69.822  1.00  0.00    -0.291 C  
HETATM    8  C   UNL     1     -11.810  14.642  71.196  1.00  0.00    -0.323 A  
ENDROOT
BRANCH   8   9
HETATM    9  N   UNL     1     -10.621  15.127  70.582  1.00  0.00    -0.532 N  
HETATM   10  C   UNL     1     -10.612  15.854  69.402  1.00  0.00    -0.263 C  
HETATM   11  H   UNL     1      -9.728  14.928  71.034  1.00  0.00     0.000 HD 
HETATM   12  O   UNL     1     -11.612  16.158  68.755  1.00  0.00    -0.368 OA 
BRANCH  10  13
HETATM   13  C   UNL     1      -9.227  16.155  68.813  1.00  0.00    -0.224 C  
BRANCH  13  14
HETATM   14  N   UNL     1      -8.790  15.254  67.716  1.00  0.00    -0.170 NA 
HETATM   15  C   UNL     1      -7.445  15.681  67.240  1.00  0.00    -0.222 C  
HETATM   16  C   UNL     1      -6.254  15.348  68.183  1.00  0.00    -0.127 C  
HETATM   17  N   UNL     1      -6.201  13.952  68.661  1.00  0.00    -0.083 NA 
HETATM   18  C   UNL     1      -7.532  13.540  69.137  1.00  0.00     0.125 C  
HETATM   19  C   UNL     1      -8.684  13.842  68.153  1.00  0.00    -0.183 C  
BRANCH  17  20
HETATM   20  C   UNL     1      -5.663  13.024  67.657  1.00  0.00    -0.118 C  
BRANCH  20  21
HETATM   21  C   UNL     1      -6.775  12.338  66.850  1.00  0.00     0.055 C  
BRANCH  21  22
HETATM   22  C   UNL     1      -6.722  10.801  66.885  1.00  0.00    -0.099 C  
HETATM   23  C   UNL     1      -8.085  10.110  67.150  1.00  0.00    -0.120 C  
HETATM   24  C   UNL     1      -7.960   8.604  67.392  1.00  0.00    -0.102 A  
HETATM   25  C   UNL     1      -9.081  10.457  66.046  1.00  0.00    -0.187 A  
HETATM   26  C   UNL     1      -8.855  10.057  64.718  1.00  0.00    -0.222 A  
HETATM   27  C   UNL     1      -8.894   7.964  68.228  1.00  0.00    -0.129 A  
HETATM   28  C   UNL     1      -8.780   6.602  68.515  1.00  0.00    -0.123 A  
HETATM   29  C   UNL     1      -9.698  10.487  63.693  1.00  0.00    -0.375 A  
HETATM   30  C   UNL     1      -7.738   5.870  67.960  1.00  0.00    -0.100 A  
HETATM   31  C   UNL     1     -10.773  11.312  63.991  1.00  0.00    -0.377 A  
HETATM   32  F   UNL     1     -11.563  11.748  63.002  1.00  0.00    -0.381 F  
HETATM   33  C   UNL     1     -11.033  11.702  65.299  1.00  0.00    -0.327 A  
HETATM   34  F   UNL     1      -7.618   4.567  68.247  1.00  0.00    -0.069 F  
HETATM   35  C   UNL     1      -6.817   6.471  67.116  1.00  0.00    -0.066 A  
HETATM   36  C   UNL     1      -6.930   7.831  66.828  1.00  0.00    -0.072 A  
HETATM   37  C   UNL     1     -10.193  11.272  66.328  1.00  0.00    -0.280 A  
ENDBRANCH  21  22
ENDBRANCH  20  21
ENDBRANCH  17  20
ENDBRANCH  13  14
ENDBRANCH  10  13
ENDBRANCH   8   9
TORSDOF 6
ENDMDL
MODEL      104
REMARK 921   NORMALIZED FREE ENERGY PREDICTED BY IDOCK:   -5.28 KCAL/MOL
REMARK 922        TOTAL FREE ENERGY PREDICTED BY IDOCK:   -8.41 KCAL/MOL
REMARK 923 INTER-LIGAND FREE ENERGY PREDICTED BY IDOCK:   -7.50 KCAL/MOL
REMARK 924 INTRA-LIGAND FREE ENERGY PREDICTED BY IDOCK:   -0.91 KCAL/MOL
REMARK 927      BINDING AFFINITY PREDICTED BY RF-SCORE:    0.00 PKD
ROOT
HETATM    1  C   UNL     1      -9.666   4.829  68.161  1.00  0.00    -0.201 C  
HETATM    2  C   UNL     1      -9.147   4.025  69.323  1.00  0.00    -0.194 A  
HETATM    3  C   UNL     1      -8.169   3.051  69.032  1.00  0.00    -0.077 A  
HETATM    4  C   UNL     1      -7.703   2.186  70.015  1.00  0.00    -0.045 A  
HETATM    5  C   UNL     1      -8.229   2.260  71.298  1.00  0.00    -0.066 A  
HETATM    6  C   UNL     1      -9.207   3.219  71.625  1.00  0.00    -0.185 A  
HETATM    7  C   UNL     1      -9.718   3.245  73.041  1.00  0.00    -0.170 C  
HETATM    8  C   UNL     1      -9.632   4.149  70.646  1.00  0.00    -0.194 A  
ENDROOT
BRANCH   8   9
HETATM    9  N   UNL     1     -10.560   5.157  71.031  1.00  0.00    -0.180 N  
HETATM   10  C   UNL     1     -10.183   6.370  71.588  1.00  0.00    -0.196 C  
HETATM   11  H   UNL     1     -11.555   4.978  70.891  1.00  0.00     0.000 HD 
HETATM   12  O   UNL     1      -9.024   6.710  71.813  1.00  0.00    -0.140 OA 
BRANCH  10  13
HETATM   13  C   UNL     1     -11.329   7.264  72.081  1.00  0.00    -0.265 C  
BRANCH  13  14
HETATM   14  N   UNL     1     -12.267   7.737  71.031  1.00  0.00    -0.261 NA 
HETATM   15  C   UNL     1     -13.097   8.845  71.581  1.00  0.00    -0.357 C  
HETATM   16  C   UNL     1     -12.375  10.211  71.756  1.00  0.00    -0.310 C  
HETATM   17  N   UNL     1     -11.624  10.682  70.575  1.00  0.00    -0.336 NA 
HETATM   18  C   UNL     1     -10.799   9.583  70.042  1.00  0.00    -0.252 C  
HETATM   19  C   UNL     1     -11.562   8.256  69.836  1.00  0.00     0.299 C  
BRANCH  17  20
HETATM   20  C   UNL     1     -12.488  11.272  69.545  1.00  0.00    -0.061 C  
BRANCH  20  21
HETATM   21  C   UNL     1     -11.883  11.141  68.139  1.00  0.00    -0.238 C  
BRANCH  21  22
HETATM   22  C   UNL     1     -11.421  12.474  67.526  1.00  0.00    -0.397 C  
HETATM   23  C   UNL     1      -9.898  12.565  67.242  1.00  0.00    -0.204 C  
HETATM   24  C   UNL     1      -9.444  13.969  66.839  1.00  0.00    -0.271 A  
HETATM   25  C   UNL     1      -9.477  11.490  66.243  1.00  0.00    -0.235 A  
HETATM   26  C   UNL     1      -9.974  11.493  64.928  1.00  0.00    -0.303 A  
HETATM   27  C   UNL     1      -8.137  14.385  67.157  1.00  0.00    -0.171 A  
HETATM   28  C   UNL     1      -7.705  15.678  66.852  1.00  0.00    -0.238 A  
HETATM   29  C   UNL     1      -9.692  10.439  64.059  1.00  0.00    -0.373 A  
HETATM   30  C   UNL     1      -8.573  16.559  66.219  1.00  0.00    -0.332 A  
HETATM   31  C   UNL     1      -8.906   9.382  64.498  1.00  0.00    -0.198 A  
HETATM   32  F   UNL     1      -8.661   8.357  63.672  1.00  0.00    -0.143 F  
HETATM   33  C   UNL     1      -8.382   9.367  65.785  1.00  0.00    -0.126 A  
HETATM   34  F   UNL     1      -8.166  17.804  65.941  1.00  0.00    -0.244 F  
HETATM   35  C   UNL     1      -9.858  16.168  65.875  1.00  0.00    -0.384 A  
HETATM   36  C   UNL     1     -10.290  14.877  66.179  1.00  0.00    -0.312 A  
HETATM   37  C   UNL     1      -8.661  10.421  66.656  1.00  0.00    -0.141 A  
ENDBRANCH  21  22
ENDBRANCH  20  21
ENDBRANCH  17  20
ENDBRANCH  13  14
ENDBRANCH  10  13
ENDBRANCH   8   9
TORSDOF 6
ENDMDL
MODEL      105
REMARK 921   NORMALIZED FREE ENERGY PREDICTED BY IDOCK:   -5.28 KCAL/MOL
REMARK 922        TOTAL FREE ENERGY PREDICTED BY IDOCK:   -8.40 KCAL/MOL
REMARK 923 INTER-LIGAND FREE ENERGY PREDICTED BY IDOCK:   -7.98 KCAL/MOL
REMARK 924 INTRA-LIGAND FREE ENERGY PREDICTED BY IDOCK:   -0.42 KCAL/MOL
REMARK 927      BINDING AFFINITY PREDICTED BY RF-SCORE:    0.00 PKD
ROOT
HETATM    1  C   UNL     1      -7.464   6.441  67.178  1.00  0.00    -0.084 C  
HETATM    2  C   UNL     1      -6.918   5.097  67.582  1.00  0.00    -0.065 A  
HETATM    3  C   UNL     1      -5.827   4.606  66.838  1.00  0.00    -0.026 A  
HETATM    4  C   UNL     1      -5.318   3.333  67.063  1.00  0.00    -0.012 A  
HETATM    5  C   UNL     1      -5.913   2.516  68.016  1.00  0.00    -0.024 A  
HETATM    6  C   UNL     1      -7.005   2.972  68.778  1.00  0.00    -0.048 A  
HETATM    7  C   UNL     1      -7.586   2.033  69.803  1.00  0.00    -0.043 C  
HETATM    8  C   UNL     1      -7.480   4.293  68.603  1.00  0.00    -0.059 A  
ENDROOT
BRANCH   8   9
HETATM    9  N   UNL     1      -8.532   4.750  69.447  1.00  0.00    -0.082 N  
HETATM   10  C   UNL     1      -8.328   5.576  70.543  1.00  0.00    -0.116 C  
HETATM   11  H   UNL     1      -9.485   4.455  69.235  1.00  0.00     0.000 HD 
HETATM   12  O   UNL     1      -7.234   6.000  70.910  1.00  0.00    -0.070 OA 
BRANCH  10  13
HETATM   13  C   UNL     1      -9.559   5.836  71.422  1.00  0.00    -0.158 C  
BRANCH  13  14
HETATM   14  N   UNL     1     -10.757   6.345  70.707  1.00  0.00    -0.237 NA 
HETATM   15  C   UNL     1     -11.733   6.869  71.704  1.00  0.00    -0.304 C  
HETATM   16  C   UNL     1     -11.368   8.229  72.362  1.00  0.00    -0.388 C  
HETATM   17  N   UNL     1     -10.984   9.300  71.422  1.00  0.00    -0.335 NA 
HETATM   18  C   UNL     1     -10.012   8.778  70.445  1.00  0.00    -0.189 C  
HETATM   19  C   UNL     1     -10.432   7.450  69.776  1.00  0.00    -0.229 C  
BRANCH  17  20
HETATM   20  C   UNL     1     -12.138   9.930  70.768  1.00  0.00    -0.308 C  
BRANCH  20  21
HETATM   21  C   UNL     1     -11.742  11.187  69.980  1.00  0.00    -0.438 C  
BRANCH  21  22
HETATM   22  C   UNL     1     -11.081  10.897  68.622  1.00  0.00    -0.305 C  
HETATM   23  C   UNL     1     -11.356  11.960  67.526  1.00  0.00    -0.381 C  
HETATM   24  C   UNL     1     -10.869  11.535  66.139  1.00  0.00    -0.330 A  
HETATM   25  C   UNL     1     -10.816  13.321  67.957  1.00  0.00    -0.261 A  
HETATM   26  C   UNL     1      -9.440  13.522  68.156  1.00  0.00    -0.214 A  
HETATM   27  C   UNL     1     -11.547  12.007  64.999  1.00  0.00    -0.323 A  
HETATM   28  C   UNL     1     -11.164  11.597  63.720  1.00  0.00    -0.498 A  
HETATM   29  C   UNL     1      -8.965  14.727  68.676  1.00  0.00    -0.185 A  
HETATM   30  C   UNL     1     -10.096  10.722  63.572  1.00  0.00    -0.302 A  
HETATM   31  C   UNL     1      -9.862  15.737  68.991  1.00  0.00    -0.240 A  
HETATM   32  F   UNL     1      -9.408  16.881  69.518  1.00  0.00    -0.141 F  
HETATM   33  C   UNL     1     -11.226  15.574  68.781  1.00  0.00    -0.316 A  
HETATM   34  F   UNL     1      -9.738  10.315  62.347  1.00  0.00    -0.300 F  
HETATM   35  C   UNL     1      -9.397  10.259  64.676  1.00  0.00    -0.320 A  
HETATM   36  C   UNL     1      -9.778  10.667  65.954  1.00  0.00    -0.273 A  
HETATM   37  C   UNL     1     -11.704  14.370  68.260  1.00  0.00    -0.376 A  
ENDBRANCH  21  22
ENDBRANCH  20  21
ENDBRANCH  17  20
ENDBRANCH  13  14
ENDBRANCH  10  13
ENDBRANCH   8   9
TORSDOF 6
ENDMDL
MODEL      106
REMARK 921   NORMALIZED FREE ENERGY PREDICTED BY IDOCK:   -5.27 KCAL/MOL
REMARK 922        TOTAL FREE ENERGY PREDICTED BY IDOCK:   -8.39 KCAL/MOL
REMARK 923 INTER-LIGAND FREE ENERGY PREDICTED BY IDOCK:   -8.13 KCAL/MOL
REMARK 924 INTRA-LIGAND FREE ENERGY PREDICTED BY IDOCK:   -0.26 KCAL/MOL
REMARK 927      BINDING AFFINITY PREDICTED BY RF-SCORE:    0.00 PKD
ROOT
HETATM    1  C   UNL     1     -10.845  13.452  67.091  1.00  0.00    -0.284 C  
HETATM    2  C   UNL     1     -10.918  14.624  68.034  1.00  0.00    -0.274 A  
HETATM    3  C   UNL     1     -10.680  15.898  67.480  1.00  0.00    -0.318 A  
HETATM    4  C   UNL     1     -10.620  17.030  68.283  1.00  0.00    -0.372 A  
HETATM    5  C   UNL     1     -10.767  16.904  69.658  1.00  0.00    -0.151 A  
HETATM    6  C   UNL     1     -11.006  15.647  70.247  1.00  0.00    -0.363 A  
HETATM    7  C   UNL     1     -11.169  15.593  71.743  1.00  0.00    -0.323 C  
HETATM    8  C   UNL     1     -11.139  14.502  69.426  1.00  0.00    -0.268 A  
ENDROOT
BRANCH   8   9
HETATM    9  N   UNL     1     -11.462  13.261  70.046  1.00  0.00    -0.512 N  
HETATM   10  C   UNL     1     -12.659  13.026  70.705  1.00  0.00    -0.241 C  
HETATM   11  H   UNL     1     -10.778  12.506  70.002  1.00  0.00     0.000 HD 
HETATM   12  O   UNL     1     -13.565  13.847  70.834  1.00  0.00    -0.115 OA 
BRANCH  10  13
HETATM   13  C   UNL     1     -12.763  11.683  71.442  1.00  0.00    -0.339 C  
BRANCH  13  14
HETATM   14  N   UNL     1     -12.730  10.477  70.577  1.00  0.00    -0.338 NA 
HETATM   15  C   UNL     1     -11.385   9.844  70.675  1.00  0.00    -0.339 C  
HETATM   16  C   UNL     1     -11.087   9.082  71.997  1.00  0.00    -0.301 C  
HETATM   17  N   UNL     1     -12.127   8.123  72.419  1.00  0.00    -0.359 NA 
HETATM   18  C   UNL     1     -13.453   8.758  72.328  1.00  0.00    -0.420 C  
HETATM   19  C   UNL     1     -13.732   9.463  70.982  1.00  0.00    -0.014 C  
BRANCH  17  20
HETATM   20  C   UNL     1     -12.071   6.855  71.679  1.00  0.00    -0.353 C  
BRANCH  20  21
HETATM   21  C   UNL     1     -10.721   6.145  71.852  1.00  0.00    -0.277 C  
BRANCH  21  22
HETATM   22  C   UNL     1     -10.344   5.216  70.685  1.00  0.00    -0.305 C  
HETATM   23  C   UNL     1      -9.772   5.941  69.438  1.00  0.00    -0.191 C  
HETATM   24  C   UNL     1      -9.613   5.019  68.227  1.00  0.00    -0.187 A  
HETATM   25  C   UNL     1      -8.488   6.684  69.796  1.00  0.00    -0.132 A  
HETATM   26  C   UNL     1      -7.345   5.987  70.222  1.00  0.00    -0.088 A  
HETATM   27  C   UNL     1      -9.732   5.560  66.933  1.00  0.00    -0.163 A  
HETATM   28  C   UNL     1      -9.646   4.739  65.805  1.00  0.00    -0.187 A  
HETATM   29  C   UNL     1      -6.219   6.676  70.674  1.00  0.00    -0.035 A  
HETATM   30  C   UNL     1      -9.430   3.376  65.965  1.00  0.00    -0.112 A  
HETATM   31  C   UNL     1      -6.228   8.064  70.693  1.00  0.00    -0.036 A  
HETATM   32  F   UNL     1      -5.158   8.723  71.154  1.00  0.00    -0.028 F  
HETATM   33  C   UNL     1      -7.336   8.778  70.254  1.00  0.00    -0.058 A  
HETATM   34  F   UNL     1      -9.363   2.586  64.885  1.00  0.00    -0.133 F  
HETATM   35  C   UNL     1      -9.286   2.821  67.227  1.00  0.00    -0.157 A  
HETATM   36  C   UNL     1      -9.372   3.639  68.353  1.00  0.00    -0.225 A  
HETATM   37  C   UNL     1      -8.464   8.091  69.800  1.00  0.00    -0.127 A  
ENDBRANCH  21  22
ENDBRANCH  20  21
ENDBRANCH  17  20
ENDBRANCH  13  14
ENDBRANCH  10  13
ENDBRANCH   8   9
TORSDOF 6
ENDMDL
MODEL      107
REMARK 921   NORMALIZED FREE ENERGY PREDICTED BY IDOCK:   -5.26 KCAL/MOL
REMARK 922        TOTAL FREE ENERGY PREDICTED BY IDOCK:   -8.37 KCAL/MOL
REMARK 923 INTER-LIGAND FREE ENERGY PREDICTED BY IDOCK:   -7.75 KCAL/MOL
REMARK 924 INTRA-LIGAND FREE ENERGY PREDICTED BY IDOCK:   -0.62 KCAL/MOL
REMARK 927      BINDING AFFINITY PREDICTED BY RF-SCORE:    0.00 PKD
ROOT
HETATM    1  C   UNL     1     -11.302  16.328  70.442  1.00  0.00    -0.313 C  
HETATM    2  C   UNL     1     -12.182  15.213  70.943  1.00  0.00    -0.398 A  
HETATM    3  C   UNL     1     -13.223  15.574  71.822  1.00  0.00    -0.567 A  
HETATM    4  C   UNL     1     -14.024  14.610  72.421  1.00  0.00    -0.578 A  
HETATM    5  C   UNL     1     -13.778  13.265  72.174  1.00  0.00    -0.619 A  
HETATM    6  C   UNL     1     -12.747  12.867  71.302  1.00  0.00    -0.371 A  
HETATM    7  C   UNL     1     -12.552  11.391  71.074  1.00  0.00    -0.487 C  
HETATM    8  C   UNL     1     -11.976  13.847  70.634  1.00  0.00    -0.292 A  
ENDROOT
BRANCH   8   9
HETATM    9  N   UNL     1     -10.997  13.413  69.696  1.00  0.00    -0.460 N  
HETATM   10  C   UNL     1     -11.233  13.321  68.333  1.00  0.00    -0.280 C  
HETATM   11  H   UNL     1     -10.074  13.155  70.045  1.00  0.00     0.000 HD 
HETATM   12  O   UNL     1     -12.297  13.597  67.783  1.00  0.00    -0.246 OA 
BRANCH  10  13
HETATM   13  C   UNL     1     -10.110  12.686  67.501  1.00  0.00    -0.212 C  
BRANCH  13  14
HETATM   14  N   UNL     1      -9.400  11.553  68.147  1.00  0.00    -0.179 NA 
HETATM   15  C   UNL     1     -10.398  10.533  68.574  1.00  0.00    -0.179 C  
HETATM   16  C   UNL     1     -11.026   9.679  67.436  1.00  0.00    -0.069 C  
HETATM   17  N   UNL     1     -10.060   9.078  66.494  1.00  0.00    -0.288 NA 
HETATM   18  C   UNL     1      -9.082  10.095  66.070  1.00  0.00    -0.154 C  
HETATM   19  C   UNL     1      -8.443  10.889  67.231  1.00  0.00    -0.125 C  
BRANCH  17  20
HETATM   20  C   UNL     1      -9.408   7.877  67.032  1.00  0.00    -0.160 C  
BRANCH  20  21
HETATM   21  C   UNL     1     -10.275   6.622  66.857  1.00  0.00    -0.287 C  
BRANCH  21  22
HETATM   22  C   UNL     1      -9.570   5.465  66.129  1.00  0.00    -0.169 C  
HETATM   23  C   UNL     1      -8.217   5.033  66.755  1.00  0.00    -0.107 C  
HETATM   24  C   UNL     1      -7.444   4.036  65.889  1.00  0.00    -0.084 A  
HETATM   25  C   UNL     1      -8.425   4.544  68.187  1.00  0.00    -0.099 A  
HETATM   26  C   UNL     1      -9.198   3.402  68.455  1.00  0.00    -0.229 A  
HETATM   27  C   UNL     1      -6.038   4.029  65.941  1.00  0.00    -0.031 A  
HETATM   28  C   UNL     1      -5.297   3.170  65.125  1.00  0.00    -0.009 A  
HETATM   29  C   UNL     1      -9.495   3.036  69.768  1.00  0.00    -0.184 A  
HETATM   30  C   UNL     1      -5.959   2.308  64.260  1.00  0.00    -0.014 A  
HETATM   31  C   UNL     1      -9.013   3.805  70.818  1.00  0.00    -0.094 A  
HETATM   32  F   UNL     1      -9.323   3.470  72.077  1.00  0.00    -0.137 F  
HETATM   33  C   UNL     1      -8.226   4.926  70.581  1.00  0.00    -0.096 A  
HETATM   34  F   UNL     1      -5.250   1.495  63.466  1.00  0.00    -0.003 F  
HETATM   35  C   UNL     1      -7.344   2.278  64.205  1.00  0.00    -0.058 A  
HETATM   36  C   UNL     1      -8.084   3.135  65.020  1.00  0.00    -0.086 A  
HETATM   37  C   UNL     1      -7.926   5.294  69.269  1.00  0.00    -0.088 A  
ENDBRANCH  21  22
ENDBRANCH  20  21
ENDBRANCH  17  20
ENDBRANCH  13  14
ENDBRANCH  10  13
ENDBRANCH   8   9
TORSDOF 6
ENDMDL
MODEL      108
REMARK 921   NORMALIZED FREE ENERGY PREDICTED BY IDOCK:   -5.24 KCAL/MOL
REMARK 922        TOTAL FREE ENERGY PREDICTED BY IDOCK:   -8.35 KCAL/MOL
REMARK 923 INTER-LIGAND FREE ENERGY PREDICTED BY IDOCK:   -7.12 KCAL/MOL
REMARK 924 INTRA-LIGAND FREE ENERGY PREDICTED BY IDOCK:   -1.23 KCAL/MOL
REMARK 927      BINDING AFFINITY PREDICTED BY RF-SCORE:    0.00 PKD
ROOT
HETATM    1  C   UNL     1      -7.015   4.347  67.714  1.00  0.00    -0.056 C  
HETATM    2  C   UNL     1      -8.315   5.040  67.400  1.00  0.00    -0.106 A  
HETATM    3  C   UNL     1      -9.332   4.249  66.830  1.00  0.00    -0.180 A  
HETATM    4  C   UNL     1     -10.529   4.814  66.407  1.00  0.00    -0.283 A  
HETATM    5  C   UNL     1     -10.717   6.186  66.520  1.00  0.00    -0.207 A  
HETATM    6  C   UNL     1      -9.722   7.007  67.084  1.00  0.00    -0.206 A  
HETATM    7  C   UNL     1     -10.006   8.483  67.185  1.00  0.00    -0.304 C  
HETATM    8  C   UNL     1      -8.532   6.427  67.581  1.00  0.00    -0.117 A  
ENDROOT
BRANCH   8   9
HETATM    9  N   UNL     1      -7.583   7.274  68.220  1.00  0.00    -0.115 N  
HETATM   10  C   UNL     1      -7.514   7.444  69.595  1.00  0.00    -0.093 C  
HETATM   11  H   UNL     1      -6.919   7.783  67.637  1.00  0.00     0.000 HD 
HETATM   12  O   UNL     1      -8.254   6.896  70.409  1.00  0.00    -0.121 OA 
BRANCH  10  13
HETATM   13  C   UNL     1      -6.531   8.515  70.088  1.00  0.00    -0.038 C  
BRANCH  13  14
HETATM   14  N   UNL     1      -7.134   9.830  70.422  1.00  0.00    -0.134 NA 
HETATM   15  C   UNL     1      -6.057  10.765  70.851  1.00  0.00     0.074 C  
HETATM   16  C   UNL     1      -5.140  11.310  69.720  1.00  0.00    -0.046 C  
HETATM   17  N   UNL     1      -5.847  11.860  68.546  1.00  0.00    -0.049 NA 
HETATM   18  C   UNL     1      -6.904  10.926  68.122  1.00  0.00    -0.067 C  
HETATM   19  C   UNL     1      -7.826  10.445  69.264  1.00  0.00    -0.147 C  
BRANCH  17  20
HETATM   20  C   UNL     1      -6.367  13.215  68.773  1.00  0.00    -0.091 C  
BRANCH  20  21
HETATM   21  C   UNL     1      -6.957  13.829  67.495  1.00  0.00    -0.161 C  
BRANCH  21  22
HETATM   22  C   UNL     1      -7.545  15.237  67.687  1.00  0.00    -0.193 C  
HETATM   23  C   UNL     1      -8.921  15.464  67.007  1.00  0.00    -0.253 C  
HETATM   24  C   UNL     1      -9.371  16.926  67.034  1.00  0.00    -0.245 A  
HETATM   25  C   UNL     1      -9.963  14.508  67.582  1.00  0.00    -0.224 A  
HETATM   26  C   UNL     1     -10.340  14.579  68.935  1.00  0.00    -0.237 A  
HETATM   27  C   UNL     1     -10.186  17.412  65.993  1.00  0.00    -0.308 A  
HETATM   28  C   UNL     1     -10.571  18.754  65.955  1.00  0.00    -0.442 A  
HETATM   29  C   UNL     1     -11.192  13.621  69.486  1.00  0.00    -0.205 A  
HETATM   30  C   UNL     1     -10.154  19.615  66.963  1.00  0.00    -0.412 A  
HETATM   31  C   UNL     1     -11.676  12.595  68.687  1.00  0.00    -0.325 A  
HETATM   32  F   UNL     1     -12.470  11.660  69.226  1.00  0.00    -0.270 F  
HETATM   33  C   UNL     1     -11.338  12.515  67.342  1.00  0.00    -0.371 A  
HETATM   34  F   UNL     1     -10.510  20.906  66.919  1.00  0.00    -0.280 F  
HETATM   35  C   UNL     1      -9.370  19.158  68.011  1.00  0.00    -0.378 A  
HETATM   36  C   UNL     1      -8.985  17.818  68.049  1.00  0.00    -0.263 A  
HETATM   37  C   UNL     1     -10.488  13.473  66.786  1.00  0.00    -0.273 A  
ENDBRANCH  21  22
ENDBRANCH  20  21
ENDBRANCH  17  20
ENDBRANCH  13  14
ENDBRANCH  10  13
ENDBRANCH   8   9
TORSDOF 6
ENDMDL
MODEL      109
REMARK 921   NORMALIZED FREE ENERGY PREDICTED BY IDOCK:   -5.21 KCAL/MOL
REMARK 922        TOTAL FREE ENERGY PREDICTED BY IDOCK:   -8.31 KCAL/MOL
REMARK 923 INTER-LIGAND FREE ENERGY PREDICTED BY IDOCK:   -7.46 KCAL/MOL
REMARK 924 INTRA-LIGAND FREE ENERGY PREDICTED BY IDOCK:   -0.85 KCAL/MOL
REMARK 927      BINDING AFFINITY PREDICTED BY RF-SCORE:    0.00 PKD
ROOT
HETATM    1  C   UNL     1      -6.152   5.479  72.986  1.00  0.00    -0.046 C  
HETATM    2  C   UNL     1      -6.840   4.172  73.280  1.00  0.00    -0.057 A  
HETATM    3  C   UNL     1      -6.221   3.330  74.225  1.00  0.00    -0.020 A  
HETATM    4  C   UNL     1      -6.718   2.059  74.488  1.00  0.00    -0.022 A  
HETATM    5  C   UNL     1      -7.825   1.597  73.788  1.00  0.00    -0.041 A  
HETATM    6  C   UNL     1      -8.469   2.411  72.835  1.00  0.00    -0.067 A  
HETATM    7  C   UNL     1      -9.671   1.845  72.128  1.00  0.00    -0.189 C  
HETATM    8  C   UNL     1      -8.010   3.731  72.616  1.00  0.00    -0.081 A  
ENDROOT
BRANCH   8   9
HETATM    9  N   UNL     1      -8.733   4.556  71.708  1.00  0.00    -0.115 N  
HETATM   10  C   UNL     1      -9.797   5.360  72.088  1.00  0.00    -0.169 C  
HETATM   11  H   UNL     1      -8.455   4.554  70.727  1.00  0.00     0.000 HD 
HETATM   12  O   UNL     1     -10.236   5.452  73.232  1.00  0.00    -0.173 OA 
BRANCH  10  13
HETATM   13  C   UNL     1     -10.550   6.056  70.945  1.00  0.00    -0.251 C  
BRANCH  13  14
HETATM   14  N   UNL     1      -9.816   7.160  70.277  1.00  0.00    -0.176 NA 
HETATM   15  C   UNL     1     -10.661   7.715  69.183  1.00  0.00    -0.186 C  
HETATM   16  C   UNL     1     -11.864   8.592  69.632  1.00  0.00     0.828 C  
HETATM   17  N   UNL     1     -11.540   9.653  70.608  1.00  0.00    -0.284 NA 
HETATM   18  C   UNL     1     -10.712   9.094  71.690  1.00  0.00    -0.371 C  
HETATM   19  C   UNL     1      -9.498   8.271  71.205  1.00  0.00    -0.172 C  
BRANCH  17  20
HETATM   20  C   UNL     1     -10.916  10.830  69.988  1.00  0.00    -0.211 C  
BRANCH  20  21
HETATM   21  C   UNL     1     -11.878  11.559  69.037  1.00  0.00    -0.408 C  
BRANCH  21  22
HETATM   22  C   UNL     1     -11.619  13.070  68.918  1.00  0.00    -0.355 C  
HETATM   23  C   UNL     1     -10.615  13.471  67.805  1.00  0.00    -0.252 C  
HETATM   24  C   UNL     1     -10.218  14.948  67.857  1.00  0.00    -0.228 A  
HETATM   25  C   UNL     1     -11.137  13.040  66.437  1.00  0.00    -0.313 A  
HETATM   26  C   UNL     1     -12.320  13.585  65.910  1.00  0.00    -0.507 A  
HETATM   27  C   UNL     1      -8.941  15.331  67.405  1.00  0.00    -0.194 A  
HETATM   28  C   UNL     1      -8.525  16.662  67.487  1.00  0.00    -0.199 A  
HETATM   29  C   UNL     1     -12.863  13.093  64.723  1.00  0.00    -0.298 A  
HETATM   30  C   UNL     1      -9.386  17.619  68.010  1.00  0.00    -0.274 A  
HETATM   31  C   UNL     1     -12.221  12.061  64.053  1.00  0.00    -0.403 A  
HETATM   32  F   UNL     1     -12.759  11.571  62.929  1.00  0.00    -0.590 F  
HETATM   33  C   UNL     1     -11.037  11.521  64.539  1.00  0.00    -0.340 A  
HETATM   34  F   UNL     1      -8.982  18.892  68.103  1.00  0.00    -0.296 F  
HETATM   35  C   UNL     1     -10.657  17.272  68.440  1.00  0.00    -0.368 A  
HETATM   36  C   UNL     1     -11.074  15.944  68.359  1.00  0.00    -0.345 A  
HETATM   37  C   UNL     1     -10.490  12.012  65.726  1.00  0.00    -0.290 A  
ENDBRANCH  21  22
ENDBRANCH  20  21
ENDBRANCH  17  20
ENDBRANCH  13  14
ENDBRANCH  10  13
ENDBRANCH   8   9
TORSDOF 6
ENDMDL
MODEL      110
REMARK 921   NORMALIZED FREE ENERGY PREDICTED BY IDOCK:   -5.19 KCAL/MOL
REMARK 922        TOTAL FREE ENERGY PREDICTED BY IDOCK:   -8.28 KCAL/MOL
REMARK 923 INTER-LIGAND FREE ENERGY PREDICTED BY IDOCK:   -7.41 KCAL/MOL
REMARK 924 INTRA-LIGAND FREE ENERGY PREDICTED BY IDOCK:   -0.87 KCAL/MOL
REMARK 927      BINDING AFFINITY PREDICTED BY RF-SCORE:    0.00 PKD
ROOT
HETATM    1  C   UNL     1     -10.086  19.531  69.782  1.00  0.00     0.191 C  
HETATM    2  C   UNL     1     -10.069  19.383  68.284  1.00  0.00    -0.531 A  
HETATM    3  C   UNL     1      -9.719  20.527  67.538  1.00  0.00    -0.554 A  
HETATM    4  C   UNL     1      -9.775  20.525  66.150  1.00  0.00    -0.164 A  
HETATM    5  C   UNL     1     -10.213  19.387  65.484  1.00  0.00     0.012 A  
HETATM    6  C   UNL     1     -10.572  18.226  66.195  1.00  0.00    -0.326 A  
HETATM    7  C   UNL     1     -11.023  17.028  65.401  1.00  0.00     0.004 C  
HETATM    8  C   UNL     1     -10.447  18.200  67.605  1.00  0.00    -0.416 A  
ENDROOT
BRANCH   8   9
HETATM    9  N   UNL     1     -10.739  16.985  68.286  1.00  0.00    -0.373 N  
HETATM   10  C   UNL     1      -9.773  16.051  68.631  1.00  0.00    -0.217 C  
HETATM   11  H   UNL     1     -11.709  16.790  68.534  1.00  0.00     0.000 HD 
HETATM   12  O   UNL     1      -8.572  16.159  68.390  1.00  0.00    -0.176 OA 
BRANCH  10  13
HETATM   13  C   UNL     1     -10.296  14.734  69.221  1.00  0.00    -0.206 C  
BRANCH  13  14
HETATM   14  N   UNL     1     -11.235  13.976  68.356  1.00  0.00    -0.253 NA 
HETATM   15  C   UNL     1     -10.507  13.499  67.147  1.00  0.00    -0.256 C  
HETATM   16  C   UNL     1      -9.526  12.313  67.370  1.00  0.00    -0.181 C  
HETATM   17  N   UNL     1     -10.086  11.163  68.108  1.00  0.00    -0.173 NA 
HETATM   18  C   UNL     1     -10.796  11.643  69.306  1.00  0.00    -0.152 C  
HETATM   19  C   UNL     1     -11.798  12.788  69.038  1.00  0.00    -0.297 C  
BRANCH  17  20
HETATM   20  C   UNL     1     -10.933  10.303  67.272  1.00  0.00    -0.210 C  
BRANCH  20  21
HETATM   21  C   UNL     1     -10.372   8.878  67.157  1.00  0.00    -0.351 C  
BRANCH  21  22
HETATM   22  C   UNL     1      -9.857   8.295  68.484  1.00  0.00    -0.188 C  
HETATM   23  C   UNL     1     -10.288   6.830  68.760  1.00  0.00    -0.211 C  
HETATM   24  C   UNL     1      -9.943   6.359  70.174  1.00  0.00    -0.201 A  
HETATM   25  C   UNL     1      -9.750   5.903  67.673  1.00  0.00    -0.122 A  
HETATM   26  C   UNL     1      -8.367   5.724  67.495  1.00  0.00    -0.104 A  
HETATM   27  C   UNL     1     -10.759   5.392  70.793  1.00  0.00    -0.252 A  
HETATM   28  C   UNL     1     -10.507   4.977  72.102  1.00  0.00    -0.274 A  
HETATM   29  C   UNL     1      -7.880   4.981  66.420  1.00  0.00    -0.099 A  
HETATM   30  C   UNL     1      -9.432   5.518  72.797  1.00  0.00    -0.148 A  
HETATM   31  C   UNL     1      -8.770   4.408  65.524  1.00  0.00    -0.123 A  
HETATM   32  F   UNL     1      -8.299   3.720  64.476  1.00  0.00    -0.094 F  
HETATM   33  C   UNL     1     -10.143   4.549  65.690  1.00  0.00    -0.261 A  
HETATM   34  F   UNL     1      -9.199   5.133  74.059  1.00  0.00    -0.120 F  
HETATM   35  C   UNL     1      -8.600   6.454  72.204  1.00  0.00    -0.125 A  
HETATM   36  C   UNL     1      -8.851   6.869  70.897  1.00  0.00    -0.149 A  
HETATM   37  C   UNL     1     -10.634   5.290  66.766  1.00  0.00    -0.309 A  
ENDBRANCH  21  22
ENDBRANCH  20  21
ENDBRANCH  17  20
ENDBRANCH  13  14
ENDBRANCH  10  13
ENDBRANCH   8   9
TORSDOF 6
ENDMDL
MODEL      111
REMARK 921   NORMALIZED FREE ENERGY PREDICTED BY IDOCK:   -5.19 KCAL/MOL
REMARK 922        TOTAL FREE ENERGY PREDICTED BY IDOCK:   -8.28 KCAL/MOL
REMARK 923 INTER-LIGAND FREE ENERGY PREDICTED BY IDOCK:   -7.49 KCAL/MOL
REMARK 924 INTRA-LIGAND FREE ENERGY PREDICTED BY IDOCK:   -0.79 KCAL/MOL
REMARK 927      BINDING AFFINITY PREDICTED BY RF-SCORE:    0.00 PKD
ROOT
HETATM    1  C   UNL     1      -8.846   4.378  70.003  1.00  0.00    -0.126 C  
HETATM    2  C   UNL     1      -7.828   4.319  71.111  1.00  0.00    -0.071 A  
HETATM    3  C   UNL     1      -6.927   3.236  71.086  1.00  0.00    -0.032 A  
HETATM    4  C   UNL     1      -6.019   3.033  72.118  1.00  0.00    -0.009 A  
HETATM    5  C   UNL     1      -6.017   3.893  73.209  1.00  0.00    -0.008 A  
HETATM    6  C   UNL     1      -6.904   4.986  73.268  1.00  0.00    -0.074 A  
HETATM    7  C   UNL     1      -6.831   5.882  74.477  1.00  0.00    -0.076 C  
HETATM    8  C   UNL     1      -7.780   5.238  72.187  1.00  0.00    -0.100 A  
ENDROOT
BRANCH   8   9
HETATM    9  N   UNL     1      -8.604   6.398  72.242  1.00  0.00    -0.118 N  
HETATM   10  C   UNL     1      -9.830   6.434  72.889  1.00  0.00    -0.167 C  
HETATM   11  H   UNL     1      -8.276   7.247  71.781  1.00  0.00     0.000 HD 
HETATM   12  O   UNL     1     -10.343   5.485  73.478  1.00  0.00    -0.193 OA 
BRANCH  10  13
HETATM   13  C   UNL     1     -10.644   7.723  72.708  1.00  0.00    -0.341 C  
BRANCH  13  14
HETATM   14  N   UNL     1     -11.540   7.751  71.525  1.00  0.00    -0.263 NA 
HETATM   15  C   UNL     1     -12.662   8.696  71.785  1.00  0.00    -0.359 C  
HETATM   16  C   UNL     1     -12.302  10.208  71.730  1.00  0.00    -0.310 C  
HETATM   17  N   UNL     1     -11.552  10.633  70.531  1.00  0.00    -0.336 NA 
HETATM   18  C   UNL     1     -10.440   9.699  70.286  1.00  0.00    -0.283 C  
HETATM   19  C   UNL     1     -10.844   8.208  70.299  1.00  0.00    -0.244 C  
BRANCH  17  20
HETATM   20  C   UNL     1     -12.407  10.796  69.348  1.00  0.00    -0.062 C  
BRANCH  20  21
HETATM   21  C   UNL     1     -11.590  10.844  68.048  1.00  0.00    -0.295 C  
BRANCH  21  22
HETATM   22  C   UNL     1     -11.377  12.261  67.491  1.00  0.00    -0.388 C  
HETATM   23  C   UNL     1      -9.899  12.622  67.183  1.00  0.00    -0.212 C  
HETATM   24  C   UNL     1      -9.699  14.099  66.839  1.00  0.00    -0.272 A  
HETATM   25  C   UNL     1      -9.331  11.679  66.124  1.00  0.00    -0.237 A  
HETATM   26  C   UNL     1      -9.857  11.656  64.821  1.00  0.00    -0.261 A  
HETATM   27  C   UNL     1      -8.473  14.716  67.151  1.00  0.00    -0.244 A  
HETATM   28  C   UNL     1      -8.274  16.076  66.900  1.00  0.00    -0.277 A  
HETATM   29  C   UNL     1      -9.425  10.705  63.897  1.00  0.00    -0.325 A  
HETATM   30  C   UNL     1      -9.295  16.824  66.328  1.00  0.00    -0.279 A  
HETATM   31  C   UNL     1      -8.461   9.778  64.268  1.00  0.00    -0.178 A  
HETATM   32  F   UNL     1      -8.069   8.847  63.390  1.00  0.00    -0.133 F  
HETATM   33  C   UNL     1      -7.907   9.794  65.543  1.00  0.00    -0.120 A  
HETATM   34  F   UNL     1      -9.111  18.131  66.103  1.00  0.00    -0.291 F  
HETATM   35  C   UNL     1     -10.505  16.236  65.991  1.00  0.00    -0.342 A  
HETATM   36  C   UNL     1     -10.705  14.879  66.240  1.00  0.00    -0.320 A  
HETATM   37  C   UNL     1      -8.336  10.746  66.469  1.00  0.00    -0.146 A  
ENDBRANCH  21  22
ENDBRANCH  20  21
ENDBRANCH  17  20
ENDBRANCH  13  14
ENDBRANCH  10  13
ENDBRANCH   8   9
TORSDOF 6
ENDMDL
MODEL      112
REMARK 921   NORMALIZED FREE ENERGY PREDICTED BY IDOCK:   -5.18 KCAL/MOL
REMARK 922        TOTAL FREE ENERGY PREDICTED BY IDOCK:   -8.27 KCAL/MOL
REMARK 923 INTER-LIGAND FREE ENERGY PREDICTED BY IDOCK:   -7.70 KCAL/MOL
REMARK 924 INTRA-LIGAND FREE ENERGY PREDICTED BY IDOCK:   -0.57 KCAL/MOL
REMARK 927      BINDING AFFINITY PREDICTED BY RF-SCORE:    0.00 PKD
ROOT
HETATM    1  C   UNL     1      -9.007   7.130  73.771  1.00  0.00    -0.227 C  
HETATM    2  C   UNL     1     -10.018   7.071  72.656  1.00  0.00    -0.196 A  
HETATM    3  C   UNL     1     -11.252   6.459  72.953  1.00  0.00    -0.219 A  
HETATM    4  C   UNL     1     -12.211   6.260  71.967  1.00  0.00    -0.270 A  
HETATM    5  C   UNL     1     -11.938   6.642  70.659  1.00  0.00    -0.404 A  
HETATM    6  C   UNL     1     -10.715   7.255  70.326  1.00  0.00    -0.252 A  
HETATM    7  C   UNL     1     -10.499   7.653  68.889  1.00  0.00    -0.211 C  
HETATM    8  C   UNL     1      -9.766   7.525  71.340  1.00  0.00    -0.166 A  
ENDROOT
BRANCH   8   9
HETATM    9  N   UNL     1      -8.576   8.220  70.983  1.00  0.00    -0.134 N  
HETATM   10  C   UNL     1      -7.505   7.620  70.339  1.00  0.00    -0.079 C  
HETATM   11  H   UNL     1      -8.507   9.211  71.214  1.00  0.00     0.000 HD 
HETATM   12  O   UNL     1      -7.455   6.437  70.008  1.00  0.00    -0.086 OA 
BRANCH  10  13
HETATM   13  C   UNL     1      -6.250   8.490  70.176  1.00  0.00    -0.034 C  
BRANCH  13  14
HETATM   14  N   UNL     1      -6.129   9.199  68.877  1.00  0.00    -0.043 NA 
HETATM   15  C   UNL     1      -7.445   9.806  68.530  1.00  0.00    -0.079 C  
HETATM   16  C   UNL     1      -7.848  11.067  69.346  1.00  0.00     0.010 C  
HETATM   17  N   UNL     1      -6.814  12.118  69.432  1.00  0.00    -0.059 NA 
HETATM   18  C   UNL     1      -5.519  11.511  69.785  1.00  0.00    -0.073 C  
HETATM   19  C   UNL     1      -5.129  10.292  68.920  1.00  0.00    -0.035 C  
BRANCH  17  20
HETATM   20  C   UNL     1      -6.727  12.936  68.216  1.00  0.00    -0.093 C  
BRANCH  20  21
HETATM   21  C   UNL     1      -8.092  13.508  67.805  1.00  0.00    -0.177 C  
BRANCH  21  22
HETATM   22  C   UNL     1      -8.193  15.038  67.917  1.00  0.00    -0.146 C  
HETATM   23  C   UNL     1      -9.616  15.614  67.691  1.00  0.00    -0.220 C  
HETATM   24  C   UNL     1      -9.640  17.140  67.595  1.00  0.00    -0.254 A  
HETATM   25  C   UNL     1     -10.584  15.065  68.737  1.00  0.00    -0.240 A  
HETATM   26  C   UNL     1     -10.414  15.356  70.101  1.00  0.00    -0.291 A  
HETATM   27  C   UNL     1     -10.625  17.763  66.805  1.00  0.00    -0.235 A  
HETATM   28  C   UNL     1     -10.645  19.151  66.651  1.00  0.00    -0.520 A  
HETATM   29  C   UNL     1     -11.220  14.747  71.063  1.00  0.00    -0.118 A  
HETATM   30  C   UNL     1      -9.687  19.925  67.294  1.00  0.00    -0.387 A  
HETATM   31  C   UNL     1     -12.204  13.853  70.666  1.00  0.00    -0.373 A  
HETATM   32  F   UNL     1     -12.957  13.248  71.593  1.00  0.00    -0.416 F  
HETATM   33  C   UNL     1     -12.409  13.567  69.322  1.00  0.00    -0.125 A  
HETATM   34  F   UNL     1      -9.695  21.255  67.134  1.00  0.00    -0.550 F  
HETATM   35  C   UNL     1      -8.720  19.340  68.096  1.00  0.00    -0.370 A  
HETATM   36  C   UNL     1      -8.699  17.954  68.251  1.00  0.00    -0.277 A  
HETATM   37  C   UNL     1     -11.605  14.175  68.357  1.00  0.00    -0.353 A  
ENDBRANCH  21  22
ENDBRANCH  20  21
ENDBRANCH  17  20
ENDBRANCH  13  14
ENDBRANCH  10  13
ENDBRANCH   8   9
TORSDOF 6
ENDMDL
MODEL      113
REMARK 921   NORMALIZED FREE ENERGY PREDICTED BY IDOCK:   -5.15 KCAL/MOL
REMARK 922        TOTAL FREE ENERGY PREDICTED BY IDOCK:   -8.23 KCAL/MOL
REMARK 923 INTER-LIGAND FREE ENERGY PREDICTED BY IDOCK:   -7.47 KCAL/MOL
REMARK 924 INTRA-LIGAND FREE ENERGY PREDICTED BY IDOCK:   -0.76 KCAL/MOL
REMARK 927      BINDING AFFINITY PREDICTED BY RF-SCORE:    0.00 PKD
ROOT
HETATM    1  C   UNL     1     -11.740  16.219  68.762  1.00  0.00    -0.138 C  
HETATM    2  C   UNL     1     -12.172  15.229  69.811  1.00  0.00    -0.326 A  
HETATM    3  C   UNL     1     -12.631  15.761  71.033  1.00  0.00    -0.470 A  
HETATM    4  C   UNL     1     -12.952  14.933  72.101  1.00  0.00    -0.415 A  
HETATM    5  C   UNL     1     -12.791  13.559  71.975  1.00  0.00    -0.348 A  
HETATM    6  C   UNL     1     -12.335  12.992  70.770  1.00  0.00    -0.394 A  
HETATM    7  C   UNL     1     -12.200  11.493  70.707  1.00  0.00    -0.463 C  
HETATM    8  C   UNL     1     -12.075  13.826  69.657  1.00  0.00    -0.336 A  
ENDROOT
BRANCH   8   9
HETATM    9  N   UNL     1     -11.695  13.214  68.429  1.00  0.00    -0.331 N  
HETATM   10  C   UNL     1     -10.397  13.219  67.942  1.00  0.00    -0.238 C  
HETATM   11  H   UNL     1     -12.416  12.747  67.878  1.00  0.00     0.000 HD 
HETATM   12  O   UNL     1      -9.438  13.746  68.502  1.00  0.00    -0.210 OA 
BRANCH  10  13
HETATM   13  C   UNL     1     -10.209  12.646  66.530  1.00  0.00    -0.243 C  
BRANCH  13  14
HETATM   14  N   UNL     1     -10.606  11.225  66.362  1.00  0.00    -0.258 NA 
HETATM   15  C   UNL     1     -10.059  10.717  65.072  1.00  0.00    -0.321 C  
HETATM   16  C   UNL     1      -8.529  10.445  65.043  1.00  0.00    -0.176 C  
HETATM   17  N   UNL     1      -8.012   9.634  66.163  1.00  0.00    -0.107 NA 
HETATM   18  C   UNL     1      -8.549  10.148  67.435  1.00  0.00    -0.122 C  
HETATM   19  C   UNL     1     -10.079  10.359  67.443  1.00  0.00    -0.196 C  
BRANCH  17  20
HETATM   20  C   UNL     1      -8.268   8.198  65.997  1.00  0.00    -0.121 C  
BRANCH  20  21
HETATM   21  C   UNL     1      -7.190   7.337  66.673  1.00  0.00    -0.080 C  
BRANCH  21  22
HETATM   22  C   UNL     1      -7.180   7.432  68.208  1.00  0.00    -0.090 C  
HETATM   23  C   UNL     1      -8.473   6.923  68.899  1.00  0.00    -0.125 C  
HETATM   24  C   UNL     1      -8.516   7.230  70.397  1.00  0.00    -0.139 A  
HETATM   25  C   UNL     1      -8.698   5.446  68.585  1.00  0.00    -0.097 A  
HETATM   26  C   UNL     1      -7.785   4.468  69.017  1.00  0.00    -0.070 A  
HETATM   27  C   UNL     1      -9.762   7.432  71.020  1.00  0.00    -0.164 A  
HETATM   28  C   UNL     1      -9.837   7.768  72.374  1.00  0.00    -0.264 A  
HETATM   29  C   UNL     1      -7.924   3.139  68.617  1.00  0.00    -0.064 A  
HETATM   30  C   UNL     1      -8.668   7.892  73.114  1.00  0.00    -0.220 A  
HETATM   31  C   UNL     1      -8.979   2.780  67.790  1.00  0.00    -0.161 A  
HETATM   32  F   UNL     1      -9.094   1.510  67.383  1.00  0.00    -0.120 F  
HETATM   33  C   UNL     1      -9.909   3.722  67.368  1.00  0.00    -0.026 A  
HETATM   34  F   UNL     1      -8.738   8.229  74.409  1.00  0.00    -0.279 F  
HETATM   35  C   UNL     1      -7.429   7.676  72.531  1.00  0.00    -0.092 A  
HETATM   36  C   UNL     1      -7.353   7.341  71.179  1.00  0.00    -0.074 A  
HETATM   37  C   UNL     1      -9.774   5.052  67.768  1.00  0.00    -0.192 A  
ENDBRANCH  21  22
ENDBRANCH  20  21
ENDBRANCH  17  20
ENDBRANCH  13  14
ENDBRANCH  10  13
ENDBRANCH   8   9
TORSDOF 6
ENDMDL
MODEL      114
REMARK 921   NORMALIZED FREE ENERGY PREDICTED BY IDOCK:   -5.14 KCAL/MOL
REMARK 922        TOTAL FREE ENERGY PREDICTED BY IDOCK:   -8.21 KCAL/MOL
REMARK 923 INTER-LIGAND FREE ENERGY PREDICTED BY IDOCK:   -7.79 KCAL/MOL
REMARK 924 INTRA-LIGAND FREE ENERGY PREDICTED BY IDOCK:   -0.42 KCAL/MOL
REMARK 927      BINDING AFFINITY PREDICTED BY RF-SCORE:    0.00 PKD
ROOT
HETATM    1  C   UNL     1     -10.568   7.555  72.613  1.00  0.00    -0.338 C  
HETATM    2  C   UNL     1     -10.536   6.063  72.408  1.00  0.00    -0.254 A  
HETATM    3  C   UNL     1     -11.061   5.269  73.447  1.00  0.00    -0.362 A  
HETATM    4  C   UNL     1     -10.983   3.883  73.402  1.00  0.00    -0.327 A  
HETATM    5  C   UNL     1     -10.351   3.267  72.329  1.00  0.00    -0.106 A  
HETATM    6  C   UNL     1      -9.814   4.028  71.273  1.00  0.00    -0.242 A  
HETATM    7  C   UNL     1      -9.157   3.287  70.138  1.00  0.00    -0.195 C  
HETATM    8  C   UNL     1      -9.955   5.436  71.280  1.00  0.00    -0.193 A  
ENDROOT
BRANCH   8   9
HETATM    9  N   UNL     1      -9.475   6.168  70.157  1.00  0.00    -0.158 N  
HETATM   10  C   UNL     1     -10.267   6.507  69.071  1.00  0.00    -0.177 C  
HETATM   11  H   UNL     1      -8.498   6.459  70.152  1.00  0.00     0.000 HD 
HETATM   12  O   UNL     1     -11.455   6.217  68.949  1.00  0.00    -0.331 OA 
BRANCH  10  13
HETATM   13  C   UNL     1      -9.537   7.160  67.889  1.00  0.00    -0.133 C  
BRANCH  13  14
HETATM   14  N   UNL     1      -9.842   8.597  67.667  1.00  0.00    -0.170 NA 
HETATM   15  C   UNL     1      -9.196   9.404  68.739  1.00  0.00    -0.132 C  
HETATM   16  C   UNL     1      -7.653   9.565  68.632  1.00  0.00    -0.080 C  
HETATM   17  N   UNL     1      -7.155   9.993  67.309  1.00  0.00    -0.084 NA 
HETATM   18  C   UNL     1      -7.792   9.185  66.255  1.00  0.00    -0.103 C  
HETATM   19  C   UNL     1      -9.330   9.088  66.366  1.00  0.00    -0.206 C  
BRANCH  17  20
HETATM   20  C   UNL     1      -7.320  11.434  67.074  1.00  0.00    -0.144 C  
BRANCH  20  21
HETATM   21  C   UNL     1      -8.193  12.098  68.149  1.00  0.00    -0.164 C  
BRANCH  21  22
HETATM   22  C   UNL     1      -7.838  13.569  68.428  1.00  0.00    -0.143 C  
HETATM   23  C   UNL     1      -8.056  14.527  67.227  1.00  0.00    -0.219 C  
HETATM   24  C   UNL     1      -7.494  15.930  67.467  1.00  0.00    -0.194 A  
HETATM   25  C   UNL     1      -9.525  14.535  66.811  1.00  0.00    -0.284 A  
HETATM   26  C   UNL     1     -10.520  15.004  67.685  1.00  0.00    -0.247 A  
HETATM   27  C   UNL     1      -7.033  16.681  66.369  1.00  0.00    -0.065 A  
HETATM   28  C   UNL     1      -6.465  17.943  66.556  1.00  0.00    -0.245 A  
HETATM   29  C   UNL     1     -11.870  14.887  67.353  1.00  0.00    -0.245 A  
HETATM   30  C   UNL     1      -6.363  18.465  67.840  1.00  0.00    -0.192 A  
HETATM   31  C   UNL     1     -12.230  14.309  66.145  1.00  0.00    -0.410 A  
HETATM   32  F   UNL     1     -13.527  14.171  65.841  1.00  0.00    -0.377 F  
HETATM   33  C   UNL     1     -11.265  13.859  65.251  1.00  0.00    -0.313 A  
HETATM   34  F   UNL     1      -5.803  19.669  68.022  1.00  0.00    -0.205 F  
HETATM   35  C   UNL     1      -6.829  17.756  68.936  1.00  0.00    -0.240 A  
HETATM   36  C   UNL     1      -7.397  16.496  68.750  1.00  0.00    -0.208 A  
HETATM   37  C   UNL     1      -9.914  13.976  65.579  1.00  0.00    -0.302 A  
ENDBRANCH  21  22
ENDBRANCH  20  21
ENDBRANCH  17  20
ENDBRANCH  13  14
ENDBRANCH  10  13
ENDBRANCH   8   9
TORSDOF 6
ENDMDL
MODEL      115
REMARK 921   NORMALIZED FREE ENERGY PREDICTED BY IDOCK:   -5.12 KCAL/MOL
REMARK 922        TOTAL FREE ENERGY PREDICTED BY IDOCK:   -8.19 KCAL/MOL
REMARK 923 INTER-LIGAND FREE ENERGY PREDICTED BY IDOCK:   -7.03 KCAL/MOL
REMARK 924 INTRA-LIGAND FREE ENERGY PREDICTED BY IDOCK:   -1.16 KCAL/MOL
REMARK 927      BINDING AFFINITY PREDICTED BY RF-SCORE:    0.00 PKD
ROOT
HETATM    1  C   UNL     1     -11.098   6.404  71.783  1.00  0.00    -0.311 C  
HETATM    2  C   UNL     1     -10.659   5.054  72.287  1.00  0.00    -0.269 A  
HETATM    3  C   UNL     1     -11.417   4.491  73.333  1.00  0.00    -0.322 A  
HETATM    4  C   UNL     1     -11.032   3.301  73.938  1.00  0.00    -0.275 A  
HETATM    5  C   UNL     1      -9.865   2.669  73.528  1.00  0.00    -0.154 A  
HETATM    6  C   UNL     1      -9.082   3.203  72.487  1.00  0.00    -0.128 A  
HETATM    7  C   UNL     1      -7.838   2.453  72.089  1.00  0.00    -0.053 C  
HETATM    8  C   UNL     1      -9.508   4.376  71.819  1.00  0.00    -0.147 A  
ENDROOT
BRANCH   8   9
HETATM    9  N   UNL     1      -8.737   4.843  70.717  1.00  0.00    -0.119 N  
HETATM   10  C   UNL     1      -8.961   4.448  69.406  1.00  0.00    -0.098 C  
HETATM   11  H   UNL     1      -7.981   5.502  70.900  1.00  0.00     0.000 HD 
HETATM   12  O   UNL     1      -9.834   3.660  69.048  1.00  0.00    -0.069 OA 
BRANCH  10  13
HETATM   13  C   UNL     1      -7.933   4.935  68.376  1.00  0.00    -0.085 C  
BRANCH  13  14
HETATM   14  N   UNL     1      -7.697   6.402  68.355  1.00  0.00    -0.103 NA 
HETATM   15  C   UNL     1      -6.750   6.727  67.252  1.00  0.00    -0.067 C  
HETATM   16  C   UNL     1      -7.333   6.652  65.812  1.00  0.00    -0.075 C  
HETATM   17  N   UNL     1      -8.607   7.371  65.611  1.00  0.00    -0.139 NA 
HETATM   18  C   UNL     1      -9.541   7.038  66.701  1.00  0.00    -0.167 C  
HETATM   19  C   UNL     1      -8.941   7.171  68.118  1.00  0.00    -0.128 C  
BRANCH  17  20
HETATM   20  C   UNL     1      -8.429   8.822  65.462  1.00  0.00    -0.165 C  
BRANCH  20  21
HETATM   21  C   UNL     1      -9.770   9.570  65.455  1.00  0.00    -0.314 C  
BRANCH  21  22
HETATM   22  C   UNL     1      -9.644  11.090  65.652  1.00  0.00    -0.265 C  
HETATM   23  C   UNL     1     -10.429  11.655  66.866  1.00  0.00    -0.262 C  
HETATM   24  C   UNL     1     -10.458  13.184  66.905  1.00  0.00    -0.256 A  
HETATM   25  C   UNL     1      -9.922  11.033  68.164  1.00  0.00    -0.190 A  
HETATM   26  C   UNL     1      -8.604  11.249  68.602  1.00  0.00    -0.139 A  
HETATM   27  C   UNL     1     -11.564  13.835  67.483  1.00  0.00    -0.387 A  
HETATM   28  C   UNL     1     -11.650  15.229  67.489  1.00  0.00    -0.223 A  
HETATM   29  C   UNL     1      -8.106  10.574  69.716  1.00  0.00     0.017 A  
HETATM   30  C   UNL     1     -10.626  15.980  66.926  1.00  0.00    -0.300 A  
HETATM   31  C   UNL     1      -8.924   9.688  70.403  1.00  0.00    -0.187 A  
HETATM   32  F   UNL     1      -8.435   9.019  71.455  1.00  0.00    -0.201 F  
HETATM   33  C   UNL     1     -10.239   9.475  70.006  1.00  0.00    -0.281 A  
HETATM   34  F   UNL     1     -10.715  17.317  66.917  1.00  0.00    -0.317 F  
HETATM   35  C   UNL     1      -9.515  15.366  66.370  1.00  0.00    -0.325 A  
HETATM   36  C   UNL     1      -9.428  13.974  66.364  1.00  0.00    -0.278 A  
HETATM   37  C   UNL     1     -10.741  10.150  68.892  1.00  0.00    -0.249 A  
ENDBRANCH  21  22
ENDBRANCH  20  21
ENDBRANCH  17  20
ENDBRANCH  13  14
ENDBRANCH  10  13
ENDBRANCH   8   9
TORSDOF 6
ENDMDL
MODEL      116
REMARK 921   NORMALIZED FREE ENERGY PREDICTED BY IDOCK:   -5.11 KCAL/MOL
REMARK 922        TOTAL FREE ENERGY PREDICTED BY IDOCK:   -8.18 KCAL/MOL
REMARK 923 INTER-LIGAND FREE ENERGY PREDICTED BY IDOCK:   -7.25 KCAL/MOL
REMARK 924 INTRA-LIGAND FREE ENERGY PREDICTED BY IDOCK:   -0.92 KCAL/MOL
REMARK 927      BINDING AFFINITY PREDICTED BY RF-SCORE:    0.00 PKD
ROOT
HETATM    1  C   UNL     1     -12.316  11.849  63.140  1.00  0.00    -0.354 C  
HETATM    2  C   UNL     1     -11.703  12.615  64.282  1.00  0.00    -0.446 A  
HETATM    3  C   UNL     1     -12.195  13.917  64.508  1.00  0.00    -0.451 A  
HETATM    4  C   UNL     1     -11.623  14.743  65.468  1.00  0.00    -0.301 A  
HETATM    5  C   UNL     1     -10.530  14.293  66.197  1.00  0.00    -0.294 A  
HETATM    6  C   UNL     1     -10.011  13.000  65.997  1.00  0.00    -0.277 A  
HETATM    7  C   UNL     1      -8.833  12.580  66.837  1.00  0.00    -0.203 C  
HETATM    8  C   UNL     1     -10.634  12.129  65.073  1.00  0.00    -0.291 A  
ENDROOT
BRANCH   8   9
HETATM    9  N   UNL     1     -10.137  10.800  64.955  1.00  0.00    -0.292 N  
HETATM   10  C   UNL     1      -9.191  10.419  64.016  1.00  0.00    -0.263 C  
HETATM   11  H   UNL     1     -10.494  10.091  65.596  1.00  0.00     0.000 HD 
HETATM   12  O   UNL     1      -8.682  11.169  63.185  1.00  0.00    -0.135 OA 
BRANCH  10  13
HETATM   13  C   UNL     1      -8.893   8.915  63.939  1.00  0.00     0.078 C  
BRANCH  13  14
HETATM   14  N   UNL     1      -7.556   8.504  64.439  1.00  0.00    -0.110 NA 
HETATM   15  C   UNL     1      -7.303   9.162  65.751  1.00  0.00    -0.090 C  
HETATM   16  C   UNL     1      -8.093   8.589  66.962  1.00  0.00    -0.103 C  
HETATM   17  N   UNL     1      -8.035   7.121  67.114  1.00  0.00    -0.109 NA 
HETATM   18  C   UNL     1      -8.295   6.478  65.814  1.00  0.00    -0.143 C  
HETATM   19  C   UNL     1      -7.456   7.040  64.645  1.00  0.00    -0.098 C  
BRANCH  17  20
HETATM   20  C   UNL     1      -6.778   6.657  67.717  1.00  0.00    -0.071 C  
BRANCH  20  21
HETATM   21  C   UNL     1      -6.983   6.135  69.147  1.00  0.00    -0.068 C  
BRANCH  21  22
HETATM   22  C   UNL     1      -7.993   6.946  69.975  1.00  0.00    -0.116 C  
HETATM   23  C   UNL     1      -9.327   6.211  70.273  1.00  0.00    -0.172 C  
HETATM   24  C   UNL     1     -10.385   7.117  70.906  1.00  0.00    -0.214 A  
HETATM   25  C   UNL     1      -9.066   4.942  71.081  1.00  0.00    -0.180 A  
HETATM   26  C   UNL     1      -8.525   5.009  72.377  1.00  0.00    -0.121 A  
HETATM   27  C   UNL     1     -11.747   6.853  70.666  1.00  0.00    -0.417 A  
HETATM   28  C   UNL     1     -12.739   7.690  71.183  1.00  0.00    -0.240 A  
HETATM   29  C   UNL     1      -8.166   3.846  73.058  1.00  0.00    -0.088 A  
HETATM   30  C   UNL     1     -12.375   8.789  71.951  1.00  0.00    -0.363 A  
HETATM   31  C   UNL     1      -8.353   2.612  72.452  1.00  0.00    -0.062 A  
HETATM   32  F   UNL     1      -7.981   1.499  73.095  1.00  0.00    -0.037 F  
HETATM   33  C   UNL     1      -8.909   2.516  71.181  1.00  0.00    -0.130 A  
HETATM   34  F   UNL     1     -13.325   9.601  72.434  1.00  0.00    -0.459 F  
HETATM   35  C   UNL     1     -11.043   9.059  72.222  1.00  0.00    -0.134 A  
HETATM   36  C   UNL     1     -10.052   8.224  71.706  1.00  0.00    -0.290 A  
HETATM   37  C   UNL     1      -9.270   3.678  70.497  1.00  0.00    -0.210 A  
ENDBRANCH  21  22
ENDBRANCH  20  21
ENDBRANCH  17  20
ENDBRANCH  13  14
ENDBRANCH  10  13
ENDBRANCH   8   9
TORSDOF 6
ENDMDL
MODEL      117
REMARK 921   NORMALIZED FREE ENERGY PREDICTED BY IDOCK:   -5.11 KCAL/MOL
REMARK 922        TOTAL FREE ENERGY PREDICTED BY IDOCK:   -8.18 KCAL/MOL
REMARK 923 INTER-LIGAND FREE ENERGY PREDICTED BY IDOCK:   -7.49 KCAL/MOL
REMARK 924 INTRA-LIGAND FREE ENERGY PREDICTED BY IDOCK:   -0.68 KCAL/MOL
REMARK 927      BINDING AFFINITY PREDICTED BY RF-SCORE:    0.00 PKD
ROOT
HETATM    1  C   UNL     1      -8.174   4.939  67.923  1.00  0.00    -0.100 C  
HETATM    2  C   UNL     1      -7.245   3.867  68.430  1.00  0.00    -0.055 A  
HETATM    3  C   UNL     1      -6.490   3.175  67.462  1.00  0.00    -0.037 A  
HETATM    4  C   UNL     1      -5.684   2.099  67.814  1.00  0.00    -0.019 A  
HETATM    5  C   UNL     1      -5.642   1.679  69.138  1.00  0.00    -0.014 A  
HETATM    6  C   UNL     1      -6.384   2.346  70.132  1.00  0.00    -0.024 A  
HETATM    7  C   UNL     1      -6.276   1.839  71.546  1.00  0.00    -0.014 C  
HETATM    8  C   UNL     1      -7.149   3.486  69.789  1.00  0.00    -0.041 A  
ENDROOT
BRANCH   8   9
HETATM    9  N   UNL     1      -7.820   4.186  70.831  1.00  0.00    -0.058 N  
HETATM   10  C   UNL     1      -9.082   3.844  71.293  1.00  0.00    -0.115 C  
HETATM   11  H   UNL     1      -7.348   4.982  71.261  1.00  0.00     0.000 HD 
HETATM   12  O   UNL     1      -9.760   2.914  70.862  1.00  0.00    -0.154 OA 
BRANCH  10  13
HETATM   13  C   UNL     1      -9.706   4.808  72.311  1.00  0.00    -0.159 C  
BRANCH  13  14
HETATM   14  N   UNL     1     -11.027   5.371  71.930  1.00  0.00    -0.195 NA 
HETATM   15  C   UNL     1     -11.346   6.516  72.829  1.00  0.00    -0.185 C  
HETATM   16  C   UNL     1     -10.550   7.826  72.569  1.00  0.00    -0.293 C  
HETATM   17  N   UNL     1     -10.525   8.279  71.164  1.00  0.00    -0.205 NA 
HETATM   18  C   UNL     1     -10.201   7.144  70.283  1.00  0.00    -0.198 C  
HETATM   19  C   UNL     1     -11.045   5.877  70.538  1.00  0.00    -0.277 C  
BRANCH  17  20
HETATM   20  C   UNL     1     -11.765   8.955  70.759  1.00  0.00    -0.230 C  
BRANCH  20  21
HETATM   21  C   UNL     1     -11.490  10.289  70.049  1.00  0.00    -0.367 C  
BRANCH  21  22
HETATM   22  C   UNL     1     -12.316  11.470  70.588  1.00  0.00    -0.457 C  
HETATM   23  C   UNL     1     -11.598  12.844  70.528  1.00  0.00     0.221 C  
HETATM   24  C   UNL     1     -12.356  13.951  71.265  1.00  0.00    -0.419 A  
HETATM   25  C   UNL     1     -11.264  13.208  69.084  1.00  0.00    -0.303 A  
HETATM   26  C   UNL     1     -12.282  13.420  68.138  1.00  0.00    -0.122 A  
HETATM   27  C   UNL     1     -11.631  15.008  71.847  1.00  0.00    -0.426 A  
HETATM   28  C   UNL     1     -12.284  16.007  72.573  1.00  0.00    -0.612 A  
HETATM   29  C   UNL     1     -11.972  13.621  66.793  1.00  0.00    -0.458 A  
HETATM   30  C   UNL     1     -13.665  15.961  72.711  1.00  0.00    -0.495 A  
HETATM   31  C   UNL     1     -10.644  13.620  66.389  1.00  0.00    -0.284 A  
HETATM   32  F   UNL     1     -10.350  13.785  65.093  1.00  0.00    -0.310 F  
HETATM   33  C   UNL     1      -9.617  13.438  67.307  1.00  0.00    -0.234 A  
HETATM   34  F   UNL     1     -14.291  16.910  73.420  1.00  0.00     0.110 F  
HETATM   35  C   UNL     1     -14.406  14.944  72.129  1.00  0.00    -0.598 A  
HETATM   36  C   UNL     1     -13.755  13.946  71.404  1.00  0.00    -0.241 A  
HETATM   37  C   UNL     1      -9.924  13.238  68.654  1.00  0.00    -0.127 A  
ENDBRANCH  21  22
ENDBRANCH  20  21
ENDBRANCH  17  20
ENDBRANCH  13  14
ENDBRANCH  10  13
ENDBRANCH   8   9
TORSDOF 6
ENDMDL
MODEL      118
REMARK 921   NORMALIZED FREE ENERGY PREDICTED BY IDOCK:   -5.06 KCAL/MOL
REMARK 922        TOTAL FREE ENERGY PREDICTED BY IDOCK:   -8.11 KCAL/MOL
REMARK 923 INTER-LIGAND FREE ENERGY PREDICTED BY IDOCK:   -7.35 KCAL/MOL
REMARK 924 INTRA-LIGAND FREE ENERGY PREDICTED BY IDOCK:   -0.76 KCAL/MOL
REMARK 927      BINDING AFFINITY PREDICTED BY RF-SCORE:    0.00 PKD
ROOT
HETATM    1  C   UNL     1      -8.491   5.114  69.662  1.00  0.00    -0.093 C  
HETATM    2  C   UNL     1      -9.392   6.044  70.431  1.00  0.00    -0.177 A  
HETATM    3  C   UNL     1     -10.114   5.484  71.503  1.00  0.00    -0.260 A  
HETATM    4  C   UNL     1     -11.050   6.231  72.208  1.00  0.00    -0.311 A  
HETATM    5  C   UNL     1     -11.301   7.545  71.832  1.00  0.00    -0.298 A  
HETATM    6  C   UNL     1     -10.599   8.138  70.765  1.00  0.00    -0.234 A  
HETATM    7  C   UNL     1     -10.918   9.571  70.427  1.00  0.00    -0.333 C  
HETATM    8  C   UNL     1      -9.595   7.404  70.092  1.00  0.00    -0.165 A  
ENDROOT
BRANCH   8   9
HETATM    9  N   UNL     1      -8.847   8.059  69.073  1.00  0.00    -0.144 N  
HETATM   10  C   UNL     1      -9.321   8.258  67.785  1.00  0.00    -0.138 C  
HETATM   11  H   UNL     1      -7.914   8.401  69.303  1.00  0.00     0.000 HD 
HETATM   12  O   UNL     1     -10.422   7.894  67.377  1.00  0.00    -0.255 OA 
BRANCH  10  13
HETATM   13  C   UNL     1      -8.314   8.844  66.785  1.00  0.00    -0.111 C  
BRANCH  13  14
HETATM   14  N   UNL     1      -8.426  10.306  66.550  1.00  0.00    -0.124 NA 
HETATM   15  C   UNL     1      -8.457  11.010  67.862  1.00  0.00    -0.128 C  
HETATM   16  C   UNL     1      -7.104  11.089  68.622  1.00  0.00    -0.080 C  
HETATM   17  N   UNL     1      -5.959  11.566  67.821  1.00  0.00    -0.046 NA 
HETATM   18  C   UNL     1      -5.929  10.859  66.529  1.00  0.00    -0.118 C  
HETATM   19  C   UNL     1      -7.280  10.844  65.780  1.00  0.00     0.014 C  
BRANCH  17  20
HETATM   20  C   UNL     1      -5.947  13.025  67.652  1.00  0.00    -0.144 C  
BRANCH  20  21
HETATM   21  C   UNL     1      -6.818  13.735  68.699  1.00  0.00    -0.102 C  
BRANCH  21  22
HETATM   22  C   UNL     1      -6.824  15.268  68.577  1.00  0.00    -0.112 C  
HETATM   23  C   UNL     1      -7.408  15.812  67.246  1.00  0.00    -0.257 C  
HETATM   24  C   UNL     1      -7.201  17.318  67.069  1.00  0.00    -0.218 A  
HETATM   25  C   UNL     1      -8.866  15.387  67.091  1.00  0.00    -0.234 A  
HETATM   26  C   UNL     1      -9.848  15.833  67.992  1.00  0.00    -0.217 A  
HETATM   27  C   UNL     1      -7.069  17.844  65.770  1.00  0.00    -0.215 A  
HETATM   28  C   UNL     1      -6.825  19.205  65.572  1.00  0.00    -0.280 A  
HETATM   29  C   UNL     1     -11.150  15.338  67.925  1.00  0.00    -0.321 A  
HETATM   30  C   UNL     1      -6.723  20.049  66.671  1.00  0.00    -0.212 A  
HETATM   31  C   UNL     1     -11.479  14.403  66.954  1.00  0.00    -0.366 A  
HETATM   32  F   UNL     1     -12.722  13.908  66.910  1.00  0.00    -0.360 F  
HETATM   33  C   UNL     1     -10.533  13.964  66.035  1.00  0.00    -0.299 A  
HETATM   34  F   UNL     1      -6.474  21.352  66.483  1.00  0.00    -0.342 F  
HETATM   35  C   UNL     1      -6.871  19.561  67.960  1.00  0.00    -0.287 A  
HETATM   36  C   UNL     1      -7.114  18.202  68.158  1.00  0.00    -0.235 A  
HETATM   37  C   UNL     1      -9.229  14.458  66.098  1.00  0.00    -0.152 A  
ENDBRANCH  21  22
ENDBRANCH  20  21
ENDBRANCH  17  20
ENDBRANCH  13  14
ENDBRANCH  10  13
ENDBRANCH   8   9
TORSDOF 6
ENDMDL
MODEL      119
REMARK 921   NORMALIZED FREE ENERGY PREDICTED BY IDOCK:   -5.06 KCAL/MOL
REMARK 922        TOTAL FREE ENERGY PREDICTED BY IDOCK:   -8.11 KCAL/MOL
REMARK 923 INTER-LIGAND FREE ENERGY PREDICTED BY IDOCK:   -7.46 KCAL/MOL
REMARK 924 INTRA-LIGAND FREE ENERGY PREDICTED BY IDOCK:   -0.65 KCAL/MOL
REMARK 927      BINDING AFFINITY PREDICTED BY RF-SCORE:    0.00 PKD
ROOT
HETATM    1  C   UNL     1     -10.903   8.158  71.935  1.00  0.00    -0.333 C  
HETATM    2  C   UNL     1     -10.423   6.737  72.066  1.00  0.00    -0.226 A  
HETATM    3  C   UNL     1     -11.342   5.804  72.587  1.00  0.00    -0.349 A  
HETATM    4  C   UNL     1     -10.964   4.492  72.845  1.00  0.00    -0.262 A  
HETATM    5  C   UNL     1      -9.652   4.098  72.614  1.00  0.00    -0.179 A  
HETATM    6  C   UNL     1      -8.707   5.003  72.094  1.00  0.00    -0.133 A  
HETATM    7  C   UNL     1      -7.308   4.497  71.858  1.00  0.00    -0.073 C  
HETATM    8  C   UNL     1      -9.105   6.320  71.763  1.00  0.00    -0.144 A  
ENDROOT
BRANCH   8   9
HETATM    9  N   UNL     1      -8.146   7.184  71.162  1.00  0.00    -0.103 N  
HETATM   10  C   UNL     1      -7.986   7.312  69.791  1.00  0.00    -0.123 C  
HETATM   11  H   UNL     1      -7.546   7.739  71.772  1.00  0.00     0.000 HD 
HETATM   12  O   UNL     1      -8.639   6.702  68.946  1.00  0.00    -0.125 OA 
BRANCH  10  13
HETATM   13  C   UNL     1      -6.800   8.172  69.333  1.00  0.00    -0.043 C  
BRANCH  13  14
HETATM   14  N   UNL     1      -6.652   9.476  70.028  1.00  0.00    -0.057 NA 
HETATM   15  C   UNL     1      -5.490  10.207  69.450  1.00  0.00    -0.038 C  
HETATM   16  C   UNL     1      -5.708  10.820  68.038  1.00  0.00    -0.042 C  
HETATM   17  N   UNL     1      -6.938  11.623  67.883  1.00  0.00    -0.075 NA 
HETATM   18  C   UNL     1      -8.083  10.890  68.449  1.00  0.00    -0.131 C  
HETATM   19  C   UNL     1      -7.847  10.338  69.872  1.00  0.00    -0.104 C  
BRANCH  17  20
HETATM   20  C   UNL     1      -6.815  12.974  68.448  1.00  0.00    -0.097 C  
BRANCH  20  21
HETATM   21  C   UNL     1      -7.826  13.952  67.831  1.00  0.00    -0.161 C  
BRANCH  21  22
HETATM   22  C   UNL     1      -9.214  13.922  68.493  1.00  0.00    -0.154 C  
HETATM   23  C   UNL     1      -9.555  15.176  69.342  1.00  0.00    -0.195 C  
HETATM   24  C   UNL     1     -10.842  15.019  70.155  1.00  0.00    -0.217 A  
HETATM   25  C   UNL     1      -9.549  16.428  68.468  1.00  0.00    -0.229 A  
HETATM   26  C   UNL     1     -10.471  16.581  67.418  1.00  0.00    -0.310 A  
HETATM   27  C   UNL     1     -10.967  15.703  71.379  1.00  0.00    -0.150 A  
HETATM   28  C   UNL     1     -12.104  15.543  72.174  1.00  0.00    -0.509 A  
HETATM   29  C   UNL     1     -10.377  17.662  66.542  1.00  0.00    -0.337 A  
HETATM   30  C   UNL     1     -13.127  14.706  71.745  1.00  0.00    -0.341 A  
HETATM   31  C   UNL     1      -9.368  18.598  66.715  1.00  0.00    -0.308 A  
HETATM   32  F   UNL     1      -9.261  19.619  65.856  1.00  0.00    -0.372 F  
HETATM   33  C   UNL     1      -8.458  18.484  67.760  1.00  0.00    -0.285 A  
HETATM   34  F   UNL     1     -14.211  14.539  72.514  1.00  0.00    -0.513 F  
HETATM   35  C   UNL     1     -13.040  14.039  70.533  1.00  0.00    -0.101 A  
HETATM   36  C   UNL     1     -11.905  14.198  69.739  1.00  0.00    -0.381 A  
HETATM   37  C   UNL     1      -8.550  17.404  68.639  1.00  0.00    -0.259 A  
ENDBRANCH  21  22
ENDBRANCH  20  21
ENDBRANCH  17  20
ENDBRANCH  13  14
ENDBRANCH  10  13
ENDBRANCH   8   9
TORSDOF 6
ENDMDL
MODEL      120
REMARK 921   NORMALIZED FREE ENERGY PREDICTED BY IDOCK:   -5.05 KCAL/MOL
REMARK 922        TOTAL FREE ENERGY PREDICTED BY IDOCK:   -8.09 KCAL/MOL
REMARK 923 INTER-LIGAND FREE ENERGY PREDICTED BY IDOCK:   -7.79 KCAL/MOL
REMARK 924 INTRA-LIGAND FREE ENERGY PREDICTED BY IDOCK:   -0.30 KCAL/MOL
REMARK 927      BINDING AFFINITY PREDICTED BY RF-SCORE:    0.00 PKD
ROOT
HETATM    1  C   UNL     1     -11.428  13.828  65.357  1.00  0.00    -0.318 C  
HETATM    2  C   UNL     1     -11.209  15.052  66.208  1.00  0.00    -0.309 A  
HETATM    3  C   UNL     1     -10.692  16.190  65.558  1.00  0.00    -0.355 A  
HETATM    4  C   UNL     1     -10.355  17.334  66.272  1.00  0.00    -0.323 A  
HETATM    5  C   UNL     1     -10.502  17.347  67.653  1.00  0.00    -0.368 A  
HETATM    6  C   UNL     1     -11.015  16.228  68.336  1.00  0.00    -0.351 A  
HETATM    7  C   UNL     1     -11.158  16.324  69.833  1.00  0.00    -0.347 C  
HETATM    8  C   UNL     1     -11.426  15.088  67.606  1.00  0.00    -0.333 A  
ENDROOT
BRANCH   8   9
HETATM    9  N   UNL     1     -12.017  14.006  68.318  1.00  0.00    -0.446 N  
HETATM   10  C   UNL     1     -11.302  12.908  68.770  1.00  0.00    -0.290 C  
HETATM   11  H   UNL     1     -13.019  14.041  68.506  1.00  0.00     0.000 HD 
HETATM   12  O   UNL     1     -10.095  12.739  68.609  1.00  0.00    -0.209 OA 
BRANCH  10  13
HETATM   13  C   UNL     1     -12.136  11.772  69.380  1.00  0.00    -0.238 C  
BRANCH  13  14
HETATM   14  N   UNL     1     -11.722  11.335  70.738  1.00  0.00    -0.185 NA 
HETATM   15  C   UNL     1     -12.901  10.760  71.444  1.00  0.00    -0.452 C  
HETATM   16  C   UNL     1     -13.354   9.350  70.971  1.00  0.00    -0.126 C  
HETATM   17  N   UNL     1     -12.279   8.341  70.878  1.00  0.00    -0.167 NA 
HETATM   18  C   UNL     1     -11.121   8.915  70.171  1.00  0.00    -0.201 C  
HETATM   19  C   UNL     1     -10.669  10.294  70.701  1.00  0.00    -0.055 C  
BRANCH  17  20
HETATM   20  C   UNL     1     -11.905   7.781  72.183  1.00  0.00    -0.324 C  
BRANCH  20  21
HETATM   21  C   UNL     1     -11.682   6.262  72.117  1.00  0.00    -0.368 C  
BRANCH  21  22
HETATM   22  C   UNL     1     -11.181   5.759  70.753  1.00  0.00    -0.198 C  
HETATM   23  C   UNL     1      -9.689   6.066  70.456  1.00  0.00    -0.210 C  
HETATM   24  C   UNL     1      -9.284   5.747  69.016  1.00  0.00    -0.133 A  
HETATM   25  C   UNL     1      -8.791   5.395  71.492  1.00  0.00    -0.143 A  
HETATM   26  C   UNL     1      -8.737   3.995  71.603  1.00  0.00    -0.135 A  
HETATM   27  C   UNL     1      -8.260   6.499  68.409  1.00  0.00    -0.114 A  
HETATM   28  C   UNL     1      -7.900   6.272  67.078  1.00  0.00    -0.104 A  
HETATM   29  C   UNL     1      -8.019   3.391  72.635  1.00  0.00    -0.068 A  
HETATM   30  C   UNL     1      -8.555   5.285  66.351  1.00  0.00    -0.114 A  
HETATM   31  C   UNL     1      -7.345   4.182  73.554  1.00  0.00    -0.075 A  
HETATM   32  F   UNL     1      -6.680   3.600  74.561  1.00  0.00    -0.035 F  
HETATM   33  C   UNL     1      -7.361   5.567  73.453  1.00  0.00    -0.095 A  
HETATM   34  F   UNL     1      -8.222   5.078  65.070  1.00  0.00    -0.110 F  
HETATM   35  C   UNL     1      -9.551   4.515  66.931  1.00  0.00    -0.208 A  
HETATM   36  C   UNL     1      -9.910   4.741  68.259  1.00  0.00    -0.181 A  
HETATM   37  C   UNL     1      -8.077   6.175  72.421  1.00  0.00    -0.105 A  
ENDBRANCH  21  22
ENDBRANCH  20  21
ENDBRANCH  17  20
ENDBRANCH  13  14
ENDBRANCH  10  13
ENDBRANCH   8   9
TORSDOF 6
ENDMDL
MODEL      121
REMARK 921   NORMALIZED FREE ENERGY PREDICTED BY IDOCK:   -5.05 KCAL/MOL
REMARK 922        TOTAL FREE ENERGY PREDICTED BY IDOCK:   -8.09 KCAL/MOL
REMARK 923 INTER-LIGAND FREE ENERGY PREDICTED BY IDOCK:   -7.21 KCAL/MOL
REMARK 924 INTRA-LIGAND FREE ENERGY PREDICTED BY IDOCK:   -0.88 KCAL/MOL
REMARK 927      BINDING AFFINITY PREDICTED BY RF-SCORE:    0.00 PKD
ROOT
HETATM    1  C   UNL     1     -10.872  19.835  67.022  1.00  0.00    -0.465 C  
HETATM    2  C   UNL     1      -9.387  19.606  67.127  1.00  0.00    -0.432 A  
HETATM    3  C   UNL     1      -8.584  20.743  67.350  1.00  0.00    -0.218 A  
HETATM    4  C   UNL     1      -7.198  20.653  67.356  1.00  0.00    -0.391 A  
HETATM    5  C   UNL     1      -6.589  19.429  67.110  1.00  0.00    -0.207 A  
HETATM    6  C   UNL     1      -7.359  18.272  66.882  1.00  0.00    -0.229 A  
HETATM    7  C   UNL     1      -6.626  16.979  66.637  1.00  0.00    -0.272 C  
HETATM    8  C   UNL     1      -8.771  18.344  66.946  1.00  0.00    -0.272 A  
ENDROOT
BRANCH   8   9
HETATM    9  N   UNL     1      -9.516  17.141  66.794  1.00  0.00    -0.257 N  
HETATM   10  C   UNL     1     -10.094  16.461  67.855  1.00  0.00    -0.250 C  
HETATM   11  H   UNL     1      -9.632  16.759  65.855  1.00  0.00     0.000 HD 
HETATM   12  O   UNL     1     -10.028  16.809  69.032  1.00  0.00    -0.257 OA 
BRANCH  10  13
HETATM   13  C   UNL     1     -10.725  15.103  67.515  1.00  0.00    -0.284 C  
BRANCH  13  14
HETATM   14  N   UNL     1     -10.278  13.964  68.357  1.00  0.00    -0.239 NA 
HETATM   15  C   UNL     1     -11.392  12.983  68.480  1.00  0.00    -0.288 C  
HETATM   16  C   UNL     1     -11.683  12.124  67.217  1.00  0.00    -0.299 C  
HETATM   17  N   UNL     1     -10.503  11.475  66.612  1.00  0.00    -0.229 NA 
HETATM   18  C   UNL     1      -9.409  12.453  66.485  1.00  0.00    -0.233 C  
HETATM   19  C   UNL     1      -9.116  13.252  67.774  1.00  0.00    -0.202 C  
BRANCH  17  20
HETATM   20  C   UNL     1     -10.081  10.267  67.333  1.00  0.00    -0.202 C  
BRANCH  20  21
HETATM   21  C   UNL     1      -8.939   9.534  66.614  1.00  0.00    -0.168 C  
BRANCH  21  22
HETATM   22  C   UNL     1      -9.254   8.071  66.260  1.00  0.00    -0.237 C  
HETATM   23  C   UNL     1      -8.149   7.055  66.656  1.00  0.00    -0.110 C  
HETATM   24  C   UNL     1      -8.395   5.651  66.099  1.00  0.00    -0.120 A  
HETATM   25  C   UNL     1      -7.930   7.069  68.167  1.00  0.00    -0.119 A  
HETATM   26  C   UNL     1      -8.952   6.679  69.049  1.00  0.00    -0.130 A  
HETATM   27  C   UNL     1      -7.293   4.827  65.805  1.00  0.00    -0.077 A  
HETATM   28  C   UNL     1      -7.477   3.560  65.246  1.00  0.00    -0.077 A  
HETATM   29  C   UNL     1      -8.792   6.819  70.427  1.00  0.00    -0.152 A  
HETATM   30  C   UNL     1      -8.765   3.107  64.988  1.00  0.00    -0.114 A  
HETATM   31  C   UNL     1      -7.609   7.340  70.930  1.00  0.00    -0.084 A  
HETATM   32  F   UNL     1      -7.469   7.501  72.252  1.00  0.00    -0.068 F  
HETATM   33  C   UNL     1      -6.573   7.711  70.082  1.00  0.00    -0.038 A  
HETATM   34  F   UNL     1      -8.942   1.899  64.437  1.00  0.00    -0.093 F  
HETATM   35  C   UNL     1      -9.869   3.889  65.289  1.00  0.00    -0.178 A  
HETATM   36  C   UNL     1      -9.686   5.154  65.847  1.00  0.00    -0.159 A  
HETATM   37  C   UNL     1      -6.728   7.571  68.702  1.00  0.00    -0.054 A  
ENDBRANCH  21  22
ENDBRANCH  20  21
ENDBRANCH  17  20
ENDBRANCH  13  14
ENDBRANCH  10  13
ENDBRANCH   8   9
TORSDOF 6
ENDMDL
MODEL      122
REMARK 921   NORMALIZED FREE ENERGY PREDICTED BY IDOCK:   -4.99 KCAL/MOL
REMARK 922        TOTAL FREE ENERGY PREDICTED BY IDOCK:   -8.00 KCAL/MOL
REMARK 923 INTER-LIGAND FREE ENERGY PREDICTED BY IDOCK:   -6.92 KCAL/MOL
REMARK 924 INTRA-LIGAND FREE ENERGY PREDICTED BY IDOCK:   -1.09 KCAL/MOL
REMARK 927      BINDING AFFINITY PREDICTED BY RF-SCORE:    0.00 PKD
ROOT
HETATM    1  C   UNL     1      -6.958  19.336  65.628  1.00  0.00    -0.300 C  
HETATM    2  C   UNL     1      -8.331  19.095  66.198  1.00  0.00    -0.254 A  
HETATM    3  C   UNL     1      -9.244  20.166  66.122  1.00  0.00    -0.338 A  
HETATM    4  C   UNL     1     -10.499  20.082  66.712  1.00  0.00    -0.520 A  
HETATM    5  C   UNL     1     -10.852  18.936  67.414  1.00  0.00    -0.449 A  
HETATM    6  C   UNL     1      -9.964  17.847  67.510  1.00  0.00    -0.322 A  
HETATM    7  C   UNL     1     -10.424  16.634  68.276  1.00  0.00    -0.321 C  
HETATM    8  C   UNL     1      -8.714  17.900  66.851  1.00  0.00    -0.246 A  
ENDROOT
BRANCH   8   9
HETATM    9  N   UNL     1      -7.876  16.750  66.899  1.00  0.00    -0.193 N  
HETATM   10  C   UNL     1      -6.818  16.612  67.785  1.00  0.00    -0.141 C  
HETATM   11  H   UNL     1      -8.062  15.988  66.248  1.00  0.00     0.000 HD 
HETATM   12  O   UNL     1      -6.483  17.453  68.617  1.00  0.00    -0.176 OA 
BRANCH  10  13
HETATM   13  C   UNL     1      -5.934  15.373  67.584  1.00  0.00    -0.105 C  
BRANCH  13  14
HETATM   14  N   UNL     1      -5.946  14.393  68.700  1.00  0.00    -0.081 NA 
HETATM   15  C   UNL     1      -7.336  14.264  69.220  1.00  0.00    -0.053 C  
HETATM   16  C   UNL     1      -8.326  13.471  68.321  1.00  0.00    -0.165 C  
HETATM   17  N   UNL     1      -7.838  12.158  67.852  1.00  0.00    -0.135 NA 
HETATM   18  C   UNL     1      -6.467  12.296  67.332  1.00  0.00    -0.157 C  
HETATM   19  C   UNL     1      -5.499  13.046  68.274  1.00  0.00    -0.078 C  
BRANCH  17  20
HETATM   20  C   UNL     1      -7.935  11.112  68.879  1.00  0.00    -0.126 C  
BRANCH  20  21
HETATM   21  C   UNL     1      -9.227  10.291  68.745  1.00  0.00    -0.166 C  
BRANCH  21  22
HETATM   22  C   UNL     1      -8.999   8.776  68.611  1.00  0.00    -0.138 C  
HETATM   23  C   UNL     1      -9.471   8.165  67.265  1.00  0.00    -0.196 C  
HETATM   24  C   UNL     1      -9.429   6.635  67.251  1.00  0.00    -0.151 A  
HETATM   25  C   UNL     1      -8.713   8.794  66.099  1.00  0.00    -0.184 A  
HETATM   26  C   UNL     1      -7.323   8.632  65.970  1.00  0.00    -0.085 A  
HETATM   27  C   UNL     1     -10.352   5.931  66.455  1.00  0.00    -0.237 A  
HETATM   28  C   UNL     1     -10.378   4.535  66.458  1.00  0.00    -0.159 A  
HETATM   29  C   UNL     1      -6.617   9.316  64.980  1.00  0.00    -0.077 A  
HETATM   30  C   UNL     1      -9.476   3.834  67.249  1.00  0.00    -0.200 A  
HETATM   31  C   UNL     1      -7.298  10.158  64.111  1.00  0.00    -0.108 A  
HETATM   32  F   UNL     1      -6.614  10.836  63.181  1.00  0.00    -0.104 F  
HETATM   33  C   UNL     1      -8.675  10.317  64.202  1.00  0.00    -0.214 A  
HETATM   34  F   UNL     1      -9.511   2.496  67.266  1.00  0.00    -0.196 F  
HETATM   35  C   UNL     1      -8.542   4.503  68.026  1.00  0.00    -0.109 A  
HETATM   36  C   UNL     1      -8.515   5.897  68.023  1.00  0.00    -0.110 A  
HETATM   37  C   UNL     1      -9.385   9.633  65.190  1.00  0.00    -0.322 A  
ENDBRANCH  21  22
ENDBRANCH  20  21
ENDBRANCH  17  20
ENDBRANCH  13  14
ENDBRANCH  10  13
ENDBRANCH   8   9
TORSDOF 6
ENDMDL
MODEL      123
REMARK 921   NORMALIZED FREE ENERGY PREDICTED BY IDOCK:   -4.98 KCAL/MOL
REMARK 922        TOTAL FREE ENERGY PREDICTED BY IDOCK:   -8.00 KCAL/MOL
REMARK 923 INTER-LIGAND FREE ENERGY PREDICTED BY IDOCK:   -7.53 KCAL/MOL
REMARK 924 INTRA-LIGAND FREE ENERGY PREDICTED BY IDOCK:   -0.47 KCAL/MOL
REMARK 927      BINDING AFFINITY PREDICTED BY RF-SCORE:    0.00 PKD
ROOT
HETATM    1  C   UNL     1      -8.651  11.589  68.946  1.00  0.00     0.024 C  
HETATM    2  C   UNL     1      -8.046  10.783  67.828  1.00  0.00    -0.111 A  
HETATM    3  C   UNL     1      -8.541   9.476  67.649  1.00  0.00    -0.122 A  
HETATM    4  C   UNL     1      -7.976   8.616  66.715  1.00  0.00    -0.094 A  
HETATM    5  C   UNL     1      -6.887   9.039  65.964  1.00  0.00    -0.080 A  
HETATM    6  C   UNL     1      -6.365  10.338  66.116  1.00  0.00    -0.094 A  
HETATM    7  C   UNL     1      -5.192  10.727  65.256  1.00  0.00    -0.144 C  
HETATM    8  C   UNL     1      -6.982  11.241  67.014  1.00  0.00    -0.126 A  
ENDROOT
BRANCH   8   9
HETATM    9  N   UNL     1      -6.481  12.572  67.083  1.00  0.00    -0.305 N  
HETATM   10  C   UNL     1      -5.588  13.003  68.052  1.00  0.00    -0.106 C  
HETATM   11  H   UNL     1      -6.797  13.244  66.384  1.00  0.00     0.000 HD 
HETATM   12  O   UNL     1      -5.132  12.300  68.951  1.00  0.00    -0.055 OA 
BRANCH  10  13
HETATM   13  C   UNL     1      -5.283  14.507  68.058  1.00  0.00    -0.102 C  
BRANCH  13  14
HETATM   14  N   UNL     1      -6.184  15.344  67.226  1.00  0.00    -0.314 NA 
HETATM   15  C   UNL     1      -7.598  15.060  67.601  1.00  0.00    -0.178 C  
HETATM   16  C   UNL     1      -8.071  15.646  68.961  1.00  0.00    -0.222 C  
HETATM   17  N   UNL     1      -7.773  17.078  69.166  1.00  0.00    -0.176 NA 
HETATM   18  C   UNL     1      -6.371  17.350  68.802  1.00  0.00    -0.188 C  
HETATM   19  C   UNL     1      -5.952  16.794  67.423  1.00  0.00    -0.161 C  
BRANCH  17  20
HETATM   20  C   UNL     1      -8.708  17.965  68.461  1.00  0.00    -0.292 C  
BRANCH  20  21
HETATM   21  C   UNL     1     -10.170  17.674  68.830  1.00  0.00    -0.354 C  
BRANCH  21  22
HETATM   22  C   UNL     1     -10.900  16.757  67.835  1.00  0.00    -0.311 C  
HETATM   23  C   UNL     1     -10.968  15.265  68.255  1.00  0.00    -0.276 C  
HETATM   24  C   UNL     1     -11.505  14.353  67.151  1.00  0.00    -0.379 A  
HETATM   25  C   UNL     1     -11.725  15.117  69.573  1.00  0.00    -0.351 A  
HETATM   26  C   UNL     1     -13.084  15.463  69.669  1.00  0.00     0.532 A  
HETATM   27  C   UNL     1     -11.066  13.017  67.091  1.00  0.00    -0.304 A  
HETATM   28  C   UNL     1     -11.493  12.170  66.065  1.00  0.00    -0.427 A  
HETATM   29  C   UNL     1     -13.735  15.452  70.902  1.00  0.00    -0.310 A  
HETATM   30  C   UNL     1     -12.370  12.650  65.101  1.00  0.00    -0.484 A  
HETATM   31  C   UNL     1     -13.034  15.088  72.043  1.00  0.00    -0.343 A  
HETATM   32  F   UNL     1     -13.653  15.106  73.230  1.00  0.00    -0.524 F  
HETATM   33  C   UNL     1     -11.696  14.718  71.973  1.00  0.00    -0.266 A  
HETATM   34  F   UNL     1     -12.768  11.844  64.108  1.00  0.00    -0.470 F  
HETATM   35  C   UNL     1     -12.836  13.955  65.149  1.00  0.00    -0.383 A  
HETATM   36  C   UNL     1     -12.410  14.801  66.172  1.00  0.00     0.037 A  
HETATM   37  C   UNL     1     -11.042  14.726  70.740  1.00  0.00    -0.074 A  
ENDBRANCH  21  22
ENDBRANCH  20  21
ENDBRANCH  17  20
ENDBRANCH  13  14
ENDBRANCH  10  13
ENDBRANCH   8   9
TORSDOF 6
ENDMDL
MODEL      124
REMARK 921   NORMALIZED FREE ENERGY PREDICTED BY IDOCK:   -4.95 KCAL/MOL
REMARK 922        TOTAL FREE ENERGY PREDICTED BY IDOCK:   -7.96 KCAL/MOL
REMARK 923 INTER-LIGAND FREE ENERGY PREDICTED BY IDOCK:   -7.50 KCAL/MOL
REMARK 924 INTRA-LIGAND FREE ENERGY PREDICTED BY IDOCK:   -0.46 KCAL/MOL
REMARK 927      BINDING AFFINITY PREDICTED BY RF-SCORE:    0.00 PKD
ROOT
HETATM    1  C   UNL     1     -10.679  16.750  69.901  1.00  0.00    -0.123 C  
HETATM    2  C   UNL     1     -10.503  17.355  68.533  1.00  0.00    -0.370 A  
HETATM    3  C   UNL     1     -10.256  18.742  68.482  1.00  0.00    -0.397 A  
HETATM    4  C   UNL     1     -10.184  19.414  67.268  1.00  0.00    -0.525 A  
HETATM    5  C   UNL     1     -10.389  18.715  66.085  1.00  0.00    -0.481 A  
HETATM    6  C   UNL     1     -10.639  17.329  66.098  1.00  0.00    -0.204 A  
HETATM    7  C   UNL     1     -10.836  16.640  64.773  1.00  0.00    -0.076 C  
HETATM    8  C   UNL     1     -10.641  16.628  67.327  1.00  0.00    -0.281 A  
ENDROOT
BRANCH   8   9
HETATM    9  N   UNL     1     -10.814  15.215  67.298  1.00  0.00    -0.309 N  
HETATM   10  C   UNL     1      -9.794  14.315  67.565  1.00  0.00    -0.231 C  
HETATM   11  H   UNL     1     -11.737  14.846  67.069  1.00  0.00     0.000 HD 
HETATM   12  O   UNL     1      -8.639  14.625  67.850  1.00  0.00    -0.153 OA 
BRANCH  10  13
HETATM   13  C   UNL     1     -10.131  12.836  67.334  1.00  0.00    -0.219 C  
BRANCH  13  14
HETATM   14  N   UNL     1      -9.381  12.176  66.234  1.00  0.00    -0.231 NA 
HETATM   15  C   UNL     1      -8.080  11.678  66.761  1.00  0.00    -0.150 C  
HETATM   16  C   UNL     1      -8.151  10.416  67.665  1.00  0.00    -0.107 C  
HETATM   17  N   UNL     1      -8.936   9.292  67.116  1.00  0.00    -0.126 NA 
HETATM   18  C   UNL     1     -10.225   9.790  66.605  1.00  0.00    -0.226 C  
HETATM   19  C   UNL     1     -10.110  11.015  65.671  1.00  0.00    -0.256 C  
BRANCH  17  20
HETATM   20  C   UNL     1      -8.202   8.522  66.103  1.00  0.00    -0.115 C  
BRANCH  20  21
HETATM   21  C   UNL     1      -7.441   7.337  66.717  1.00  0.00    -0.092 C  
BRANCH  21  22
HETATM   22  C   UNL     1      -7.872   6.989  68.152  1.00  0.00    -0.118 C  
HETATM   23  C   UNL     1      -9.285   6.359  68.272  1.00  0.00    -0.112 C  
HETATM   24  C   UNL     1      -9.764   6.227  69.719  1.00  0.00    -0.185 A  
HETATM   25  C   UNL     1      -9.348   5.044  67.499  1.00  0.00    -0.138 A  
HETATM   26  C   UNL     1      -8.555   3.946  67.875  1.00  0.00    -0.111 A  
HETATM   27  C   UNL     1     -11.143   6.295  69.993  1.00  0.00    -0.455 A  
HETATM   28  C   UNL     1     -11.614   6.232  71.306  1.00  0.00    -0.336 A  
HETATM   29  C   UNL     1      -8.518   2.794  67.089  1.00  0.00    -0.106 A  
HETATM   30  C   UNL     1     -10.710   6.091  72.352  1.00  0.00    -0.228 A  
HETATM   31  C   UNL     1      -9.278   2.731  65.930  1.00  0.00    -0.080 A  
HETATM   32  F   UNL     1      -9.218   1.636  65.162  1.00  0.00    -0.119 F  
HETATM   33  C   UNL     1     -10.090   3.792  65.548  1.00  0.00    -0.005 A  
HETATM   34  F   UNL     1     -11.159   6.046  73.613  1.00  0.00    -0.251 F  
HETATM   35  C   UNL     1      -9.348   5.998  72.108  1.00  0.00    -0.155 A  
HETATM   36  C   UNL     1      -8.877   6.061  70.797  1.00  0.00    -0.139 A  
HETATM   37  C   UNL     1     -10.130   4.946  66.333  1.00  0.00    -0.286 A  
ENDBRANCH  21  22
ENDBRANCH  20  21
ENDBRANCH  17  20
ENDBRANCH  13  14
ENDBRANCH  10  13
ENDBRANCH   8   9
TORSDOF 6
ENDMDL
MODEL      125
REMARK 921   NORMALIZED FREE ENERGY PREDICTED BY IDOCK:   -4.92 KCAL/MOL
REMARK 922        TOTAL FREE ENERGY PREDICTED BY IDOCK:   -7.91 KCAL/MOL
REMARK 923 INTER-LIGAND FREE ENERGY PREDICTED BY IDOCK:   -7.02 KCAL/MOL
REMARK 924 INTRA-LIGAND FREE ENERGY PREDICTED BY IDOCK:   -0.89 KCAL/MOL
REMARK 927      BINDING AFFINITY PREDICTED BY RF-SCORE:    0.00 PKD
ROOT
HETATM    1  C   UNL     1     -10.205   8.422  68.829  1.00  0.00    -0.223 C  
HETATM    2  C   UNL     1      -9.962   7.393  67.757  1.00  0.00    -0.208 A  
HETATM    3  C   UNL     1     -11.011   6.489  67.497  1.00  0.00    -0.444 A  
HETATM    4  C   UNL     1     -10.849   5.438  66.603  1.00  0.00    -0.220 A  
HETATM    5  C   UNL     1      -9.623   5.256  65.975  1.00  0.00    -0.166 A  
HETATM    6  C   UNL     1      -8.552   6.139  66.211  1.00  0.00    -0.136 A  
HETATM    7  C   UNL     1      -7.259   5.883  65.482  1.00  0.00    -0.074 C  
HETATM    8  C   UNL     1      -8.735   7.252  67.065  1.00  0.00    -0.123 A  
ENDROOT
BRANCH   8   9
HETATM    9  N   UNL     1      -7.659   8.171  67.216  1.00  0.00    -0.096 N  
HETATM   10  C   UNL     1      -6.712   8.079  68.226  1.00  0.00    -0.067 C  
HETATM   11  H   UNL     1      -7.579   8.937  66.548  1.00  0.00     0.000 HD 
HETATM   12  O   UNL     1      -6.693   7.210  69.095  1.00  0.00    -0.046 OA 
BRANCH  10  13
HETATM   13  C   UNL     1      -5.720   9.247  68.320  1.00  0.00    -0.038 C  
BRANCH  13  14
HETATM   14  N   UNL     1      -6.089  10.461  67.549  1.00  0.00    -0.053 NA 
HETATM   15  C   UNL     1      -7.427  10.937  68.000  1.00  0.00    -0.090 C  
HETATM   16  C   UNL     1      -7.467  11.631  69.390  1.00  0.00     0.160 C  
HETATM   17  N   UNL     1      -6.460  12.692  69.594  1.00  0.00    -0.091 NA 
HETATM   18  C   UNL     1      -5.139  12.210  69.154  1.00  0.00    -0.055 C  
HETATM   19  C   UNL     1      -5.128  11.571  67.748  1.00  0.00    -0.049 C  
BRANCH  17  20
HETATM   20  C   UNL     1      -6.826  13.961  68.951  1.00  0.00    -0.109 C  
BRANCH  20  21
HETATM   21  C   UNL     1      -8.304  14.315  69.173  1.00  0.00     0.124 C  
BRANCH  21  22
HETATM   22  C   UNL     1      -9.115  14.473  67.876  1.00  0.00    -0.191 C  
HETATM   23  C   UNL     1     -10.363  13.558  67.775  1.00  0.00    -0.241 C  
HETATM   24  C   UNL     1     -11.018  13.584  66.392  1.00  0.00    -0.297 A  
HETATM   25  C   UNL     1     -11.342  13.864  68.905  1.00  0.00    -0.319 A  
HETATM   26  C   UNL     1     -11.965  15.121  69.001  1.00  0.00    -0.295 A  
HETATM   27  C   UNL     1     -11.692  12.437  65.930  1.00  0.00    -0.476 A  
HETATM   28  C   UNL     1     -12.255  12.406  64.652  1.00  0.00    -0.499 A  
HETATM   29  C   UNL     1     -12.754  15.441  70.105  1.00  0.00    -0.263 A  
HETATM   30  C   UNL     1     -12.157  13.524  63.833  1.00  0.00    -0.438 A  
HETATM   31  C   UNL     1     -12.931  14.505  71.114  1.00  0.00    -0.346 A  
HETATM   32  F   UNL     1     -13.665  14.824  72.188  1.00  0.00    -0.376 F  
HETATM   33  C   UNL     1     -12.347  13.247  71.033  1.00  0.00    -0.379 A  
HETATM   34  F   UNL     1     -12.683  13.490  62.602  1.00  0.00    -0.131 F  
HETATM   35  C   UNL     1     -11.519  14.674  64.271  1.00  0.00    -0.174 A  
HETATM   36  C   UNL     1     -10.956  14.706  65.547  1.00  0.00    -0.344 A  
HETATM   37  C   UNL     1     -11.558  12.922  69.929  1.00  0.00    -0.246 A  
ENDBRANCH  21  22
ENDBRANCH  20  21
ENDBRANCH  17  20
ENDBRANCH  13  14
ENDBRANCH  10  13
ENDBRANCH   8   9
TORSDOF 6
ENDMDL
MODEL      126
REMARK 921   NORMALIZED FREE ENERGY PREDICTED BY IDOCK:   -4.88 KCAL/MOL
REMARK 922        TOTAL FREE ENERGY PREDICTED BY IDOCK:   -7.86 KCAL/MOL
REMARK 923 INTER-LIGAND FREE ENERGY PREDICTED BY IDOCK:   -7.01 KCAL/MOL
REMARK 924 INTRA-LIGAND FREE ENERGY PREDICTED BY IDOCK:   -0.85 KCAL/MOL
REMARK 927      BINDING AFFINITY PREDICTED BY RF-SCORE:    0.00 PKD
ROOT
HETATM    1  C   UNL     1      -7.513   8.240  64.430  1.00  0.00    -0.102 C  
HETATM    2  C   UNL     1      -7.686   6.760  64.649  1.00  0.00    -0.112 A  
HETATM    3  C   UNL     1      -8.210   6.018  63.571  1.00  0.00    -0.029 A  
HETATM    4  C   UNL     1      -8.506   4.667  63.706  1.00  0.00    -0.126 A  
HETATM    5  C   UNL     1      -8.310   4.042  64.932  1.00  0.00    -0.105 A  
HETATM    6  C   UNL     1      -7.790   4.752  66.030  1.00  0.00    -0.095 A  
HETATM    7  C   UNL     1      -7.593   4.001  67.321  1.00  0.00    -0.073 C  
HETATM    8  C   UNL     1      -7.420   6.109  65.877  1.00  0.00    -0.082 A  
ENDROOT
BRANCH   8   9
HETATM    9  N   UNL     1      -6.819   6.774  66.983  1.00  0.00    -0.066 N  
HETATM   10  C   UNL     1      -7.543   7.453  67.951  1.00  0.00    -0.114 C  
HETATM   11  H   UNL     1      -5.803   6.751  67.068  1.00  0.00     0.000 HD 
HETATM   12  O   UNL     1      -8.768   7.561  67.967  1.00  0.00    -0.122 OA 
BRANCH  10  13
HETATM   13  C   UNL     1      -6.715   8.237  68.978  1.00  0.00    -0.048 C  
BRANCH  13  14
HETATM   14  N   UNL     1      -5.871   9.325  68.420  1.00  0.00    -0.041 NA 
HETATM   15  C   UNL     1      -6.663  10.089  67.417  1.00  0.00    -0.073 C  
HETATM   16  C   UNL     1      -7.756  11.034  67.991  1.00  0.00    -0.106 C  
HETATM   17  N   UNL     1      -7.305  11.936  69.070  1.00  0.00    -0.079 NA 
HETATM   18  C   UNL     1      -6.531  11.171  70.063  1.00  0.00    -0.133 C  
HETATM   19  C   UNL     1      -5.422  10.281  69.459  1.00  0.00    -0.038 C  
BRANCH  17  20
HETATM   20  C   UNL     1      -6.563  13.101  68.571  1.00  0.00    -0.088 C  
BRANCH  20  21
HETATM   21  C   UNL     1      -7.323  13.835  67.456  1.00  0.00    -0.176 C  
BRANCH  21  22
HETATM   22  C   UNL     1      -8.022  15.125  67.916  1.00  0.00    -0.143 C  
HETATM   23  C   UNL     1      -8.852  15.841  66.818  1.00  0.00    -0.299 C  
HETATM   24  C   UNL     1      -9.352  17.222  67.245  1.00  0.00    -0.237 A  
HETATM   25  C   UNL     1      -9.969  14.930  66.316  1.00  0.00    -0.300 A  
HETATM   26  C   UNL     1     -11.002  14.514  67.174  1.00  0.00    -0.304 A  
HETATM   27  C   UNL     1      -9.534  18.219  66.268  1.00  0.00    -0.237 A  
HETATM   28  C   UNL     1      -9.938  19.507  66.628  1.00  0.00    -0.509 A  
HETATM   29  C   UNL     1     -11.945  13.578  66.748  1.00  0.00    -0.453 A  
HETATM   30  C   UNL     1     -10.172  19.803  67.965  1.00  0.00    -0.451 A  
HETATM   31  C   UNL     1     -11.866  13.061  65.463  1.00  0.00    -0.395 A  
HETATM   32  F   UNL     1     -12.754  12.141  65.067  1.00  0.00    -0.442 F  
HETATM   33  C   UNL     1     -10.869  13.473  64.587  1.00  0.00    -0.416 A  
HETATM   34  F   UNL     1     -10.544  21.041  68.313  1.00  0.00    -0.089 F  
HETATM   35  C   UNL     1     -10.022  18.834  68.945  1.00  0.00    -0.423 A  
HETATM   36  C   UNL     1      -9.619  17.548  68.587  1.00  0.00    -0.303 A  
HETATM   37  C   UNL     1      -9.925  14.411  65.008  1.00  0.00    -0.201 A  
ENDBRANCH  21  22
ENDBRANCH  20  21
ENDBRANCH  17  20
ENDBRANCH  13  14
ENDBRANCH  10  13
ENDBRANCH   8   9
TORSDOF 6
ENDMDL
MODEL      127
REMARK 921   NORMALIZED FREE ENERGY PREDICTED BY IDOCK:   -4.87 KCAL/MOL
REMARK 922        TOTAL FREE ENERGY PREDICTED BY IDOCK:   -7.85 KCAL/MOL
REMARK 923 INTER-LIGAND FREE ENERGY PREDICTED BY IDOCK:   -7.63 KCAL/MOL
REMARK 924 INTRA-LIGAND FREE ENERGY PREDICTED BY IDOCK:   -0.22 KCAL/MOL
REMARK 927      BINDING AFFINITY PREDICTED BY RF-SCORE:    0.00 PKD
ROOT
HETATM    1  C   UNL     1      -8.687  15.237  66.331  1.00  0.00    -0.265 C  
HETATM    2  C   UNL     1      -9.938  15.099  65.505  1.00  0.00    -0.384 A  
HETATM    3  C   UNL     1     -10.566  16.294  65.102  1.00  0.00    -0.327 A  
HETATM    4  C   UNL     1     -11.781  16.275  64.428  1.00  0.00     0.039 A  
HETATM    5  C   UNL     1     -12.404  15.060  64.172  1.00  0.00    -0.167 A  
HETATM    6  C   UNL     1     -11.806  13.846  64.560  1.00  0.00    -0.449 A  
HETATM    7  C   UNL     1     -12.536  12.569  64.235  1.00  0.00    -0.485 C  
HETATM    8  C   UNL     1     -10.536  13.857  65.183  1.00  0.00    -0.393 A  
ENDROOT
BRANCH   8   9
HETATM    9  N   UNL     1      -9.922  12.609  65.488  1.00  0.00    -0.348 N  
HETATM   10  C   UNL     1      -9.421  11.748  64.523  1.00  0.00     0.029 C  
HETATM   11  H   UNL     1      -9.848  12.333  66.467  1.00  0.00     0.000 HD 
HETATM   12  O   UNL     1      -9.449  11.956  63.312  1.00  0.00    -0.269 OA 
BRANCH  10  13
HETATM   13  C   UNL     1      -8.938  10.382  65.031  1.00  0.00    -0.195 C  
BRANCH  13  14
HETATM   14  N   UNL     1      -8.756  10.277  66.501  1.00  0.00    -0.130 NA 
HETATM   15  C   UNL     1      -9.228   8.940  66.957  1.00  0.00    -0.137 C  
HETATM   16  C   UNL     1      -8.304   7.739  66.610  1.00  0.00    -0.126 C  
HETATM   17  N   UNL     1      -6.881   7.917  66.961  1.00  0.00    -0.071 NA 
HETATM   18  C   UNL     1      -6.419   9.238  66.500  1.00  0.00    -0.067 C  
HETATM   19  C   UNL     1      -7.337  10.412  66.906  1.00  0.00    -0.106 C  
BRANCH  17  20
HETATM   20  C   UNL     1      -6.613   7.708  68.390  1.00  0.00    -0.054 C  
BRANCH  20  21
HETATM   21  C   UNL     1      -7.577   6.688  69.014  1.00  0.00    -0.101 C  
BRANCH  21  22
HETATM   22  C   UNL     1      -8.632   7.307  69.947  1.00  0.00    -0.141 C  
HETATM   23  C   UNL     1      -9.873   6.413  70.208  1.00  0.00    -0.192 C  
HETATM   24  C   UNL     1     -10.992   7.140  70.957  1.00  0.00    -0.277 A  
HETATM   25  C   UNL     1      -9.456   5.106  70.878  1.00  0.00    -0.223 A  
HETATM   26  C   UNL     1      -8.876   5.104  72.158  1.00  0.00    -0.136 A  
HETATM   27  C   UNL     1     -12.328   6.761  70.729  1.00  0.00    -0.289 A  
HETATM   28  C   UNL     1     -13.379   7.437  71.354  1.00  0.00    -0.398 A  
HETATM   29  C   UNL     1      -8.377   3.924  72.710  1.00  0.00    -0.095 A  
HETATM   30  C   UNL     1     -13.098   8.489  72.217  1.00  0.00    -0.334 A  
HETATM   31  C   UNL     1      -8.463   2.741  71.990  1.00  0.00    -0.065 A  
HETATM   32  F   UNL     1      -7.957   1.616  72.510  1.00  0.00    -0.041 F  
HETATM   33  C   UNL     1      -9.053   2.711  70.733  1.00  0.00    -0.189 A  
HETATM   34  F   UNL     1     -14.105   9.149  72.805  1.00  0.00    -0.478 F  
HETATM   35  C   UNL     1     -11.790   8.868  72.476  1.00  0.00    -0.176 A  
HETATM   36  C   UNL     1     -10.741   8.193  71.853  1.00  0.00    -0.329 A  
HETATM   37  C   UNL     1      -9.555   3.889  70.178  1.00  0.00    -0.267 A  
ENDBRANCH  21  22
ENDBRANCH  20  21
ENDBRANCH  17  20
ENDBRANCH  13  14
ENDBRANCH  10  13
ENDBRANCH   8   9
TORSDOF 6
ENDMDL
MODEL      128
REMARK 921   NORMALIZED FREE ENERGY PREDICTED BY IDOCK:   -4.86 KCAL/MOL
REMARK 922        TOTAL FREE ENERGY PREDICTED BY IDOCK:   -7.83 KCAL/MOL
REMARK 923 INTER-LIGAND FREE ENERGY PREDICTED BY IDOCK:   -7.17 KCAL/MOL
REMARK 924 INTRA-LIGAND FREE ENERGY PREDICTED BY IDOCK:   -0.66 KCAL/MOL
REMARK 927      BINDING AFFINITY PREDICTED BY RF-SCORE:    0.00 PKD
ROOT
HETATM    1  C   UNL     1     -11.863  10.539  70.955  1.00  0.00    -0.438 C  
HETATM    2  C   UNL     1     -12.345   9.140  71.231  1.00  0.00    -0.382 A  
HETATM    3  C   UNL     1     -13.639   9.011  71.774  1.00  0.00    -0.468 A  
HETATM    4  C   UNL     1     -14.136   7.773  72.162  1.00  0.00    -0.283 A  
HETATM    5  C   UNL     1     -13.334   6.645  72.041  1.00  0.00    -0.003 A  
HETATM    6  C   UNL     1     -12.036   6.735  71.505  1.00  0.00    -0.396 A  
HETATM    7  C   UNL     1     -11.233   5.466  71.393  1.00  0.00     0.023 C  
HETATM    8  C   UNL     1     -11.553   7.982  71.042  1.00  0.00    -0.283 A  
ENDROOT
BRANCH   8   9
HETATM    9  N   UNL     1     -10.269   8.024  70.428  1.00  0.00    -0.199 N  
HETATM   10  C   UNL     1     -10.077   8.002  69.055  1.00  0.00    -0.201 C  
HETATM   11  H   UNL     1      -9.447   8.072  71.030  1.00  0.00     0.000 HD 
HETATM   12  O   UNL     1     -10.977   7.942  68.220  1.00  0.00     0.017 OA 
BRANCH  10  13
HETATM   13  C   UNL     1      -8.619   7.896  68.586  1.00  0.00    -0.128 C  
BRANCH  13  14
HETATM   14  N   UNL     1      -7.676   8.857  69.213  1.00  0.00    -0.092 NA 
HETATM   15  C   UNL     1      -6.442   8.940  68.382  1.00  0.00    -0.055 C  
HETATM   16  C   UNL     1      -6.575   9.720  67.044  1.00  0.00    -0.071 C  
HETATM   17  N   UNL     1      -7.201  11.054  67.152  1.00  0.00    -0.105 NA 
HETATM   18  C   UNL     1      -8.425  10.961  67.967  1.00  0.00    -0.130 C  
HETATM   19  C   UNL     1      -8.242  10.223  69.311  1.00  0.00    -0.162 C  
BRANCH  17  20
HETATM   20  C   UNL     1      -6.279  12.080  67.656  1.00  0.00    -0.096 C  
BRANCH  20  21
HETATM   21  C   UNL     1      -6.929  12.960  68.735  1.00  0.00    -0.103 C  
BRANCH  21  22
HETATM   22  C   UNL     1      -6.572  14.452  68.629  1.00  0.00    -0.088 C  
HETATM   23  C   UNL     1      -7.462  15.264  67.651  1.00  0.00    -0.197 C  
HETATM   24  C   UNL     1      -6.948  16.684  67.407  1.00  0.00    -0.190 A  
HETATM   25  C   UNL     1      -8.920  15.226  68.102  1.00  0.00    -0.173 A  
HETATM   26  C   UNL     1      -9.313  15.796  69.326  1.00  0.00    -0.261 A  
HETATM   27  C   UNL     1      -7.200  17.302  66.168  1.00  0.00    -0.304 A  
HETATM   28  C   UNL     1      -6.700  18.576  65.890  1.00  0.00    -0.310 A  
HETATM   29  C   UNL     1     -10.618  15.644  69.794  1.00  0.00    -0.308 A  
HETATM   30  C   UNL     1      -5.954  19.244  66.853  1.00  0.00    -0.163 A  
HETATM   31  C   UNL     1     -11.537  14.929  69.039  1.00  0.00    -0.305 A  
HETATM   32  F   UNL     1     -12.781  14.759  69.504  1.00  0.00    -0.243 F  
HETATM   33  C   UNL     1     -11.182  14.376  67.815  1.00  0.00    -0.316 A  
HETATM   34  F   UNL     1      -5.460  20.459  66.582  1.00  0.00    -0.171 F  
HETATM   35  C   UNL     1      -5.709  18.668  68.090  1.00  0.00    -0.191 A  
HETATM   36  C   UNL     1      -6.208  17.396  68.369  1.00  0.00    -0.169 A  
HETATM   37  C   UNL     1      -9.877  14.528  67.342  1.00  0.00    -0.227 A  
ENDBRANCH  21  22
ENDBRANCH  20  21
ENDBRANCH  17  20
ENDBRANCH  13  14
ENDBRANCH  10  13
ENDBRANCH   8   9
TORSDOF 6
ENDMDL
MODEL      129
REMARK 921   NORMALIZED FREE ENERGY PREDICTED BY IDOCK:   -4.85 KCAL/MOL
REMARK 922        TOTAL FREE ENERGY PREDICTED BY IDOCK:   -7.82 KCAL/MOL
REMARK 923 INTER-LIGAND FREE ENERGY PREDICTED BY IDOCK:   -7.90 KCAL/MOL
REMARK 924 INTRA-LIGAND FREE ENERGY PREDICTED BY IDOCK:    0.09 KCAL/MOL
REMARK 927      BINDING AFFINITY PREDICTED BY RF-SCORE:    0.00 PKD
ROOT
HETATM    1  C   UNL     1     -11.203  16.398  69.749  1.00  0.00    -0.252 C  
HETATM    2  C   UNL     1     -11.999  15.276  70.360  1.00  0.00    -0.374 A  
HETATM    3  C   UNL     1     -12.896  15.623  71.391  1.00  0.00    -0.546 A  
HETATM    4  C   UNL     1     -13.598  14.649  72.090  1.00  0.00    -0.514 A  
HETATM    5  C   UNL     1     -13.393  13.308  71.791  1.00  0.00    -0.479 A  
HETATM    6  C   UNL     1     -12.504  12.924  70.768  1.00  0.00    -0.370 A  
HETATM    7  C   UNL     1     -12.346  11.452  70.493  1.00  0.00    -0.439 C  
HETATM    8  C   UNL     1     -11.842  13.914  70.005  1.00  0.00    -0.315 A  
ENDROOT
BRANCH   8   9
HETATM    9  N   UNL     1     -11.015  13.494  68.925  1.00  0.00    -0.256 N  
HETATM   10  C   UNL     1     -11.473  13.349  67.625  1.00  0.00    -0.319 C  
HETATM   11  H   UNL     1     -10.034  13.289  69.118  1.00  0.00     0.000 HD 
HETATM   12  O   UNL     1     -12.627  13.558  67.258  1.00  0.00    -0.088 OA 
BRANCH  10  13
HETATM   13  C   UNL     1     -10.476  12.738  66.629  1.00  0.00    -0.257 C  
BRANCH  13  14
HETATM   14  N   UNL     1      -9.307  12.053  67.237  1.00  0.00    -0.176 NA 
HETATM   15  C   UNL     1      -9.782  10.870  68.008  1.00  0.00    -0.165 C  
HETATM   16  C   UNL     1     -10.242   9.649  67.164  1.00  0.00    -0.243 C  
HETATM   17  N   UNL     1      -9.299   9.219  66.112  1.00  0.00    -0.193 NA 
HETATM   18  C   UNL     1      -8.841  10.393  65.348  1.00  0.00    -0.179 C  
HETATM   19  C   UNL     1      -8.345  11.568  66.220  1.00  0.00    -0.076 C  
BRANCH  17  20
HETATM   20  C   UNL     1      -8.177   8.431  66.637  1.00  0.00    -0.105 C  
BRANCH  20  21
HETATM   21  C   UNL     1      -8.558   6.959  66.856  1.00  0.00    -0.116 C  
BRANCH  21  22
HETATM   22  C   UNL     1      -9.374   6.704  68.134  1.00  0.00    -0.114 C  
HETATM   23  C   UNL     1      -8.524   6.468  69.411  1.00  0.00    -0.127 C  
HETATM   24  C   UNL     1      -9.355   6.006  70.610  1.00  0.00    -0.176 A  
HETATM   25  C   UNL     1      -7.668   7.695  69.714  1.00  0.00    -0.098 A  
HETATM   26  C   UNL     1      -8.260   8.928  70.036  1.00  0.00    -0.122 A  
HETATM   27  C   UNL     1      -8.759   5.176  71.578  1.00  0.00    -0.141 A  
HETATM   28  C   UNL     1      -9.502   4.691  72.657  1.00  0.00    -0.163 A  
HETATM   29  C   UNL     1      -7.480  10.075  70.182  1.00  0.00    -0.176 A  
HETATM   30  C   UNL     1     -10.841   5.042  72.780  1.00  0.00    -0.244 A  
HETATM   31  C   UNL     1      -6.105   9.993  70.017  1.00  0.00    -0.059 A  
HETATM   32  F   UNL     1      -5.361  11.100  70.129  1.00  0.00    -0.050 F  
HETATM   33  C   UNL     1      -5.491   8.781  69.722  1.00  0.00    -0.029 A  
HETATM   34  F   UNL     1     -11.558   4.565  73.806  1.00  0.00    -0.321 F  
HETATM   35  C   UNL     1     -11.446   5.876  71.853  1.00  0.00    -0.287 A  
HETATM   36  C   UNL     1     -10.706   6.361  70.775  1.00  0.00    -0.302 A  
HETATM   37  C   UNL     1      -6.268   7.632  69.577  1.00  0.00    -0.031 A  
ENDBRANCH  21  22
ENDBRANCH  20  21
ENDBRANCH  17  20
ENDBRANCH  13  14
ENDBRANCH  10  13
ENDBRANCH   8   9
TORSDOF 6
ENDMDL
MODEL      130
REMARK 921   NORMALIZED FREE ENERGY PREDICTED BY IDOCK:   -4.83 KCAL/MOL
REMARK 922        TOTAL FREE ENERGY PREDICTED BY IDOCK:   -7.79 KCAL/MOL
REMARK 923 INTER-LIGAND FREE ENERGY PREDICTED BY IDOCK:   -6.70 KCAL/MOL
REMARK 924 INTRA-LIGAND FREE ENERGY PREDICTED BY IDOCK:   -1.09 KCAL/MOL
REMARK 927      BINDING AFFINITY PREDICTED BY RF-SCORE:    0.00 PKD
ROOT
HETATM    1  C   UNL     1      -8.308   2.481  68.625  1.00  0.00    -0.086 C  
HETATM    2  C   UNL     1      -8.532   3.085  67.263  1.00  0.00    -0.103 A  
HETATM    3  C   UNL     1      -8.961   2.209  66.245  1.00  0.00    -0.105 A  
HETATM    4  C   UNL     1      -9.094   2.644  64.933  1.00  0.00    -0.136 A  
HETATM    5  C   UNL     1      -8.773   3.957  64.610  1.00  0.00    -0.116 A  
HETATM    6  C   UNL     1      -8.341   4.859  65.601  1.00  0.00    -0.121 A  
HETATM    7  C   UNL     1      -8.025   6.269  65.175  1.00  0.00    -0.115 C  
HETATM    8  C   UNL     1      -8.273   4.440  66.950  1.00  0.00    -0.102 A  
ENDROOT
BRANCH   8   9
HETATM    9  N   UNL     1      -7.913   5.400  67.938  1.00  0.00    -0.096 N  
HETATM   10  C   UNL     1      -8.838   6.152  68.645  1.00  0.00    -0.114 C  
HETATM   11  H   UNL     1      -6.922   5.542  68.136  1.00  0.00     0.000 HD 
HETATM   12  O   UNL     1     -10.057   6.083  68.503  1.00  0.00    -0.139 OA 
BRANCH  10  13
HETATM   13  C   UNL     1      -8.258   7.244  69.555  1.00  0.00    -0.131 C  
BRANCH  13  14
HETATM   14  N   UNL     1      -8.933   8.565  69.477  1.00  0.00    -0.148 NA 
HETATM   15  C   UNL     1      -8.452   9.424  70.594  1.00  0.00    -0.193 C  
HETATM   16  C   UNL     1      -7.011   9.989  70.445  1.00  0.00    -0.131 C  
HETATM   17  N   UNL     1      -6.720  10.636  69.150  1.00  0.00    -0.065 NA 
HETATM   18  C   UNL     1      -7.190   9.776  68.050  1.00  0.00    -0.080 C  
HETATM   19  C   UNL     1      -8.642   9.274  68.209  1.00  0.00    -0.125 C  
BRANCH  17  20
HETATM   20  C   UNL     1      -7.261  11.998  69.055  1.00  0.00    -0.053 C  
BRANCH  20  21
HETATM   21  C   UNL     1      -7.251  12.524  67.612  1.00  0.00    -0.136 C  
BRANCH  21  22
HETATM   22  C   UNL     1      -7.824  13.943  67.455  1.00  0.00    -0.193 C  
HETATM   23  C   UNL     1      -9.226  14.007  66.792  1.00  0.00    -0.280 C  
HETATM   24  C   UNL     1      -9.667  15.433  66.457  1.00  0.00    -0.292 A  
HETATM   25  C   UNL     1     -10.248  13.247  67.633  1.00  0.00    -0.228 A  
HETATM   26  C   UNL     1     -10.570  13.670  68.934  1.00  0.00    -0.211 A  
HETATM   27  C   UNL     1     -10.520  15.646  65.357  1.00  0.00    -0.435 A  
HETATM   28  C   UNL     1     -10.901  16.939  64.989  1.00  0.00    -0.077 A  
HETATM   29  C   UNL     1     -11.404  12.900  69.746  1.00  0.00    -0.107 A  
HETATM   30  C   UNL     1     -10.440  18.024  65.723  1.00  0.00    -0.198 A  
HETATM   31  C   UNL     1     -11.924  11.709  69.258  1.00  0.00    -0.317 A  
HETATM   32  F   UNL     1     -12.700  10.957  70.049  1.00  0.00    -0.357 F  
HETATM   33  C   UNL     1     -11.641  11.280  67.967  1.00  0.00    -0.343 A  
HETATM   34  F   UNL     1     -10.792  19.265  65.361  1.00  0.00    -0.549 F  
HETATM   35  C   UNL     1      -9.617  17.841  66.824  1.00  0.00    -0.301 A  
HETATM   36  C   UNL     1      -9.236  16.551  67.193  1.00  0.00    -0.226 A  
HETATM   37  C   UNL     1     -10.809  12.049  67.152  1.00  0.00    -0.297 A  
ENDBRANCH  21  22
ENDBRANCH  20  21
ENDBRANCH  17  20
ENDBRANCH  13  14
ENDBRANCH  10  13
ENDBRANCH   8   9
TORSDOF 6
ENDMDL
MODEL      131
REMARK 921   NORMALIZED FREE ENERGY PREDICTED BY IDOCK:   -4.83 KCAL/MOL
REMARK 922        TOTAL FREE ENERGY PREDICTED BY IDOCK:   -7.79 KCAL/MOL
REMARK 923 INTER-LIGAND FREE ENERGY PREDICTED BY IDOCK:   -7.08 KCAL/MOL
REMARK 924 INTRA-LIGAND FREE ENERGY PREDICTED BY IDOCK:   -0.71 KCAL/MOL
REMARK 927      BINDING AFFINITY PREDICTED BY RF-SCORE:    0.00 PKD
ROOT
HETATM    1  C   UNL     1     -11.974  12.343  69.225  1.00  0.00    -0.308 C  
HETATM    2  C   UNL     1     -11.525  13.780  69.237  1.00  0.00    -0.344 A  
HETATM    3  C   UNL     1     -11.535  14.437  70.485  1.00  0.00    -0.202 A  
HETATM    4  C   UNL     1     -11.240  15.791  70.586  1.00  0.00    -0.395 A  
HETATM    5  C   UNL     1     -10.960  16.519  69.437  1.00  0.00    -0.288 A  
HETATM    6  C   UNL     1     -10.942  15.897  68.174  1.00  0.00    -0.335 A  
HETATM    7  C   UNL     1     -10.616  16.751  66.977  1.00  0.00    -0.234 C  
HETATM    8  C   UNL     1     -11.170  14.504  68.074  1.00  0.00    -0.292 A  
ENDROOT
BRANCH   8   9
HETATM    9  N   UNL     1     -11.063  13.892  66.793  1.00  0.00    -0.299 N  
HETATM   10  C   UNL     1      -9.872  13.404  66.277  1.00  0.00    -0.290 C  
HETATM   11  H   UNL     1     -11.906  13.809  66.225  1.00  0.00     0.000 HD 
HETATM   12  O   UNL     1      -8.787  13.444  66.853  1.00  0.00    -0.220 OA 
BRANCH  10  13
HETATM   13  C   UNL     1      -9.922  12.922  64.821  1.00  0.00    -0.129 C  
BRANCH  13  14
HETATM   14  N   UNL     1     -10.304  11.499  64.634  1.00  0.00    -0.277 NA 
HETATM   15  C   UNL     1      -9.896  11.060  63.270  1.00  0.00    -0.368 C  
HETATM   16  C   UNL     1      -8.373  10.830  63.059  1.00  0.00    -0.081 C  
HETATM   17  N   UNL     1      -7.716   9.986  64.078  1.00  0.00    -0.141 NA 
HETATM   18  C   UNL     1      -8.118  10.432  65.423  1.00  0.00    -0.152 C  
HETATM   19  C   UNL     1      -9.642  10.602  65.610  1.00  0.00    -0.218 C  
BRANCH  17  20
HETATM   20  C   UNL     1      -7.959   8.552  63.877  1.00  0.00    -0.160 C  
BRANCH  20  21
HETATM   21  C   UNL     1      -6.960   7.682  64.655  1.00  0.00    -0.052 C  
BRANCH  21  22
HETATM   22  C   UNL     1      -7.414   7.326  66.080  1.00  0.00    -0.083 C  
HETATM   23  C   UNL     1      -8.668   6.414  66.154  1.00  0.00    -0.151 C  
HETATM   24  C   UNL     1      -9.216   6.258  67.574  1.00  0.00    -0.108 A  
HETATM   25  C   UNL     1      -8.395   5.078  65.468  1.00  0.00    -0.126 A  
HETATM   26  C   UNL     1      -7.420   4.196  65.965  1.00  0.00    -0.084 A  
HETATM   27  C   UNL     1     -10.595   6.043  67.756  1.00  0.00    -0.337 A  
HETATM   28  C   UNL     1     -11.139   5.949  69.040  1.00  0.00    -0.295 A  
HETATM   29  C   UNL     1      -7.083   3.040  65.262  1.00  0.00    -0.061 A  
HETATM   30  C   UNL     1     -10.307   6.059  70.146  1.00  0.00    -0.224 A  
HETATM   31  C   UNL     1      -7.724   2.755  64.065  1.00  0.00    -0.076 A  
HETATM   32  F   UNL     1      -7.378   1.660  63.376  1.00  0.00    -0.041 F  
HETATM   33  C   UNL     1      -8.710   3.597  63.563  1.00  0.00    -0.096 A  
HETATM   34  F   UNL     1     -10.830   5.986  71.377  1.00  0.00    -0.275 F  
HETATM   35  C   UNL     1      -8.942   6.248  69.994  1.00  0.00    -0.149 A  
HETATM   36  C   UNL     1      -8.398   6.342  68.714  1.00  0.00    -0.120 A  
HETATM   37  C   UNL     1      -9.051   4.754  64.265  1.00  0.00    -0.070 A  
ENDBRANCH  21  22
ENDBRANCH  20  21
ENDBRANCH  17  20
ENDBRANCH  13  14
ENDBRANCH  10  13
ENDBRANCH   8   9
TORSDOF 6
ENDMDL
MODEL      132
REMARK 921   NORMALIZED FREE ENERGY PREDICTED BY IDOCK:   -4.76 KCAL/MOL
REMARK 922        TOTAL FREE ENERGY PREDICTED BY IDOCK:   -7.70 KCAL/MOL
REMARK 923 INTER-LIGAND FREE ENERGY PREDICTED BY IDOCK:   -7.80 KCAL/MOL
REMARK 924 INTRA-LIGAND FREE ENERGY PREDICTED BY IDOCK:    0.10 KCAL/MOL
REMARK 927      BINDING AFFINITY PREDICTED BY RF-SCORE:    0.00 PKD
ROOT
HETATM    1  C   UNL     1     -11.428  16.000  68.645  1.00  0.00    -0.377 C  
HETATM    2  C   UNL     1     -11.897  14.743  69.329  1.00  0.00    -0.352 A  
HETATM    3  C   UNL     1     -12.469  14.894  70.609  1.00  0.00    -0.411 A  
HETATM    4  C   UNL     1     -12.836  13.788  71.366  1.00  0.00    -0.449 A  
HETATM    5  C   UNL     1     -12.609  12.511  70.869  1.00  0.00    -0.331 A  
HETATM    6  C   UNL     1     -12.040  12.322  69.596  1.00  0.00    -0.277 A  
HETATM    7  C   UNL     1     -11.839  10.907  69.121  1.00  0.00    -0.389 C  
HETATM    8  C   UNL     1     -11.731  13.444  68.791  1.00  0.00    -0.340 A  
ENDROOT
BRANCH   8   9
HETATM    9  N   UNL     1     -11.233  13.217  67.477  1.00  0.00    -0.271 N  
HETATM   10  C   UNL     1     -11.973  13.455  66.329  1.00  0.00    -0.411 C  
HETATM   11  H   UNL     1     -10.284  12.860  67.374  1.00  0.00     0.000 HD 
HETATM   12  O   UNL     1     -13.126  13.880  66.310  1.00  0.00    -0.131 OA 
BRANCH  10  13
HETATM   13  C   UNL     1     -11.327  13.004  65.011  1.00  0.00    -0.296 C  
BRANCH  13  14
HETATM   14  N   UNL     1      -9.889  12.643  65.097  1.00  0.00    -0.156 NA 
HETATM   15  C   UNL     1      -9.694  11.681  66.219  1.00  0.00    -0.218 C  
HETATM   16  C   UNL     1     -10.193  10.231  65.963  1.00  0.00    -0.228 C  
HETATM   17  N   UNL     1      -9.742   9.624  64.694  1.00  0.00    -0.105 NA 
HETATM   18  C   UNL     1      -9.946  10.577  63.590  1.00  0.00    -0.234 C  
HETATM   19  C   UNL     1      -9.394  11.995  63.860  1.00  0.00     0.216 C  
BRANCH  17  20
HETATM   20  C   UNL     1      -8.358   9.136  64.753  1.00  0.00    -0.169 C  
BRANCH  20  21
HETATM   21  C   UNL     1      -8.286   7.648  65.129  1.00  0.00    -0.130 C  
BRANCH  21  22
HETATM   22  C   UNL     1      -8.451   7.370  66.632  1.00  0.00    -0.124 C  
HETATM   23  C   UNL     1      -9.693   6.516  67.002  1.00  0.00    -0.188 C  
HETATM   24  C   UNL     1      -9.945   6.442  68.510  1.00  0.00    -0.155 A  
HETATM   25  C   UNL     1      -9.610   5.142  66.342  1.00  0.00    -0.171 A  
HETATM   26  C   UNL     1      -8.583   4.242  66.674  1.00  0.00    -0.112 A  
HETATM   27  C   UNL     1     -11.264   6.294  68.978  1.00  0.00    -0.415 A  
HETATM   28  C   UNL     1     -11.538   6.276  70.348  1.00  0.00    -0.371 A  
HETATM   29  C   UNL     1      -8.435   3.044  65.975  1.00  0.00    -0.111 A  
HETATM   30  C   UNL     1     -10.493   6.397  71.256  1.00  0.00    -0.216 A  
HETATM   31  C   UNL     1      -9.316   2.737  64.948  1.00  0.00    -0.139 A  
HETATM   32  F   UNL     1      -9.154   1.601  64.259  1.00  0.00    -0.093 F  
HETATM   33  C   UNL     1     -10.355   3.599  64.615  1.00  0.00    -0.114 A  
HETATM   34  F   UNL     1     -10.756   6.396  72.570  1.00  0.00    -0.214 F  
HETATM   35  C   UNL     1      -9.183   6.522  70.822  1.00  0.00    -0.156 A  
HETATM   36  C   UNL     1      -8.908   6.539  69.455  1.00  0.00    -0.138 A  
HETATM   37  C   UNL     1     -10.507   4.797  65.314  1.00  0.00    -0.031 A  
ENDBRANCH  21  22
ENDBRANCH  20  21
ENDBRANCH  17  20
ENDBRANCH  13  14
ENDBRANCH  10  13
ENDBRANCH   8   9
TORSDOF 6
ENDMDL
MODEL      133
REMARK 921   NORMALIZED FREE ENERGY PREDICTED BY IDOCK:   -4.75 KCAL/MOL
REMARK 922        TOTAL FREE ENERGY PREDICTED BY IDOCK:   -7.69 KCAL/MOL
REMARK 923 INTER-LIGAND FREE ENERGY PREDICTED BY IDOCK:   -7.26 KCAL/MOL
REMARK 924 INTRA-LIGAND FREE ENERGY PREDICTED BY IDOCK:   -0.43 KCAL/MOL
REMARK 927      BINDING AFFINITY PREDICTED BY RF-SCORE:    0.00 PKD
ROOT
HETATM    1  C   UNL     1     -11.068   6.038  67.065  1.00  0.00    -0.263 C  
HETATM    2  C   UNL     1     -10.685   6.821  68.293  1.00  0.00    -0.290 A  
HETATM    3  C   UNL     1     -10.205   6.081  69.392  1.00  0.00    -0.269 A  
HETATM    4  C   UNL     1      -9.926   6.698  70.606  1.00  0.00    -0.201 A  
HETATM    5  C   UNL     1     -10.149   8.061  70.749  1.00  0.00    -0.207 A  
HETATM    6  C   UNL     1     -10.629   8.832  69.673  1.00  0.00    -0.220 A  
HETATM    7  C   UNL     1     -10.833  10.307  69.903  1.00  0.00    -0.355 C  
HETATM    8  C   UNL     1     -10.847   8.222  68.415  1.00  0.00     0.092 A  
ENDROOT
BRANCH   8   9
HETATM    9  N   UNL     1     -11.252   9.045  67.326  1.00  0.00    -0.133 N  
HETATM   10  C   UNL     1     -10.366   9.788  66.560  1.00  0.00    -0.192 C  
HETATM   11  H   UNL     1     -12.245   9.091  67.098  1.00  0.00     0.000 HD 
HETATM   12  O   UNL     1      -9.150   9.826  66.729  1.00  0.00    -0.143 OA 
BRANCH  10  13
HETATM   13  C   UNL     1     -11.003  10.734  65.532  1.00  0.00     0.113 C  
BRANCH  13  14
HETATM   14  N   UNL     1     -11.762  11.877  66.101  1.00  0.00    -0.496 NA 
HETATM   15  C   UNL     1     -10.846  12.702  66.937  1.00  0.00    -0.254 C  
HETATM   16  C   UNL     1      -9.824  13.579  66.161  1.00  0.00    -0.283 C  
HETATM   17  N   UNL     1     -10.396  14.403  65.077  1.00  0.00    -0.424 NA 
HETATM   18  C   UNL     1     -11.293  13.577  64.249  1.00  0.00    -0.375 C  
HETATM   19  C   UNL     1     -12.327  12.758  65.052  1.00  0.00    -0.499 C  
BRANCH  17  20
HETATM   20  C   UNL     1     -11.061  15.616  65.569  1.00  0.00    -0.226 C  
BRANCH  20  21
HETATM   21  C   UNL     1     -10.056  16.654  66.090  1.00  0.00    -0.361 C  
BRANCH  21  22
HETATM   22  C   UNL     1      -9.299  16.218  67.356  1.00  0.00    -0.224 C  
HETATM   23  C   UNL     1      -7.756  16.162  67.203  1.00  0.00    -0.229 C  
HETATM   24  C   UNL     1      -7.056  15.521  68.403  1.00  0.00    -0.111 A  
HETATM   25  C   UNL     1      -7.205  17.542  66.857  1.00  0.00    -0.232 A  
HETATM   26  C   UNL     1      -7.325  18.615  67.757  1.00  0.00    -0.242 A  
HETATM   27  C   UNL     1      -5.845  14.831  68.203  1.00  0.00    -0.142 A  
HETATM   28  C   UNL     1      -5.205  14.189  69.265  1.00  0.00    -0.081 A  
HETATM   29  C   UNL     1      -6.939  19.902  67.384  1.00  0.00    -0.262 A  
HETATM   30  C   UNL     1      -5.767  14.240  70.535  1.00  0.00    -0.157 A  
HETATM   31  C   UNL     1      -6.424  20.122  66.115  1.00  0.00    -0.207 A  
HETATM   32  F   UNL     1      -6.082  21.364  65.748  1.00  0.00    -0.288 F  
HETATM   33  C   UNL     1      -6.272  19.075  65.214  1.00  0.00    -0.317 A  
HETATM   34  F   UNL     1      -5.162  13.610  71.551  1.00  0.00    -0.124 F  
HETATM   35  C   UNL     1      -6.947  14.930  70.764  1.00  0.00     0.617 A  
HETATM   36  C   UNL     1      -7.586  15.573  69.704  1.00  0.00    -0.144 A  
HETATM   37  C   UNL     1      -6.655  17.785  65.584  1.00  0.00    -0.137 A  
ENDBRANCH  21  22
ENDBRANCH  20  21
ENDBRANCH  17  20
ENDBRANCH  13  14
ENDBRANCH  10  13
ENDBRANCH   8   9
TORSDOF 6
ENDMDL
MODEL      134
REMARK 921   NORMALIZED FREE ENERGY PREDICTED BY IDOCK:   -4.74 KCAL/MOL
REMARK 922        TOTAL FREE ENERGY PREDICTED BY IDOCK:   -7.67 KCAL/MOL
REMARK 923 INTER-LIGAND FREE ENERGY PREDICTED BY IDOCK:   -6.64 KCAL/MOL
REMARK 924 INTRA-LIGAND FREE ENERGY PREDICTED BY IDOCK:   -1.03 KCAL/MOL
REMARK 927      BINDING AFFINITY PREDICTED BY RF-SCORE:    0.00 PKD
ROOT
HETATM    1  C   UNL     1     -10.465  19.820  69.763  1.00  0.00     0.480 C  
HETATM    2  C   UNL     1     -10.235  19.688  68.280  1.00  0.00    -0.567 A  
HETATM    3  C   UNL     1      -9.746  20.827  67.611  1.00  0.00    -0.376 A  
HETATM    4  C   UNL     1      -9.600  20.841  66.229  1.00  0.00     0.181 A  
HETATM    5  C   UNL     1      -9.970  19.725  65.490  1.00  0.00    -0.007 A  
HETATM    6  C   UNL     1     -10.463  18.569  66.124  1.00  0.00    -0.447 A  
HETATM    7  C   UNL     1     -10.829  17.394  65.256  1.00  0.00     0.052 C  
HETATM    8  C   UNL     1     -10.545  18.524  67.536  1.00  0.00    -0.423 A  
ENDROOT
BRANCH   8   9
HETATM    9  N   UNL     1     -10.969  17.312  68.150  1.00  0.00    -0.288 N  
HETATM   10  C   UNL     1     -10.095  16.398  68.719  1.00  0.00    -0.247 C  
HETATM   11  H   UNL     1     -11.967  17.104  68.173  1.00  0.00     0.000 HD 
HETATM   12  O   UNL     1      -8.872  16.523  68.757  1.00  0.00    -0.235 OA 
BRANCH  10  13
HETATM   13  C   UNL     1     -10.722  15.079  69.193  1.00  0.00    -0.249 C  
BRANCH  13  14
HETATM   14  N   UNL     1     -11.520  14.350  68.174  1.00  0.00    -0.293 NA 
HETATM   15  C   UNL     1     -10.741  14.277  66.906  1.00  0.00    -0.290 C  
HETATM   16  C   UNL     1      -9.549  13.278  66.898  1.00  0.00    -0.249 C  
HETATM   17  N   UNL     1      -9.865  11.917  67.375  1.00  0.00    -0.182 NA 
HETATM   18  C   UNL     1     -10.627  11.998  68.634  1.00  0.00    -0.229 C  
HETATM   19  C   UNL     1     -11.833  12.962  68.588  1.00  0.00    -0.312 C  
BRANCH  17  20
HETATM   20  C   UNL     1     -10.553  11.101  66.366  1.00  0.00    -0.261 C  
BRANCH  20  21
HETATM   21  C   UNL     1      -9.803   9.793  66.072  1.00  0.00    -0.342 C  
BRANCH  21  22
HETATM   22  C   UNL     1     -10.069   8.673  67.092  1.00  0.00    -0.329 C  
HETATM   23  C   UNL     1      -8.812   7.867  67.514  1.00  0.00    -0.128 C  
HETATM   24  C   UNL     1      -9.143   6.633  68.355  1.00  0.00    -0.124 A  
HETATM   25  C   UNL     1      -7.789   8.786  68.178  1.00  0.00    -0.102 A  
HETATM   26  C   UNL     1      -8.082   9.438  69.388  1.00  0.00    -0.105 A  
HETATM   27  C   UNL     1      -8.298   5.509  68.285  1.00  0.00    -0.098 A  
HETATM   28  C   UNL     1      -8.598   4.345  68.997  1.00  0.00    -0.105 A  
HETATM   29  C   UNL     1      -7.199  10.377  69.921  1.00  0.00    -0.157 A  
HETATM   30  C   UNL     1      -9.738   4.302  69.790  1.00  0.00    -0.220 A  
HETATM   31  C   UNL     1      -6.016  10.661  69.253  1.00  0.00    -0.042 A  
HETATM   32  F   UNL     1      -5.183  11.583  69.752  1.00  0.00    -0.054 F  
HETATM   33  C   UNL     1      -5.691  10.012  68.068  1.00  0.00    -0.038 A  
HETATM   34  F   UNL     1     -10.035   3.181  70.461  1.00  0.00    -0.222 F  
HETATM   35  C   UNL     1     -10.575   5.402  69.894  1.00  0.00    -0.351 A  
HETATM   36  C   UNL     1     -10.276   6.564  69.184  1.00  0.00    -0.208 A  
HETATM   37  C   UNL     1      -6.572   9.071  67.532  1.00  0.00    -0.065 A  
ENDBRANCH  21  22
ENDBRANCH  20  21
ENDBRANCH  17  20
ENDBRANCH  13  14
ENDBRANCH  10  13
ENDBRANCH   8   9
TORSDOF 6
ENDMDL
MODEL      135
REMARK 921   NORMALIZED FREE ENERGY PREDICTED BY IDOCK:   -4.72 KCAL/MOL
REMARK 922        TOTAL FREE ENERGY PREDICTED BY IDOCK:   -7.65 KCAL/MOL
REMARK 923 INTER-LIGAND FREE ENERGY PREDICTED BY IDOCK:   -6.47 KCAL/MOL
REMARK 924 INTRA-LIGAND FREE ENERGY PREDICTED BY IDOCK:   -1.18 KCAL/MOL
REMARK 927      BINDING AFFINITY PREDICTED BY RF-SCORE:    0.00 PKD
ROOT
HETATM    1  C   UNL     1      -7.734   7.093  71.373  1.00  0.00    -0.093 C  
HETATM    2  C   UNL     1      -8.198   5.826  72.042  1.00  0.00    -0.112 A  
HETATM    3  C   UNL     1      -7.271   4.766  72.104  1.00  0.00    -0.079 A  
HETATM    4  C   UNL     1      -7.635   3.522  72.605  1.00  0.00    -0.059 A  
HETATM    5  C   UNL     1      -8.941   3.308  73.026  1.00  0.00    -0.099 A  
HETATM    6  C   UNL     1      -9.894   4.344  72.979  1.00  0.00    -0.180 A  
HETATM    7  C   UNL     1     -11.286   4.038  73.466  1.00  0.00    -0.325 C  
HETATM    8  C   UNL     1      -9.510   5.632  72.537  1.00  0.00    -0.144 A  
ENDROOT
BRANCH   8   9
HETATM    9  N   UNL     1     -10.476   6.677  72.580  1.00  0.00    -0.199 N  
HETATM   10  C   UNL     1     -11.374   6.929  71.554  1.00  0.00    -0.266 C  
HETATM   11  H   UNL     1     -10.509   7.271  73.408  1.00  0.00     0.000 HD 
HETATM   12  O   UNL     1     -11.439   6.294  70.503  1.00  0.00    -0.357 OA 
BRANCH  10  13
HETATM   13  C   UNL     1     -12.233   8.192  71.713  1.00  0.00    -0.319 C  
BRANCH  13  14
HETATM   14  N   UNL     1     -11.492   9.478  71.655  1.00  0.00    -0.389 NA 
HETATM   15  C   UNL     1     -10.579   9.462  70.478  1.00  0.00    -0.271 C  
HETATM   16  C   UNL     1     -11.259   9.623  69.089  1.00  0.00    -0.019 C  
HETATM   17  N   UNL     1     -12.204  10.752  68.978  1.00  0.00    -0.401 NA 
HETATM   18  C   UNL     1     -13.109  10.756  70.141  1.00  0.00     0.138 C  
HETATM   19  C   UNL     1     -12.395  10.644  71.506  1.00  0.00    -0.310 C  
BRANCH  17  20
HETATM   20  C   UNL     1     -11.533  12.046  68.798  1.00  0.00    -0.300 C  
BRANCH  20  21
HETATM   21  C   UNL     1     -11.021  12.235  67.362  1.00  0.00    -0.298 C  
BRANCH  21  22
HETATM   22  C   UNL     1     -10.109  13.460  67.176  1.00  0.00    -0.240 C  
HETATM   23  C   UNL     1      -8.900  13.523  68.146  1.00  0.00    -0.179 C  
HETATM   24  C   UNL     1      -8.144  14.852  68.079  1.00  0.00    -0.137 A  
HETATM   25  C   UNL     1      -7.995  12.310  67.949  1.00  0.00    -0.152 A  
HETATM   26  C   UNL     1      -7.324  12.099  66.732  1.00  0.00     0.079 A  
HETATM   27  C   UNL     1      -7.491  15.328  69.232  1.00  0.00    -0.200 A  
HETATM   28  C   UNL     1      -6.836  16.562  69.224  1.00  0.00    -0.224 A  
HETATM   29  C   UNL     1      -6.606  10.924  66.510  1.00  0.00    -0.127 A  
HETATM   30  C   UNL     1      -6.822  17.321  68.060  1.00  0.00    -0.175 A  
HETATM   31  C   UNL     1      -6.547   9.960  67.506  1.00  0.00    -0.069 A  
HETATM   32  F   UNL     1      -5.881   8.820  67.281  1.00  0.00    -0.040 F  
HETATM   33  C   UNL     1      -7.181  10.153  68.728  1.00  0.00    -0.081 A  
HETATM   34  F   UNL     1      -6.208  18.512  68.056  1.00  0.00    -0.183 F  
HETATM   35  C   UNL     1      -7.438  16.866  66.905  1.00  0.00    -0.254 A  
HETATM   36  C   UNL     1      -8.091  15.634  66.912  1.00  0.00    -0.290 A  
HETATM   37  C   UNL     1      -7.899  11.328  68.953  1.00  0.00    -0.114 A  
ENDBRANCH  21  22
ENDBRANCH  20  21
ENDBRANCH  17  20
ENDBRANCH  13  14
ENDBRANCH  10  13
ENDBRANCH   8   9
TORSDOF 6
ENDMDL
MODEL      136
REMARK 921   NORMALIZED FREE ENERGY PREDICTED BY IDOCK:   -4.70 KCAL/MOL
REMARK 922        TOTAL FREE ENERGY PREDICTED BY IDOCK:   -7.62 KCAL/MOL
REMARK 923 INTER-LIGAND FREE ENERGY PREDICTED BY IDOCK:   -6.46 KCAL/MOL
REMARK 924 INTRA-LIGAND FREE ENERGY PREDICTED BY IDOCK:   -1.16 KCAL/MOL
REMARK 927      BINDING AFFINITY PREDICTED BY RF-SCORE:    0.00 PKD
ROOT
HETATM    1  C   UNL     1     -10.597   5.835  70.503  1.00  0.00    -0.359 C  
HETATM    2  C   UNL     1     -10.109   5.207  71.781  1.00  0.00    -0.260 A  
HETATM    3  C   UNL     1     -11.055   5.060  72.816  1.00  0.00    -0.310 A  
HETATM    4  C   UNL     1     -10.681   4.590  74.069  1.00  0.00    -0.340 A  
HETATM    5  C   UNL     1      -9.349   4.288  74.318  1.00  0.00    -0.119 A  
HETATM    6  C   UNL     1      -8.376   4.423  73.309  1.00  0.00    -0.095 A  
HETATM    7  C   UNL     1      -6.955   4.062  73.652  1.00  0.00    -0.059 C  
HETATM    8  C   UNL     1      -8.764   4.833  72.011  1.00  0.00    -0.124 A  
ENDROOT
BRANCH   8   9
HETATM    9  N   UNL     1      -7.770   4.879  70.993  1.00  0.00    -0.080 N  
HETATM   10  C   UNL     1      -6.857   5.915  70.864  1.00  0.00    -0.062 C  
HETATM   11  H   UNL     1      -7.728   4.112  70.323  1.00  0.00     0.000 HD 
HETATM   12  O   UNL     1      -6.800   6.899  71.599  1.00  0.00    -0.063 OA 
BRANCH  10  13
HETATM   13  C   UNL     1      -5.965   5.868  69.615  1.00  0.00    -0.025 C  
BRANCH  13  14
HETATM   14  N   UNL     1      -5.828   7.152  68.881  1.00  0.00    -0.019 NA 
HETATM   15  C   UNL     1      -5.401   6.870  67.482  1.00  0.00    -0.012 C  
HETATM   16  C   UNL     1      -6.494   6.284  66.544  1.00  0.00    -0.047 C  
HETATM   17  N   UNL     1      -7.779   7.011  66.543  1.00  0.00    -0.102 NA 
HETATM   18  C   UNL     1      -8.198   7.278  67.929  1.00  0.00    -0.119 C  
HETATM   19  C   UNL     1      -7.102   7.906  68.818  1.00  0.00    -0.072 C  
BRANCH  17  20
HETATM   20  C   UNL     1      -7.744   8.235  65.732  1.00  0.00    -0.091 C  
BRANCH  20  21
HETATM   21  C   UNL     1      -9.138   8.631  65.223  1.00  0.00    -0.100 C  
BRANCH  21  22
HETATM   22  C   UNL     1      -9.344  10.148  65.070  1.00  0.00    -0.299 C  
HETATM   23  C   UNL     1     -10.553  10.721  65.855  1.00  0.00    -0.216 C  
HETATM   24  C   UNL     1     -10.857  12.181  65.510  1.00  0.00    -0.324 A  
HETATM   25  C   UNL     1     -10.375  10.485  67.353  1.00  0.00    -0.269 A  
HETATM   26  C   UNL     1      -9.316  11.084  68.058  1.00  0.00    -0.163 A  
HETATM   27  C   UNL     1     -12.183  12.644  65.598  1.00  0.00    -0.474 A  
HETATM   28  C   UNL     1     -12.507  13.955  65.240  1.00  0.00    -0.504 A  
HETATM   29  C   UNL     1      -9.080  10.762  69.394  1.00  0.00     0.018 A  
HETATM   30  C   UNL     1     -11.505  14.812  64.802  1.00  0.00    -0.410 A  
HETATM   31  C   UNL     1      -9.905   9.848  70.034  1.00  0.00    -0.243 A  
HETATM   32  F   UNL     1      -9.659   9.518  71.308  1.00  0.00    -0.323 F  
HETATM   33  C   UNL     1     -10.974   9.260  69.368  1.00  0.00    -0.138 A  
HETATM   34  F   UNL     1     -11.816  16.065  64.443  1.00  0.00    -0.405 F  
HETATM   35  C   UNL     1     -10.187  14.388  64.728  1.00  0.00    -0.259 A  
HETATM   36  C   UNL     1      -9.863  13.080  65.086  1.00  0.00    -0.078 A  
HETATM   37  C   UNL     1     -11.214   9.581  68.031  1.00  0.00     0.082 A  
ENDBRANCH  21  22
ENDBRANCH  20  21
ENDBRANCH  17  20
ENDBRANCH  13  14
ENDBRANCH  10  13
ENDBRANCH   8   9
TORSDOF 6
ENDMDL
MODEL      137
REMARK 921   NORMALIZED FREE ENERGY PREDICTED BY IDOCK:   -4.70 KCAL/MOL
REMARK 922        TOTAL FREE ENERGY PREDICTED BY IDOCK:   -7.62 KCAL/MOL
REMARK 923 INTER-LIGAND FREE ENERGY PREDICTED BY IDOCK:   -6.87 KCAL/MOL
REMARK 924 INTRA-LIGAND FREE ENERGY PREDICTED BY IDOCK:   -0.75 KCAL/MOL
REMARK 927      BINDING AFFINITY PREDICTED BY RF-SCORE:    0.00 PKD
ROOT
HETATM    1  C   UNL     1      -5.628   1.516  66.129  1.00  0.00    -0.013 C  
HETATM    2  C   UNL     1      -6.467   2.206  65.087  1.00  0.00    -0.023 A  
HETATM    3  C   UNL     1      -6.629   1.535  63.858  1.00  0.00    -0.018 A  
HETATM    4  C   UNL     1      -7.296   2.133  62.795  1.00  0.00    -0.041 A  
HETATM    5  C   UNL     1      -7.786   3.425  62.934  1.00  0.00    -0.066 A  
HETATM    6  C   UNL     1      -7.642   4.127  64.146  1.00  0.00    -0.071 A  
HETATM    7  C   UNL     1      -8.212   5.519  64.222  1.00  0.00    -0.124 C  
HETATM    8  C   UNL     1      -7.027   3.496  65.253  1.00  0.00    -0.060 A  
ENDROOT
BRANCH   8   9
HETATM    9  N   UNL     1      -6.972   4.202  66.488  1.00  0.00    -0.058 N  
HETATM   10  C   UNL     1      -7.867   3.996  67.527  1.00  0.00    -0.090 C  
HETATM   11  H   UNL     1      -6.235   4.896  66.616  1.00  0.00     0.000 HD 
HETATM   12  O   UNL     1      -8.800   3.196  67.503  1.00  0.00    -0.111 OA 
BRANCH  10  13
HETATM   13  C   UNL     1      -7.744   4.959  68.716  1.00  0.00    -0.077 C  
BRANCH  13  14
HETATM   14  N   UNL     1      -8.938   5.801  68.981  1.00  0.00    -0.117 NA 
HETATM   15  C   UNL     1      -8.625   6.759  70.078  1.00  0.00    -0.141 C  
HETATM   16  C   UNL     1      -7.693   7.945  69.698  1.00  0.00    -0.103 C  
HETATM   17  N   UNL     1      -8.078   8.682  68.478  1.00  0.00    -0.116 NA 
HETATM   18  C   UNL     1      -8.378   7.728  67.396  1.00  0.00    -0.123 C  
HETATM   19  C   UNL     1      -9.346   6.593  67.797  1.00  0.00    -0.119 C  
BRANCH  17  20
HETATM   20  C   UNL     1      -9.182   9.625  68.703  1.00  0.00    -0.136 C  
BRANCH  20  21
HETATM   21  C   UNL     1      -8.677  11.027  69.076  1.00  0.00    -0.072 C  
BRANCH  21  22
HETATM   22  C   UNL     1      -9.206  12.149  68.168  1.00  0.00    -0.197 C  
HETATM   23  C   UNL     1     -10.690  11.995  67.742  1.00  0.00    -0.243 C  
HETATM   24  C   UNL     1     -11.117  13.002  66.673  1.00  0.00    -0.318 A  
HETATM   25  C   UNL     1     -11.599  12.003  68.968  1.00  0.00    -0.370 A  
HETATM   26  C   UNL     1     -11.695  13.139  69.789  1.00  0.00    -0.350 A  
HETATM   27  C   UNL     1     -12.122  12.643  65.755  1.00  0.00    -0.484 A  
HETATM   28  C   UNL     1     -12.500  13.517  64.732  1.00  0.00    -0.402 A  
HETATM   29  C   UNL     1     -12.422  13.098  70.978  1.00  0.00    -0.406 A  
HETATM   30  C   UNL     1     -11.883  14.757  64.628  1.00  0.00    -0.436 A  
HETATM   31  C   UNL     1     -13.064  11.924  71.348  1.00  0.00    -0.204 A  
HETATM   32  F   UNL     1     -13.738  11.878  72.504  1.00  0.00    -0.471 F  
HETATM   33  C   UNL     1     -13.006  10.793  70.542  1.00  0.00    -0.258 A  
HETATM   34  F   UNL     1     -12.233  15.589  63.638  1.00  0.00    -0.151 F  
HETATM   35  C   UNL     1     -10.906  15.145  65.532  1.00  0.00    -0.373 A  
HETATM   36  C   UNL     1     -10.528  14.273  66.553  1.00  0.00    -0.287 A  
HETATM   37  C   UNL     1     -12.280  10.832  69.351  1.00  0.00    -0.242 A  
ENDBRANCH  21  22
ENDBRANCH  20  21
ENDBRANCH  17  20
ENDBRANCH  13  14
ENDBRANCH  10  13
ENDBRANCH   8   9
TORSDOF 6
ENDMDL
MODEL      138
REMARK 921   NORMALIZED FREE ENERGY PREDICTED BY IDOCK:   -4.67 KCAL/MOL
REMARK 922        TOTAL FREE ENERGY PREDICTED BY IDOCK:   -7.58 KCAL/MOL
REMARK 923 INTER-LIGAND FREE ENERGY PREDICTED BY IDOCK:   -7.30 KCAL/MOL
REMARK 924 INTRA-LIGAND FREE ENERGY PREDICTED BY IDOCK:   -0.28 KCAL/MOL
REMARK 927      BINDING AFFINITY PREDICTED BY RF-SCORE:    0.00 PKD
ROOT
HETATM    1  C   UNL     1      -6.722   6.030  70.491  1.00  0.00    -0.053 C  
HETATM    2  C   UNL     1      -7.184   4.848  71.303  1.00  0.00    -0.060 A  
HETATM    3  C   UNL     1      -6.309   3.745  71.371  1.00  0.00    -0.015 A  
HETATM    4  C   UNL     1      -6.685   2.568  72.006  1.00  0.00    -0.015 A  
HETATM    5  C   UNL     1      -7.955   2.463  72.558  1.00  0.00    -0.054 A  
HETATM    6  C   UNL     1      -8.856   3.544  72.509  1.00  0.00    -0.104 A  
HETATM    7  C   UNL     1     -10.210   3.358  73.142  1.00  0.00    -0.231 C  
HETATM    8  C   UNL     1      -8.452   4.769  71.927  1.00  0.00    -0.119 A  
ENDROOT
BRANCH   8   9
HETATM    9  N   UNL     1      -9.357   5.867  71.968  1.00  0.00    -0.150 N  
HETATM   10  C   UNL     1      -9.171   6.981  72.773  1.00  0.00    -0.135 C  
HETATM   11  H   UNL     1     -10.185   5.833  71.374  1.00  0.00     0.000 HD 
HETATM   12  O   UNL     1      -8.221   7.147  73.535  1.00  0.00    -0.108 OA 
BRANCH  10  13
HETATM   13  C   UNL     1     -10.328   7.989  72.797  1.00  0.00    -0.339 C  
BRANCH  13  14
HETATM   14  N   UNL     1     -11.275   7.901  71.657  1.00  0.00    -0.245 NA 
HETATM   15  C   UNL     1     -12.436   8.797  71.917  1.00  0.00    -0.372 C  
HETATM   16  C   UNL     1     -12.166  10.320  71.763  1.00  0.00    -0.192 C  
HETATM   17  N   UNL     1     -11.493  10.717  70.510  1.00  0.00    -0.324 NA 
HETATM   18  C   UNL     1     -10.341   9.832  70.264  1.00  0.00    -0.291 C  
HETATM   19  C   UNL     1     -10.660   8.325  70.377  1.00  0.00    -0.224 C  
BRANCH  17  20
HETATM   20  C   UNL     1     -12.406  10.765  69.360  1.00  0.00    -0.062 C  
BRANCH  20  21
HETATM   21  C   UNL     1     -11.886  11.688  68.249  1.00  0.00    -0.335 C  
BRANCH  21  22
HETATM   22  C   UNL     1     -10.776  11.068  67.384  1.00  0.00    -0.303 C  
HETATM   23  C   UNL     1     -10.560  11.759  66.011  1.00  0.00    -0.302 C  
HETATM   24  C   UNL     1      -9.606  10.991  65.094  1.00  0.00    -0.281 A  
HETATM   25  C   UNL     1     -10.154  13.218  66.208  1.00  0.00    -0.294 A  
HETATM   26  C   UNL     1      -8.947  13.553  66.846  1.00  0.00    -0.219 A  
HETATM   27  C   UNL     1      -9.776  11.079  63.699  1.00  0.00    -0.364 A  
HETATM   28  C   UNL     1      -8.958  10.349  62.833  1.00  0.00    -0.260 A  
HETATM   29  C   UNL     1      -8.644  14.882  67.140  1.00  0.00    -0.248 A  
HETATM   30  C   UNL     1      -7.961   9.536  63.355  1.00  0.00    -0.141 A  
HETATM   31  C   UNL     1      -9.540  15.882  66.792  1.00  0.00    -0.236 A  
HETATM   32  F   UNL     1      -9.261  17.154  67.102  1.00  0.00    -0.223 F  
HETATM   33  C   UNL     1     -10.729  15.581  66.138  1.00  0.00    -0.315 A  
HETATM   34  F   UNL     1      -7.187   8.824  62.526  1.00  0.00    -0.098 F  
HETATM   35  C   UNL     1      -7.757   9.448  64.724  1.00  0.00    -0.116 A  
HETATM   36  C   UNL     1      -8.573  10.177  65.590  1.00  0.00    -0.166 A  
HETATM   37  C   UNL     1     -11.035  14.252  65.841  1.00  0.00    -0.304 A  
ENDBRANCH  21  22
ENDBRANCH  20  21
ENDBRANCH  17  20
ENDBRANCH  13  14
ENDBRANCH  10  13
ENDBRANCH   8   9
TORSDOF 6
ENDMDL
MODEL      139
REMARK 921   NORMALIZED FREE ENERGY PREDICTED BY IDOCK:   -4.61 KCAL/MOL
REMARK 922        TOTAL FREE ENERGY PREDICTED BY IDOCK:   -7.50 KCAL/MOL
REMARK 923 INTER-LIGAND FREE ENERGY PREDICTED BY IDOCK:   -6.70 KCAL/MOL
REMARK 924 INTRA-LIGAND FREE ENERGY PREDICTED BY IDOCK:   -0.79 KCAL/MOL
REMARK 927      BINDING AFFINITY PREDICTED BY RF-SCORE:    0.00 PKD
ROOT
HETATM    1  C   UNL     1      -6.943  19.285  65.767  1.00  0.00    -0.307 C  
HETATM    2  C   UNL     1      -8.277  19.065  66.431  1.00  0.00    -0.314 A  
HETATM    3  C   UNL     1      -9.217  20.110  66.324  1.00  0.00    -0.383 A  
HETATM    4  C   UNL     1     -10.436  20.050  66.989  1.00  0.00    -0.513 A  
HETATM    5  C   UNL     1     -10.723  18.957  67.797  1.00  0.00    -0.426 A  
HETATM    6  C   UNL     1      -9.807  17.895  67.928  1.00  0.00    -0.309 A  
HETATM    7  C   UNL     1     -10.197  16.739  68.811  1.00  0.00    -0.299 C  
HETATM    8  C   UNL     1      -8.596  17.918  67.196  1.00  0.00    -0.235 A  
ENDROOT
BRANCH   8   9
HETATM    9  N   UNL     1      -7.731  16.791  67.287  1.00  0.00    -0.162 N  
HETATM   10  C   UNL     1      -6.720  16.679  68.229  1.00  0.00    -0.142 C  
HETATM   11  H   UNL     1      -7.861  16.027  66.624  1.00  0.00     0.000 HD 
HETATM   12  O   UNL     1      -6.454  17.524  69.080  1.00  0.00    -0.219 OA 
BRANCH  10  13
HETATM   13  C   UNL     1      -5.793  15.465  68.073  1.00  0.00    -0.139 C  
BRANCH  13  14
HETATM   14  N   UNL     1      -5.844  14.476  69.180  1.00  0.00    -0.091 NA 
HETATM   15  C   UNL     1      -7.268  14.207  69.526  1.00  0.00     0.042 C  
HETATM   16  C   UNL     1      -8.059  13.332  68.513  1.00  0.00    -0.094 C  
HETATM   17  N   UNL     1      -7.392  12.078  68.109  1.00  0.00    -0.086 NA 
HETATM   18  C   UNL     1      -5.988  12.354  67.760  1.00  0.00    -0.111 C  
HETATM   19  C   UNL     1      -5.220  13.184  68.812  1.00  0.00    -0.069 C  
BRANCH  17  20
HETATM   20  C   UNL     1      -7.511  11.015  69.117  1.00  0.00    -0.121 C  
BRANCH  20  21
HETATM   21  C   UNL     1      -8.697  10.081  68.834  1.00  0.00    -0.146 C  
BRANCH  21  22
HETATM   22  C   UNL     1      -8.307   8.603  68.664  1.00  0.00    -0.122 C  
HETATM   23  C   UNL     1      -8.287   7.781  69.980  1.00  0.00    -0.130 C  
HETATM   24  C   UNL     1      -7.690   6.383  69.807  1.00  0.00    -0.109 A  
HETATM   25  C   UNL     1      -9.673   7.765  70.619  1.00  0.00    -0.177 A  
HETATM   26  C   UNL     1     -10.761   7.160  69.967  1.00  0.00    -0.268 A  
HETATM   27  C   UNL     1      -7.027   5.781  70.893  1.00  0.00    -0.066 A  
HETATM   28  C   UNL     1      -6.424   4.529  70.756  1.00  0.00    -0.030 A  
HETATM   29  C   UNL     1     -12.050   7.262  70.492  1.00  0.00    -0.154 A  
HETATM   30  C   UNL     1      -6.488   3.867  69.536  1.00  0.00    -0.033 A  
HETATM   31  C   UNL     1     -12.254   7.961  71.673  1.00  0.00    -0.308 A  
HETATM   32  F   UNL     1     -13.496   8.083  72.159  1.00  0.00    -0.310 F  
HETATM   33  C   UNL     1     -11.192   8.547  72.350  1.00  0.00    -0.399 A  
HETATM   34  F   UNL     1      -5.897   2.673  69.399  1.00  0.00    -0.020 F  
HETATM   35  C   UNL     1      -7.154   4.427  68.457  1.00  0.00    -0.052 A  
HETATM   36  C   UNL     1      -7.757   5.678  68.592  1.00  0.00    -0.092 A  
HETATM   37  C   UNL     1      -9.902   8.446  71.829  1.00  0.00    -0.313 A  
ENDBRANCH  21  22
ENDBRANCH  20  21
ENDBRANCH  17  20
ENDBRANCH  13  14
ENDBRANCH  10  13
ENDBRANCH   8   9
TORSDOF 6
ENDMDL
MODEL      140
REMARK 921   NORMALIZED FREE ENERGY PREDICTED BY IDOCK:   -4.60 KCAL/MOL
REMARK 922        TOTAL FREE ENERGY PREDICTED BY IDOCK:   -7.49 KCAL/MOL
REMARK 923 INTER-LIGAND FREE ENERGY PREDICTED BY IDOCK:   -6.69 KCAL/MOL
REMARK 924 INTRA-LIGAND FREE ENERGY PREDICTED BY IDOCK:   -0.80 KCAL/MOL
REMARK 927      BINDING AFFINITY PREDICTED BY RF-SCORE:    0.00 PKD
ROOT
HETATM    1  C   UNL     1      -6.563   7.747  70.183  1.00  0.00    -0.038 C  
HETATM    2  C   UNL     1      -7.269   7.392  68.901  1.00  0.00    -0.089 A  
HETATM    3  C   UNL     1      -6.614   6.481  68.049  1.00  0.00    -0.062 A  
HETATM    4  C   UNL     1      -7.130   6.170  66.797  1.00  0.00    -0.073 A  
HETATM    5  C   UNL     1      -8.296   6.788  66.364  1.00  0.00    -0.121 A  
HETATM    6  C   UNL     1      -8.977   7.705  67.188  1.00  0.00    -0.137 A  
HETATM    7  C   UNL     1     -10.242   8.323  66.653  1.00  0.00    -0.333 C  
HETATM    8  C   UNL     1      -8.494   7.970  68.491  1.00  0.00    -0.128 A  
ENDROOT
BRANCH   8   9
HETATM    9  N   UNL     1      -9.251   8.837  69.329  1.00  0.00    -0.148 N  
HETATM   10  C   UNL     1     -10.305   8.407  70.121  1.00  0.00    -0.211 C  
HETATM   11  H   UNL     1      -9.006   9.827  69.347  1.00  0.00     0.000 HD 
HETATM   12  O   UNL     1     -10.705   7.246  70.189  1.00  0.00    -0.232 OA 
BRANCH  10  13
HETATM   13  C   UNL     1     -11.099   9.509  70.834  1.00  0.00    -0.336 C  
BRANCH  13  14
HETATM   14  N   UNL     1     -12.093  10.225  69.994  1.00  0.00    -0.201 NA 
HETATM   15  C   UNL     1     -13.021  10.985  70.877  1.00  0.00    -0.224 C  
HETATM   16  C   UNL     1     -12.437  12.267  71.534  1.00  0.00    -0.027 C  
HETATM   17  N   UNL     1     -11.751  13.192  70.609  1.00  0.00    -0.000 NA 
HETATM   18  C   UNL     1     -10.829  12.435  69.745  1.00  0.00     0.463 C  
HETATM   19  C   UNL     1     -11.458  11.196  69.071  1.00  0.00    -0.296 C  
BRANCH  17  20
HETATM   20  C   UNL     1     -12.683  14.018  69.830  1.00  0.00    -0.009 C  
BRANCH  20  21
HETATM   21  C   UNL     1     -12.390  13.954  68.324  1.00  0.00     0.003 C  
BRANCH  21  22
HETATM   22  C   UNL     1     -11.784  15.243  67.745  1.00  0.00    -0.206 C  
HETATM   23  C   UNL     1     -10.358  15.082  67.155  1.00  0.00    -0.257 C  
HETATM   24  C   UNL     1      -9.704  16.416  66.788  1.00  0.00    -0.263 A  
HETATM   25  C   UNL     1     -10.368  14.084  66.000  1.00  0.00    -0.312 A  
HETATM   26  C   UNL     1     -11.093  14.347  64.825  1.00  0.00    -0.402 A  
HETATM   27  C   UNL     1      -8.303  16.536  66.858  1.00  0.00    -0.245 A  
HETATM   28  C   UNL     1      -7.676  17.753  66.582  1.00  0.00    -0.274 A  
HETATM   29  C   UNL     1     -11.207  13.378  63.829  1.00  0.00    -0.133 A  
HETATM   30  C   UNL     1      -8.445  18.854  66.225  1.00  0.00    -0.256 A  
HETATM   31  C   UNL     1     -10.592  12.146  63.998  1.00  0.00    -0.389 A  
HETATM   32  F   UNL     1     -10.727  11.206  63.054  1.00  0.00    -0.357 F  
HETATM   33  C   UNL     1      -9.849  11.868  65.139  1.00  0.00    -0.243 A  
HETATM   34  F   UNL     1      -7.846  20.026  65.976  1.00  0.00    -0.302 F  
HETATM   35  C   UNL     1      -9.824  18.758  66.128  1.00  0.00    -0.327 A  
HETATM   36  C   UNL     1     -10.452  17.543  66.403  1.00  0.00    -0.277 A  
HETATM   37  C   UNL     1      -9.731  12.837  66.138  1.00  0.00    -0.246 A  
ENDBRANCH  21  22
ENDBRANCH  20  21
ENDBRANCH  17  20
ENDBRANCH  13  14
ENDBRANCH  10  13
ENDBRANCH   8   9
TORSDOF 6
ENDMDL
MODEL      141
REMARK 921   NORMALIZED FREE ENERGY PREDICTED BY IDOCK:   -4.59 KCAL/MOL
REMARK 922        TOTAL FREE ENERGY PREDICTED BY IDOCK:   -7.48 KCAL/MOL
REMARK 923 INTER-LIGAND FREE ENERGY PREDICTED BY IDOCK:   -6.35 KCAL/MOL
REMARK 924 INTRA-LIGAND FREE ENERGY PREDICTED BY IDOCK:   -1.13 KCAL/MOL
REMARK 927      BINDING AFFINITY PREDICTED BY RF-SCORE:    0.00 PKD
ROOT
HETATM    1  C   UNL     1      -9.981   7.109  71.799  1.00  0.00    -0.186 C  
HETATM    2  C   UNL     1     -10.195   5.640  72.052  1.00  0.00    -0.252 A  
HETATM    3  C   UNL     1     -11.081   5.299  73.094  1.00  0.00    -0.384 A  
HETATM    4  C   UNL     1     -11.266   3.976  73.476  1.00  0.00    -0.325 A  
HETATM    5  C   UNL     1     -10.546   2.972  72.841  1.00  0.00    -0.209 A  
HETATM    6  C   UNL     1      -9.652   3.275  71.796  1.00  0.00    -0.226 A  
HETATM    7  C   UNL     1      -8.918   2.131  71.147  1.00  0.00    -0.140 C  
HETATM    8  C   UNL     1      -9.514   4.613  71.356  1.00  0.00    -0.157 A  
ENDROOT
BRANCH   8   9
HETATM    9  N   UNL     1      -8.665   4.874  70.243  1.00  0.00    -0.097 N  
HETATM   10  C   UNL     1      -7.290   5.020  70.348  1.00  0.00    -0.055 C  
HETATM   11  H   UNL     1      -9.091   4.958  69.320  1.00  0.00     0.000 HD 
HETATM   12  O   UNL     1      -6.654   4.946  71.397  1.00  0.00    -0.035 OA 
BRANCH  10  13
HETATM   13  C   UNL     1      -6.564   5.451  69.067  1.00  0.00    -0.051 C  
BRANCH  13  14
HETATM   14  N   UNL     1      -5.515   6.487  69.246  1.00  0.00    -0.013 NA 
HETATM   15  C   UNL     1      -5.162   7.059  67.917  1.00  0.00    -0.015 C  
HETATM   16  C   UNL     1      -6.211   8.022  67.292  1.00  0.00    -0.055 C  
HETATM   17  N   UNL     1      -6.697   9.090  68.188  1.00  0.00    -0.064 NA 
HETATM   18  C   UNL     1      -7.052   8.516  69.497  1.00  0.00    -0.052 C  
HETATM   19  C   UNL     1      -5.965   7.604  70.109  1.00  0.00    -0.023 C  
BRANCH  17  20
HETATM   20  C   UNL     1      -5.751  10.207  68.314  1.00  0.00    -0.041 C  
BRANCH  20  21
HETATM   21  C   UNL     1      -6.017  11.308  67.278  1.00  0.00    -0.072 C  
BRANCH  21  22
HETATM   22  C   UNL     1      -6.976  12.409  67.761  1.00  0.00    -0.118 C  
HETATM   23  C   UNL     1      -8.227  12.619  66.867  1.00  0.00    -0.048 C  
HETATM   24  C   UNL     1      -9.041  13.856  67.251  1.00  0.00    -0.230 A  
HETATM   25  C   UNL     1      -9.064  11.344  66.816  1.00  0.00    -0.181 A  
HETATM   26  C   UNL     1      -9.673  10.832  67.975  1.00  0.00    -0.174 A  
HETATM   27  C   UNL     1      -9.763  14.539  66.255  1.00  0.00    -0.330 A  
HETATM   28  C   UNL     1     -10.475  15.702  66.559  1.00  0.00    -0.303 A  
HETATM   29  C   UNL     1     -10.325   9.600  67.950  1.00  0.00    -0.271 A  
HETATM   30  C   UNL     1     -10.476  16.183  67.862  1.00  0.00    -0.290 A  
HETATM   31  C   UNL     1     -10.380   8.878  66.766  1.00  0.00    -0.247 A  
HETATM   32  F   UNL     1     -10.982   7.681  66.752  1.00  0.00    -0.421 F  
HETATM   33  C   UNL     1      -9.809   9.372  65.600  1.00  0.00    -0.294 A  
HETATM   34  F   UNL     1     -11.144  17.307  68.151  1.00  0.00    -0.371 F  
HETATM   35  C   UNL     1      -9.791  15.518  68.867  1.00  0.00    -0.219 A  
HETATM   36  C   UNL     1      -9.081  14.356  68.565  1.00  0.00    -0.193 A  
HETATM   37  C   UNL     1      -9.156  10.605  65.621  1.00  0.00    -0.206 A  
ENDBRANCH  21  22
ENDBRANCH  20  21
ENDBRANCH  17  20
ENDBRANCH  13  14
ENDBRANCH  10  13
ENDBRANCH   8   9
TORSDOF 6
ENDMDL
MODEL      142
REMARK 921   NORMALIZED FREE ENERGY PREDICTED BY IDOCK:   -4.59 KCAL/MOL
REMARK 922        TOTAL FREE ENERGY PREDICTED BY IDOCK:   -7.47 KCAL/MOL
REMARK 923 INTER-LIGAND FREE ENERGY PREDICTED BY IDOCK:   -6.59 KCAL/MOL
REMARK 924 INTRA-LIGAND FREE ENERGY PREDICTED BY IDOCK:   -0.88 KCAL/MOL
REMARK 927      BINDING AFFINITY PREDICTED BY RF-SCORE:    0.00 PKD
ROOT
HETATM    1  C   UNL     1      -7.824   2.925  68.272  1.00  0.00    -0.056 C  
HETATM    2  C   UNL     1      -8.294   3.529  66.975  1.00  0.00    -0.096 A  
HETATM    3  C   UNL     1      -8.865   2.646  66.036  1.00  0.00    -0.136 A  
HETATM    4  C   UNL     1      -9.234   3.085  64.770  1.00  0.00    -0.146 A  
HETATM    5  C   UNL     1      -9.009   4.408  64.411  1.00  0.00    -0.151 A  
HETATM    6  C   UNL     1      -8.439   5.318  65.323  1.00  0.00    -0.147 A  
HETATM    7  C   UNL     1      -8.240   6.738  64.864  1.00  0.00    -0.082 C  
HETATM    8  C   UNL     1      -8.129   4.893  66.637  1.00  0.00    -0.107 A  
ENDROOT
BRANCH   8   9
HETATM    9  N   UNL     1      -7.633   5.858  67.559  1.00  0.00    -0.091 N  
HETATM   10  C   UNL     1      -8.425   6.487  68.507  1.00  0.00    -0.124 C  
HETATM   11  H   UNL     1      -6.643   6.098  67.520  1.00  0.00     0.000 HD 
HETATM   12  O   UNL     1      -9.630   6.293  68.658  1.00  0.00    -0.124 OA 
BRANCH  10  13
HETATM   13  C   UNL     1      -7.748   7.608  69.307  1.00  0.00    -0.104 C  
BRANCH  13  14
HETATM   14  N   UNL     1      -8.579   8.817  69.540  1.00  0.00    -0.128 NA 
HETATM   15  C   UNL     1      -7.819   9.773  70.394  1.00  0.00    -0.118 C  
HETATM   16  C   UNL     1      -6.655  10.530  69.694  1.00  0.00    -0.098 C  
HETATM   17  N   UNL     1      -7.002  11.168  68.408  1.00  0.00    -0.069 NA 
HETATM   18  C   UNL     1      -7.745  10.214  67.567  1.00  0.00    -0.091 C  
HETATM   19  C   UNL     1      -8.924   9.517  68.281  1.00  0.00    -0.124 C  
BRANCH  17  20
HETATM   20  C   UNL     1      -7.725  12.436  68.574  1.00  0.00    -0.120 C  
BRANCH  20  21
HETATM   21  C   UNL     1      -7.601  13.337  67.336  1.00  0.00    -0.137 C  
BRANCH  21  22
HETATM   22  C   UNL     1      -7.352  14.820  67.660  1.00  0.00    -0.206 C  
HETATM   23  C   UNL     1      -8.543  15.762  67.341  1.00  0.00    -0.192 C  
HETATM   24  C   UNL     1      -8.187  17.245  67.470  1.00  0.00    -0.204 A  
HETATM   25  C   UNL     1      -9.769  15.368  68.161  1.00  0.00    -0.212 A  
HETATM   26  C   UNL     1      -9.756  15.451  69.564  1.00  0.00    -0.259 A  
HETATM   27  C   UNL     1      -8.856  18.183  66.661  1.00  0.00    -0.287 A  
HETATM   28  C   UNL     1      -8.520  19.538  66.713  1.00  0.00    -0.337 A  
HETATM   29  C   UNL     1     -10.828  14.967  70.314  1.00  0.00    -0.137 A  
HETATM   30  C   UNL     1      -7.523  19.964  67.581  1.00  0.00    -0.285 A  
HETATM   31  C   UNL     1     -11.919  14.405  69.666  1.00  0.00    -0.336 A  
HETATM   32  F   UNL     1     -12.933  13.914  70.389  1.00  0.00    -0.349 F  
HETATM   33  C   UNL     1     -11.967  14.333  68.279  1.00  0.00    -0.346 A  
HETATM   34  F   UNL     1      -7.189  21.261  67.620  1.00  0.00    -0.384 F  
HETATM   35  C   UNL     1      -6.864  19.065  68.405  1.00  0.00    -0.283 A  
HETATM   36  C   UNL     1      -7.199  17.712  68.354  1.00  0.00    -0.236 A  
HETATM   37  C   UNL     1     -10.897  14.818  67.525  1.00  0.00    -0.287 A  
ENDBRANCH  21  22
ENDBRANCH  20  21
ENDBRANCH  17  20
ENDBRANCH  13  14
ENDBRANCH  10  13
ENDBRANCH   8   9
TORSDOF 6
ENDMDL
MODEL      143
REMARK 921   NORMALIZED FREE ENERGY PREDICTED BY IDOCK:   -4.55 KCAL/MOL
REMARK 922        TOTAL FREE ENERGY PREDICTED BY IDOCK:   -7.41 KCAL/MOL
REMARK 923 INTER-LIGAND FREE ENERGY PREDICTED BY IDOCK:   -6.94 KCAL/MOL
REMARK 924 INTRA-LIGAND FREE ENERGY PREDICTED BY IDOCK:   -0.47 KCAL/MOL
REMARK 927      BINDING AFFINITY PREDICTED BY RF-SCORE:    0.00 PKD
ROOT
HETATM    1  C   UNL     1     -11.018  11.142  63.778  1.00  0.00    -0.256 C  
HETATM    2  C   UNL     1      -9.813  10.241  63.841  1.00  0.00    -0.251 A  
HETATM    3  C   UNL     1      -9.265   9.830  62.609  1.00  0.00    -0.268 A  
HETATM    4  C   UNL     1      -8.219   8.916  62.557  1.00  0.00    -0.178 A  
HETATM    5  C   UNL     1      -7.724   8.374  63.737  1.00  0.00    -0.144 A  
HETATM    6  C   UNL     1      -8.248   8.761  64.985  1.00  0.00    -0.156 A  
HETATM    7  C   UNL     1      -7.649   8.139  66.219  1.00  0.00    -0.090 C  
HETATM    8  C   UNL     1      -9.263   9.744  65.046  1.00  0.00    -0.249 A  
ENDROOT
BRANCH   8   9
HETATM    9  N   UNL     1      -9.712  10.173  66.328  1.00  0.00    -0.206 N  
HETATM   10  C   UNL     1     -10.624   9.463  67.094  1.00  0.00    -0.224 C  
HETATM   11  H   UNL     1      -9.344  11.048  66.701  1.00  0.00     0.000 HD 
HETATM   12  O   UNL     1     -11.146   8.401  66.762  1.00  0.00     0.171 OA 
BRANCH  10  13
HETATM   13  C   UNL     1     -11.105  10.159  68.375  1.00  0.00    -0.218 C  
BRANCH  13  14
HETATM   14  N   UNL     1     -12.094  11.249  68.177  1.00  0.00    -0.631 NA 
HETATM   15  C   UNL     1     -12.171  12.069  69.418  1.00  0.00    -0.097 C  
HETATM   16  C   UNL     1     -10.965  13.013  69.684  1.00  0.00     0.201 C  
HETATM   17  N   UNL     1     -10.566  13.862  68.543  1.00  0.00    -0.247 NA 
HETATM   18  C   UNL     1     -10.483  13.043  67.322  1.00  0.00    -0.238 C  
HETATM   19  C   UNL     1     -11.720  12.154  67.065  1.00  0.00    -0.303 C  
BRANCH  17  20
HETATM   20  C   UNL     1     -11.439  15.030  68.366  1.00  0.00    -0.323 C  
BRANCH  20  21
HETATM   21  C   UNL     1     -10.846  16.296  69.001  1.00  0.00    -0.315 C  
BRANCH  21  22
HETATM   22  C   UNL     1     -10.027  17.163  68.030  1.00  0.00    -0.295 C  
HETATM   23  C   UNL     1      -8.546  17.376  68.441  1.00  0.00    -0.270 C  
HETATM   24  C   UNL     1      -7.824  18.412  67.577  1.00  0.00    -0.236 A  
HETATM   25  C   UNL     1      -7.814  16.038  68.507  1.00  0.00    -0.160 A  
HETATM   26  C   UNL     1      -7.640  15.252  67.354  1.00  0.00    -0.229 A  
HETATM   27  C   UNL     1      -6.781  19.170  68.142  1.00  0.00    -0.264 A  
HETATM   28  C   UNL     1      -6.136  20.161  67.399  1.00  0.00    -0.214 A  
HETATM   29  C   UNL     1      -7.089  13.974  67.442  1.00  0.00    -0.096 A  
HETATM   30  C   UNL     1      -6.522  20.393  66.085  1.00  0.00    -0.218 A  
HETATM   31  C   UNL     1      -6.702  13.478  68.679  1.00  0.00    -0.094 A  
HETATM   32  F   UNL     1      -6.201  12.240  68.765  1.00  0.00    -0.060 F  
HETATM   33  C   UNL     1      -6.840  14.243  69.831  1.00  0.00    -0.019 A  
HETATM   34  F   UNL     1      -5.915  21.354  65.377  1.00  0.00    -0.280 F  
HETATM   35  C   UNL     1      -7.531  19.646  65.497  1.00  0.00    -0.130 A  
HETATM   36  C   UNL     1      -8.176  18.655  66.237  1.00  0.00    -0.258 A  
HETATM   37  C   UNL     1      -7.390  15.524  69.746  1.00  0.00    -0.096 A  
ENDBRANCH  21  22
ENDBRANCH  20  21
ENDBRANCH  17  20
ENDBRANCH  13  14
ENDBRANCH  10  13
ENDBRANCH   8   9
TORSDOF 6
ENDMDL
MODEL      144
REMARK 921   NORMALIZED FREE ENERGY PREDICTED BY IDOCK:   -4.53 KCAL/MOL
REMARK 922        TOTAL FREE ENERGY PREDICTED BY IDOCK:   -7.39 KCAL/MOL
REMARK 923 INTER-LIGAND FREE ENERGY PREDICTED BY IDOCK:   -8.37 KCAL/MOL
REMARK 924 INTRA-LIGAND FREE ENERGY PREDICTED BY IDOCK:    0.97 KCAL/MOL
REMARK 927      BINDING AFFINITY PREDICTED BY RF-SCORE:    0.00 PKD
ROOT
HETATM    1  C   UNL     1     -12.004  16.548  73.139  1.00  0.00    -0.469 C  
HETATM    2  C   UNL     1     -12.412  15.336  72.344  1.00  0.00    -0.443 A  
HETATM    3  C   UNL     1     -13.533  14.620  72.810  1.00  0.00    -0.570 A  
HETATM    4  C   UNL     1     -13.927  13.431  72.209  1.00  0.00    -0.605 A  
HETATM    5  C   UNL     1     -13.187  12.921  71.150  1.00  0.00    -0.062 A  
HETATM    6  C   UNL     1     -12.060  13.608  70.658  1.00  0.00    -0.398 A  
HETATM    7  C   UNL     1     -11.318  12.998  69.498  1.00  0.00    -0.223 C  
HETATM    8  C   UNL     1     -11.699  14.855  71.220  1.00  0.00    -0.331 A  
ENDROOT
BRANCH   8   9
HETATM    9  N   UNL     1     -10.605  15.563  70.645  1.00  0.00    -0.392 N  
HETATM   10  C   UNL     1     -10.716  16.345  69.505  1.00  0.00    -0.325 C  
HETATM   11  H   UNL     1      -9.693  15.491  71.095  1.00  0.00     0.000 HD 
HETATM   12  O   UNL     1     -11.753  16.514  68.866  1.00  0.00    -0.185 OA 
BRANCH  10  13
HETATM   13  C   UNL     1      -9.400  16.904  68.947  1.00  0.00    -0.229 C  
BRANCH  13  14
HETATM   14  N   UNL     1      -8.834  16.166  67.790  1.00  0.00    -0.183 NA 
HETATM   15  C   UNL     1      -7.425  16.601  67.576  1.00  0.00    -0.153 C  
HETATM   16  C   UNL     1      -6.388  16.072  68.606  1.00  0.00    -0.116 C  
HETATM   17  N   UNL     1      -6.434  14.618  68.856  1.00  0.00    -0.087 NA 
HETATM   18  C   UNL     1      -7.828  14.197  69.075  1.00  0.00    -0.010 C  
HETATM   19  C   UNL     1      -8.822  14.700  68.005  1.00  0.00    -0.169 C  
BRANCH  17  20
HETATM   20  C   UNL     1      -5.781  13.834  67.800  1.00  0.00    -0.078 C  
BRANCH  20  21
HETATM   21  C   UNL     1      -6.420  12.448  67.630  1.00  0.00    -0.130 C  
BRANCH  21  22
HETATM   22  C   UNL     1      -7.819  12.475  66.992  1.00  0.00    -0.065 C  
HETATM   23  C   UNL     1      -8.171  11.223  66.145  1.00  0.00    -0.088 C  
HETATM   24  C   UNL     1      -9.472  11.377  65.354  1.00  0.00    -0.240 A  
HETATM   25  C   UNL     1      -8.145   9.968  67.014  1.00  0.00    -0.117 A  
HETATM   26  C   UNL     1      -9.048   9.808  68.079  1.00  0.00    -0.127 A  
HETATM   27  C   UNL     1      -9.615  10.697  64.130  1.00  0.00    -0.353 A  
HETATM   28  C   UNL     1     -10.766  10.856  63.356  1.00  0.00    -0.019 A  
HETATM   29  C   UNL     1      -8.935   8.724  68.950  1.00  0.00    -0.134 A  
HETATM   30  C   UNL     1     -11.785  11.687  63.805  1.00  0.00    -0.303 A  
HETATM   31  C   UNL     1      -7.926   7.792  68.756  1.00  0.00    -0.125 A  
HETATM   32  F   UNL     1      -7.801   6.769  69.610  1.00  0.00    -0.103 F  
HETATM   33  C   UNL     1      -7.035   7.914  67.697  1.00  0.00    -0.074 A  
HETATM   34  F   UNL     1     -12.882  11.853  63.055  1.00  0.00    -0.671 F  
HETATM   35  C   UNL     1     -11.679  12.351  65.017  1.00  0.00    -0.420 A  
HETATM   36  C   UNL     1     -10.530  12.193  65.792  1.00  0.00    -0.287 A  
HETATM   37  C   UNL     1      -7.145   8.996  66.823  1.00  0.00    -0.082 A  
ENDBRANCH  21  22
ENDBRANCH  20  21
ENDBRANCH  17  20
ENDBRANCH  13  14
ENDBRANCH  10  13
ENDBRANCH   8   9
TORSDOF 6
ENDMDL
MODEL      145
REMARK 921   NORMALIZED FREE ENERGY PREDICTED BY IDOCK:   -4.53 KCAL/MOL
REMARK 922        TOTAL FREE ENERGY PREDICTED BY IDOCK:   -7.39 KCAL/MOL
REMARK 923 INTER-LIGAND FREE ENERGY PREDICTED BY IDOCK:   -6.55 KCAL/MOL
REMARK 924 INTRA-LIGAND FREE ENERGY PREDICTED BY IDOCK:   -0.84 KCAL/MOL
REMARK 927      BINDING AFFINITY PREDICTED BY RF-SCORE:    0.00 PKD
ROOT
HETATM    1  C   UNL     1      -7.538   2.915  72.188  1.00  0.00    -0.053 C  
HETATM    2  C   UNL     1      -8.787   3.694  72.505  1.00  0.00    -0.110 A  
HETATM    3  C   UNL     1      -9.549   3.250  73.605  1.00  0.00    -0.137 A  
HETATM    4  C   UNL     1     -10.770   3.834  73.916  1.00  0.00    -0.305 A  
HETATM    5  C   UNL     1     -11.267   4.853  73.113  1.00  0.00    -0.403 A  
HETATM    6  C   UNL     1     -10.534   5.323  72.006  1.00  0.00    -0.283 A  
HETATM    7  C   UNL     1     -11.132   6.440  71.193  1.00  0.00    -0.344 C  
HETATM    8  C   UNL     1      -9.257   4.780  71.728  1.00  0.00    -0.138 A  
ENDROOT
BRANCH   8   9
HETATM    9  N   UNL     1      -8.508   5.334  70.652  1.00  0.00    -0.115 N  
HETATM   10  C   UNL     1      -8.545   4.835  69.359  1.00  0.00    -0.082 C  
HETATM   11  H   UNL     1      -7.912   6.140  70.842  1.00  0.00     0.000 HD 
HETATM   12  O   UNL     1      -9.214   3.870  68.996  1.00  0.00    -0.126 OA 
BRANCH  10  13
HETATM   13  C   UNL     1      -7.552   5.464  68.371  1.00  0.00    -0.080 C  
BRANCH  13  14
HETATM   14  N   UNL     1      -8.157   6.059  67.152  1.00  0.00    -0.105 NA 
HETATM   15  C   UNL     1      -9.398   6.791  67.531  1.00  0.00    -0.124 C  
HETATM   16  C   UNL     1      -9.190   8.145  68.266  1.00  0.00    -0.134 C  
HETATM   17  N   UNL     1      -8.236   9.070  67.623  1.00  0.00    -0.109 NA 
HETATM   18  C   UNL     1      -7.008   8.342  67.259  1.00  0.00    -0.075 C  
HETATM   19  C   UNL     1      -7.252   7.026  66.487  1.00  0.00    -0.082 C  
BRANCH  17  20
HETATM   20  C   UNL     1      -8.814   9.783  66.476  1.00  0.00    -0.138 C  
BRANCH  20  21
HETATM   21  C   UNL     1      -8.233  11.197  66.323  1.00  0.00    -0.153 C  
BRANCH  21  22
HETATM   22  C   UNL     1      -8.918  12.258  67.201  1.00  0.00    -0.192 C  
HETATM   23  C   UNL     1      -9.438  13.500  66.430  1.00  0.00    -0.236 C  
HETATM   24  C   UNL     1      -9.914  14.624  67.353  1.00  0.00    -0.231 A  
HETATM   25  C   UNL     1     -10.486  13.088  65.400  1.00  0.00    -0.308 A  
HETATM   26  C   UNL     1     -11.706  12.517  65.800  1.00  0.00    -0.478 A  
HETATM   27  C   UNL     1      -9.808  15.959  66.919  1.00  0.00    -0.251 A  
HETATM   28  C   UNL     1     -10.184  17.014  67.755  1.00  0.00    -0.312 A  
HETATM   29  C   UNL     1     -12.603  12.022  64.853  1.00  0.00     0.112 A  
HETATM   30  C   UNL     1     -10.676  16.739  69.025  1.00  0.00    -0.331 A  
HETATM   31  C   UNL     1     -12.288  12.103  63.504  1.00  0.00    -0.574 A  
HETATM   32  F   UNL     1     -13.137  11.600  62.598  1.00  0.00    -0.325 F  
HETATM   33  C   UNL     1     -11.100  12.685  63.080  1.00  0.00     0.041 A  
HETATM   34  F   UNL     1     -11.021  17.750  69.833  1.00  0.00     0.196 F  
HETATM   35  C   UNL     1     -10.812  15.433  69.469  1.00  0.00    -0.268 A  
HETATM   36  C   UNL     1     -10.438  14.379  68.635  1.00  0.00    -0.247 A  
HETATM   37  C   UNL     1     -10.201  13.183  64.025  1.00  0.00    -0.050 A  
ENDBRANCH  21  22
ENDBRANCH  20  21
ENDBRANCH  17  20
ENDBRANCH  13  14
ENDBRANCH  10  13
ENDBRANCH   8   9
TORSDOF 6
ENDMDL
MODEL      146
REMARK 921   NORMALIZED FREE ENERGY PREDICTED BY IDOCK:   -4.53 KCAL/MOL
REMARK 922        TOTAL FREE ENERGY PREDICTED BY IDOCK:   -7.38 KCAL/MOL
REMARK 923 INTER-LIGAND FREE ENERGY PREDICTED BY IDOCK:   -7.33 KCAL/MOL
REMARK 924 INTRA-LIGAND FREE ENERGY PREDICTED BY IDOCK:   -0.05 KCAL/MOL
REMARK 927      BINDING AFFINITY PREDICTED BY RF-SCORE:    0.00 PKD
ROOT
HETATM    1  C   UNL     1     -11.589  15.740  69.912  1.00  0.00    -0.355 C  
HETATM    2  C   UNL     1     -12.482  14.790  70.665  1.00  0.00    -0.407 A  
HETATM    3  C   UNL     1     -13.583  15.355  71.339  1.00  0.00    -0.604 A  
HETATM    4  C   UNL     1     -14.406  14.579  72.147  1.00  0.00    -0.594 A  
HETATM    5  C   UNL     1     -14.122  13.230  72.319  1.00  0.00    -0.451 A  
HETATM    6  C   UNL     1     -13.030  12.632  71.663  1.00  0.00    -0.400 A  
HETATM    7  C   UNL     1     -12.796  11.161  71.889  1.00  0.00    -0.400 C  
HETATM    8  C   UNL     1     -12.233  13.401  70.783  1.00  0.00    -0.328 A  
ENDROOT
BRANCH   8   9
HETATM    9  N   UNL     1     -11.188  12.747  70.071  1.00  0.00    -0.440 N  
HETATM   10  C   UNL     1     -11.412  11.854  69.034  1.00  0.00    -0.297 C  
HETATM   11  H   UNL     1     -10.223  12.945  70.338  1.00  0.00     0.000 HD 
HETATM   12  O   UNL     1     -12.520  11.525  68.616  1.00  0.00    -0.335 OA 
BRANCH  10  13
HETATM   13  C   UNL     1     -10.170  11.132  68.493  1.00  0.00    -0.198 C  
BRANCH  13  14
HETATM   14  N   UNL     1      -9.418  10.325  69.487  1.00  0.00    -0.209 NA 
HETATM   15  C   UNL     1     -10.383   9.673  70.416  1.00  0.00    -0.291 C  
HETATM   16  C   UNL     1     -11.184   8.475  69.833  1.00  0.00    -0.032 C  
HETATM   17  N   UNL     1     -10.372   7.449  69.148  1.00  0.00    -0.204 NA 
HETATM   18  C   UNL     1      -9.427   8.101  68.225  1.00  0.00    -0.141 C  
HETATM   19  C   UNL     1      -8.614   9.254  68.853  1.00  0.00    -0.130 C  
BRANCH  17  20
HETATM   20  C   UNL     1      -9.694   6.539  70.080  1.00  0.00    -0.167 C  
BRANCH  20  21
HETATM   21  C   UNL     1     -10.190   5.092  69.938  1.00  0.00    -0.361 C  
BRANCH  21  22
HETATM   22  C   UNL     1      -9.830   4.433  68.596  1.00  0.00    -0.141 C  
HETATM   23  C   UNL     1      -8.329   4.521  68.211  1.00  0.00    -0.092 C  
HETATM   24  C   UNL     1      -8.045   4.051  66.783  1.00  0.00    -0.097 A  
HETATM   25  C   UNL     1      -7.469   3.814  69.256  1.00  0.00    -0.053 A  
HETATM   26  C   UNL     1      -7.587   2.430  69.472  1.00  0.00    -0.043 A  
HETATM   27  C   UNL     1      -6.968   4.619  66.076  1.00  0.00    -0.066 A  
HETATM   28  C   UNL     1      -6.712   4.253  64.752  1.00  0.00    -0.045 A  
HETATM   29  C   UNL     1      -6.897   1.812  70.514  1.00  0.00    -0.032 A  
HETATM   30  C   UNL     1      -7.524   3.311  64.132  1.00  0.00    -0.070 A  
HETATM   31  C   UNL     1      -6.080   2.571  71.340  1.00  0.00    -0.014 A  
HETATM   32  F   UNL     1      -5.441   1.981  72.358  1.00  0.00    -0.003 F  
HETATM   33  C   UNL     1      -5.926   3.937  71.133  1.00  0.00    -0.014 A  
HETATM   34  F   UNL     1      -7.289   2.972  62.858  1.00  0.00    -0.046 F  
HETATM   35  C   UNL     1      -8.577   2.720  64.813  1.00  0.00    -0.096 A  
HETATM   36  C   UNL     1      -8.833   3.084  66.135  1.00  0.00    -0.143 A  
HETATM   37  C   UNL     1      -6.614   4.559  70.090  1.00  0.00    -0.036 A  
ENDBRANCH  21  22
ENDBRANCH  20  21
ENDBRANCH  17  20
ENDBRANCH  13  14
ENDBRANCH  10  13
ENDBRANCH   8   9
TORSDOF 6
ENDMDL
MODEL      147
REMARK 921   NORMALIZED FREE ENERGY PREDICTED BY IDOCK:   -4.50 KCAL/MOL
REMARK 922        TOTAL FREE ENERGY PREDICTED BY IDOCK:   -7.35 KCAL/MOL
REMARK 923 INTER-LIGAND FREE ENERGY PREDICTED BY IDOCK:   -6.59 KCAL/MOL
REMARK 924 INTRA-LIGAND FREE ENERGY PREDICTED BY IDOCK:   -0.76 KCAL/MOL
REMARK 927      BINDING AFFINITY PREDICTED BY RF-SCORE:    0.00 PKD
ROOT
HETATM    1  C   UNL     1      -7.734   7.336  73.460  1.00  0.00    -0.113 C  
HETATM    2  C   UNL     1      -7.771   5.992  72.781  1.00  0.00    -0.102 A  
HETATM    3  C   UNL     1      -7.471   4.870  73.580  1.00  0.00    -0.091 A  
HETATM    4  C   UNL     1      -7.375   3.599  73.027  1.00  0.00    -0.056 A  
HETATM    5  C   UNL     1      -7.546   3.433  71.658  1.00  0.00    -0.052 A  
HETATM    6  C   UNL     1      -7.846   4.531  70.829  1.00  0.00    -0.064 A  
HETATM    7  C   UNL     1      -8.031   4.268  69.358  1.00  0.00    -0.060 C  
HETATM    8  C   UNL     1      -8.016   5.815  71.399  1.00  0.00    -0.113 A  
ENDROOT
BRANCH   8   9
HETATM    9  N   UNL     1      -8.400   6.887  70.544  1.00  0.00    -0.127 N  
HETATM   10  C   UNL     1      -9.718   7.179  70.229  1.00  0.00    -0.175 C  
HETATM   11  H   UNL     1      -7.666   7.472  70.143  1.00  0.00     0.000 HD 
HETATM   12  O   UNL     1     -10.694   6.555  70.640  1.00  0.00    -0.226 OA 
BRANCH  10  13
HETATM   13  C   UNL     1      -9.927   8.272  69.172  1.00  0.00    -0.196 C  
BRANCH  13  14
HETATM   14  N   UNL     1      -9.838   9.667  69.671  1.00  0.00    -0.201 NA 
HETATM   15  C   UNL     1      -8.429   9.957  70.060  1.00  0.00    -0.165 C  
HETATM   16  C   UNL     1      -7.429  10.159  68.887  1.00  0.00    -0.086 C  
HETATM   17  N   UNL     1      -7.868  11.104  67.841  1.00  0.00    -0.108 NA 
HETATM   18  C   UNL     1      -9.258  10.806  67.456  1.00  0.00    -0.143 C  
HETATM   19  C   UNL     1     -10.233  10.661  68.645  1.00  0.00    -0.182 C  
BRANCH  17  20
HETATM   20  C   UNL     1      -7.693  12.510  68.229  1.00  0.00    -0.141 C  
BRANCH  20  21
HETATM   21  C   UNL     1      -7.685  13.448  67.013  1.00  0.00     0.135 C  
BRANCH  21  22
HETATM   22  C   UNL     1      -7.603  14.942  67.371  1.00  0.00    -0.232 C  
HETATM   23  C   UNL     1      -8.907  15.743  67.118  1.00  0.00    -0.224 C  
HETATM   24  C   UNL     1      -8.726  17.254  67.278  1.00  0.00    -0.221 A  
HETATM   25  C   UNL     1     -10.048  15.185  67.965  1.00  0.00    -0.222 A  
HETATM   26  C   UNL     1      -9.997  15.234  69.368  1.00  0.00    -0.257 A  
HETATM   27  C   UNL     1      -9.529  18.125  66.517  1.00  0.00    -0.307 A  
HETATM   28  C   UNL     1      -9.355  19.509  66.597  1.00  0.00    -0.430 A  
HETATM   29  C   UNL     1     -10.977  14.607  70.138  1.00  0.00    -0.116 A  
HETATM   30  C   UNL     1      -8.385  20.029  67.445  1.00  0.00    -0.334 A  
HETATM   31  C   UNL     1     -12.015  13.935  69.509  1.00  0.00    -0.343 A  
HETATM   32  F   UNL     1     -12.939  13.308  70.249  1.00  0.00    -0.160 F  
HETATM   33  C   UNL     1     -12.103  13.892  68.122  1.00  0.00    -0.317 A  
HETATM   34  F   UNL     1      -8.206  21.355  67.511  1.00  0.00    -0.243 F  
HETATM   35  C   UNL     1      -7.596  19.195  68.222  1.00  0.00    -0.339 A  
HETATM   36  C   UNL     1      -7.769  17.813  68.143  1.00  0.00    -0.254 A  
HETATM   37  C   UNL     1     -11.126  14.520  67.349  1.00  0.00    -0.320 A  
ENDBRANCH  21  22
ENDBRANCH  20  21
ENDBRANCH  17  20
ENDBRANCH  13  14
ENDBRANCH  10  13
ENDBRANCH   8   9
TORSDOF 6
ENDMDL
MODEL      148
REMARK 921   NORMALIZED FREE ENERGY PREDICTED BY IDOCK:   -4.49 KCAL/MOL
REMARK 922        TOTAL FREE ENERGY PREDICTED BY IDOCK:   -7.33 KCAL/MOL
REMARK 923 INTER-LIGAND FREE ENERGY PREDICTED BY IDOCK:   -6.50 KCAL/MOL
REMARK 924 INTRA-LIGAND FREE ENERGY PREDICTED BY IDOCK:   -0.83 KCAL/MOL
REMARK 927      BINDING AFFINITY PREDICTED BY RF-SCORE:    0.00 PKD
ROOT
HETATM    1  C   UNL     1      -8.827  14.728  66.441  1.00  0.00    -0.152 C  
HETATM    2  C   UNL     1     -10.057  14.630  65.578  1.00  0.00    -0.405 A  
HETATM    3  C   UNL     1     -10.765  15.827  65.346  1.00  0.00    -0.420 A  
HETATM    4  C   UNL     1     -11.969  15.827  64.653  1.00  0.00     0.015 A  
HETATM    5  C   UNL     1     -12.502  14.624  64.206  1.00  0.00    -0.267 A  
HETATM    6  C   UNL     1     -11.824  13.409  64.421  1.00  0.00    -0.452 A  
HETATM    7  C   UNL     1     -12.459  12.149  63.894  1.00  0.00    -0.581 C  
HETATM    8  C   UNL     1     -10.563  13.413  65.063  1.00  0.00    -0.358 A  
ENDROOT
BRANCH   8   9
HETATM    9  N   UNL     1      -9.866  12.178  65.190  1.00  0.00    -0.378 N  
HETATM   10  C   UNL     1      -9.186  11.574  64.144  1.00  0.00     0.090 C  
HETATM   11  H   UNL     1      -9.867  11.714  66.098  1.00  0.00     0.000 HD 
HETATM   12  O   UNL     1      -9.108  12.023  63.002  1.00  0.00    -0.120 OA 
BRANCH  10  13
HETATM   13  C   UNL     1      -8.628  10.173  64.430  1.00  0.00    -0.191 C  
BRANCH  13  14
HETATM   14  N   UNL     1      -8.641   9.760  65.857  1.00  0.00    -0.134 NA 
HETATM   15  C   UNL     1      -8.682   8.273  65.934  1.00  0.00    -0.159 C  
HETATM   16  C   UNL     1      -7.358   7.538  65.583  1.00  0.00    -0.067 C  
HETATM   17  N   UNL     1      -6.155   8.045  66.272  1.00  0.00    -0.044 NA 
HETATM   18  C   UNL     1      -6.116   9.515  66.184  1.00  0.00    -0.063 C  
HETATM   19  C   UNL     1      -7.434  10.213  66.587  1.00  0.00    -0.106 C  
BRANCH  17  20
HETATM   20  C   UNL     1      -6.047   7.573  67.659  1.00  0.00    -0.047 C  
BRANCH  20  21
HETATM   21  C   UNL     1      -6.347   6.072  67.782  1.00  0.00    -0.037 C  
BRANCH  21  22
HETATM   22  C   UNL     1      -7.086   5.682  69.074  1.00  0.00    -0.068 C  
HETATM   23  C   UNL     1      -8.623   5.532  68.922  1.00  0.00    -0.100 C  
HETATM   24  C   UNL     1      -9.346   5.359  70.260  1.00  0.00    -0.198 A  
HETATM   25  C   UNL     1      -8.955   4.432  67.917  1.00  0.00    -0.138 A  
HETATM   26  C   UNL     1      -8.600   3.095  68.166  1.00  0.00    -0.116 A  
HETATM   27  C   UNL     1     -10.665   5.830  70.393  1.00  0.00    -0.372 A  
HETATM   28  C   UNL     1     -11.337   5.737  71.614  1.00  0.00    -0.216 A  
HETATM   29  C   UNL     1      -8.786   2.117  67.190  1.00  0.00    -0.136 A  
HETATM   30  C   UNL     1     -10.697   5.164  72.706  1.00  0.00    -0.241 A  
HETATM   31  C   UNL     1      -9.335   2.468  65.964  1.00  0.00     0.040 A  
HETATM   32  F   UNL     1      -9.485   1.533  65.018  1.00  0.00    -0.131 F  
HETATM   33  C   UNL     1      -9.717   3.778  65.701  1.00  0.00    -0.144 A  
HETATM   34  F   UNL     1     -11.334   5.089  73.882  1.00  0.00    -0.346 F  
HETATM   35  C   UNL     1      -9.406   4.672  72.597  1.00  0.00    -0.152 A  
HETATM   36  C   UNL     1      -8.734   4.764  71.378  1.00  0.00    -0.143 A  
HETATM   37  C   UNL     1      -9.534   4.759  66.677  1.00  0.00    -0.161 A  
ENDBRANCH  21  22
ENDBRANCH  20  21
ENDBRANCH  17  20
ENDBRANCH  13  14
ENDBRANCH  10  13
ENDBRANCH   8   9
TORSDOF 6
ENDMDL
MODEL      149
REMARK 921   NORMALIZED FREE ENERGY PREDICTED BY IDOCK:   -4.48 KCAL/MOL
REMARK 922        TOTAL FREE ENERGY PREDICTED BY IDOCK:   -7.32 KCAL/MOL
REMARK 923 INTER-LIGAND FREE ENERGY PREDICTED BY IDOCK:   -6.62 KCAL/MOL
REMARK 924 INTRA-LIGAND FREE ENERGY PREDICTED BY IDOCK:   -0.71 KCAL/MOL
REMARK 927      BINDING AFFINITY PREDICTED BY RF-SCORE:    0.00 PKD
ROOT
HETATM    1  C   UNL     1      -9.636  19.720  65.437  1.00  0.00     0.541 C  
HETATM    2  C   UNL     1      -9.719  19.328  66.888  1.00  0.00    -0.406 A  
HETATM    3  C   UNL     1      -9.229  20.260  67.826  1.00  0.00    -0.395 A  
HETATM    4  C   UNL     1      -9.163  19.951  69.179  1.00  0.00     0.004 A  
HETATM    5  C   UNL     1      -9.560  18.693  69.614  1.00  0.00     0.444 A  
HETATM    6  C   UNL     1     -10.054  17.736  68.707  1.00  0.00    -0.381 A  
HETATM    7  C   UNL     1     -10.477  16.400  69.258  1.00  0.00    -0.303 C  
HETATM    8  C   UNL     1     -10.190  18.071  67.339  1.00  0.00    -0.363 A  
ENDROOT
BRANCH   8   9
HETATM    9  N   UNL     1     -10.771  17.111  66.462  1.00  0.00    -0.152 N  
HETATM   10  C   UNL     1     -10.026  16.231  65.693  1.00  0.00    -0.274 C  
HETATM   11  H   UNL     1     -11.788  17.069  66.397  1.00  0.00     0.000 HD 
HETATM   12  O   UNL     1      -8.798  16.179  65.673  1.00  0.00    -0.329 OA 
BRANCH  10  13
HETATM   13  C   UNL     1     -10.821  15.377  64.695  1.00  0.00    -0.258 C  
BRANCH  13  14
HETATM   14  N   UNL     1     -11.540  14.217  65.280  1.00  0.00    -0.329 NA 
HETATM   15  C   UNL     1     -11.810  13.220  64.206  1.00  0.00    -0.417 C  
HETATM   16  C   UNL     1     -10.584  12.399  63.717  1.00  0.00    -0.452 C  
HETATM   17  N   UNL     1      -9.773  11.782  64.786  1.00  0.00    -0.205 NA 
HETATM   18  C   UNL     1      -9.502  12.776  65.839  1.00  0.00    -0.066 C  
HETATM   19  C   UNL     1     -10.752  13.537  66.334  1.00  0.00    -0.287 C  
BRANCH  17  20
HETATM   20  C   UNL     1     -10.375  10.556  65.326  1.00  0.00    -0.229 C  
BRANCH  20  21
HETATM   21  C   UNL     1      -9.314   9.552  65.800  1.00  0.00    -0.293 C  
BRANCH  21  22
HETATM   22  C   UNL     1      -9.346   9.270  67.312  1.00  0.00    -0.161 C  
HETATM   23  C   UNL     1      -9.564   7.781  67.689  1.00  0.00    -0.177 C  
HETATM   24  C   UNL     1      -9.806   7.569  69.185  1.00  0.00    -0.170 A  
HETATM   25  C   UNL     1      -8.430   6.920  67.139  1.00  0.00    -0.121 A  
HETATM   26  C   UNL     1      -7.108   7.096  67.584  1.00  0.00    -0.089 A  
HETATM   27  C   UNL     1     -10.609   6.491  69.604  1.00  0.00    -0.291 A  
HETATM   28  C   UNL     1     -10.895   6.298  70.958  1.00  0.00    -0.326 A  
HETATM   29  C   UNL     1      -6.059   6.400  66.985  1.00  0.00    -0.025 A  
HETATM   30  C   UNL     1     -10.372   7.174  71.900  1.00  0.00    -0.192 A  
HETATM   31  C   UNL     1      -6.325   5.520  65.945  1.00  0.00    -0.035 A  
HETATM   32  F   UNL     1      -5.313   4.875  65.352  1.00  0.00    -0.011 F  
HETATM   33  C   UNL     1      -7.625   5.309  65.503  1.00  0.00    -0.082 A  
HETATM   34  F   UNL     1     -10.659   6.999  73.197  1.00  0.00    -0.232 F  
HETATM   35  C   UNL     1      -9.559   8.230  71.517  1.00  0.00    -0.247 A  
HETATM   36  C   UNL     1      -9.273   8.424  70.166  1.00  0.00    -0.159 A  
HETATM   37  C   UNL     1      -8.679   6.002  66.101  1.00  0.00    -0.146 A  
ENDBRANCH  21  22
ENDBRANCH  20  21
ENDBRANCH  17  20
ENDBRANCH  13  14
ENDBRANCH  10  13
ENDBRANCH   8   9
TORSDOF 6
ENDMDL
MODEL      150
REMARK 921   NORMALIZED FREE ENERGY PREDICTED BY IDOCK:   -4.47 KCAL/MOL
REMARK 922        TOTAL FREE ENERGY PREDICTED BY IDOCK:   -7.31 KCAL/MOL
REMARK 923 INTER-LIGAND FREE ENERGY PREDICTED BY IDOCK:   -6.85 KCAL/MOL
REMARK 924 INTRA-LIGAND FREE ENERGY PREDICTED BY IDOCK:   -0.46 KCAL/MOL
REMARK 927      BINDING AFFINITY PREDICTED BY RF-SCORE:    0.00 PKD
ROOT
HETATM    1  C   UNL     1      -9.643   5.399  72.068  1.00  0.00    -0.186 C  
HETATM    2  C   UNL     1      -9.668   4.112  71.286  1.00  0.00    -0.255 A  
HETATM    3  C   UNL     1      -9.744   2.919  72.031  1.00  0.00    -0.230 A  
HETATM    4  C   UNL     1      -9.667   1.678  71.411  1.00  0.00    -0.212 A  
HETATM    5  C   UNL     1      -9.481   1.610  70.036  1.00  0.00    -0.139 A  
HETATM    6  C   UNL     1      -9.399   2.782  69.259  1.00  0.00    -0.193 A  
HETATM    7  C   UNL     1      -9.212   2.626  67.773  1.00  0.00    -0.244 C  
HETATM    8  C   UNL     1      -9.550   4.046  69.877  1.00  0.00    -0.211 A  
ENDROOT
BRANCH   8   9
HETATM    9  N   UNL     1      -9.545   5.206  69.052  1.00  0.00    -0.134 N  
HETATM   10  C   UNL     1      -8.386   5.814  68.595  1.00  0.00    -0.107 C  
HETATM   11  H   UNL     1     -10.442   5.611  68.783  1.00  0.00     0.000 HD 
HETATM   12  O   UNL     1      -7.245   5.432  68.847  1.00  0.00    -0.063 OA 
BRANCH  10  13
HETATM   13  C   UNL     1      -8.577   7.141  67.848  1.00  0.00    -0.123 C  
BRANCH  13  14
HETATM   14  N   UNL     1      -7.600   8.208  68.184  1.00  0.00    -0.103 NA 
HETATM   15  C   UNL     1      -6.861   8.598  66.951  1.00  0.00    -0.070 C  
HETATM   16  C   UNL     1      -7.658   9.450  65.923  1.00  0.00    -0.099 C  
HETATM   17  N   UNL     1      -8.357  10.624  66.485  1.00  0.00    -0.138 NA 
HETATM   18  C   UNL     1      -9.092  10.228  67.699  1.00  0.00    -0.137 C  
HETATM   19  C   UNL     1      -8.254   9.426  68.719  1.00  0.00    -0.108 C  
BRANCH  17  20
HETATM   20  C   UNL     1      -7.460  11.761  66.730  1.00  0.00    -0.057 C  
BRANCH  20  21
HETATM   21  C   UNL     1      -7.898  12.590  67.947  1.00  0.00    -0.144 C  
BRANCH  21  22
HETATM   22  C   UNL     1      -7.337  14.022  67.968  1.00  0.00    -0.142 C  
HETATM   23  C   UNL     1      -8.282  15.098  67.370  1.00  0.00    -0.215 C  
HETATM   24  C   UNL     1      -7.612  16.464  67.209  1.00  0.00    -0.198 A  
HETATM   25  C   UNL     1      -9.585  15.161  68.161  1.00  0.00    -0.205 A  
HETATM   26  C   UNL     1      -9.592  15.549  69.512  1.00  0.00    -0.278 A  
HETATM   27  C   UNL     1      -8.035  17.318  66.172  1.00  0.00    -0.292 A  
HETATM   28  C   UNL     1      -7.411  18.549  65.962  1.00  0.00    -0.275 A  
HETATM   29  C   UNL     1     -10.764  15.479  70.265  1.00  0.00    -0.352 A  
HETATM   30  C   UNL     1      -6.367  18.939  66.792  1.00  0.00    -0.186 A  
HETATM   31  C   UNL     1     -11.934  15.028  69.671  1.00  0.00    -0.321 A  
HETATM   32  F   UNL     1     -13.051  14.933  70.404  1.00  0.00    -0.374 F  
HETATM   33  C   UNL     1     -11.961  14.661  68.331  1.00  0.00    -0.289 A  
HETATM   34  F   UNL     1      -5.757  20.113  66.581  1.00  0.00    -0.170 F  
HETATM   35  C   UNL     1      -5.945  18.128  67.834  1.00  0.00    -0.163 A  
HETATM   36  C   UNL     1      -6.568  16.898  68.045  1.00  0.00    -0.151 A  
HETATM   37  C   UNL     1     -10.790  14.732  67.573  1.00  0.00    -0.287 A  
ENDBRANCH  21  22
ENDBRANCH  20  21
ENDBRANCH  17  20
ENDBRANCH  13  14
ENDBRANCH  10  13
ENDBRANCH   8   9
TORSDOF 6
ENDMDL
MODEL      151
REMARK 921   NORMALIZED FREE ENERGY PREDICTED BY IDOCK:   -4.46 KCAL/MOL
REMARK 922        TOTAL FREE ENERGY PREDICTED BY IDOCK:   -7.30 KCAL/MOL
REMARK 923 INTER-LIGAND FREE ENERGY PREDICTED BY IDOCK:   -6.74 KCAL/MOL
REMARK 924 INTRA-LIGAND FREE ENERGY PREDICTED BY IDOCK:   -0.56 KCAL/MOL
REMARK 927      BINDING AFFINITY PREDICTED BY RF-SCORE:    0.00 PKD
ROOT
HETATM    1  C   UNL     1     -10.336  18.731  67.972  1.00  0.00    -0.442 C  
HETATM    2  C   UNL     1      -8.868  18.483  68.201  1.00  0.00    -0.327 A  
HETATM    3  C   UNL     1      -8.116  19.559  68.712  1.00  0.00    -0.357 A  
HETATM    4  C   UNL     1      -6.737  19.466  68.859  1.00  0.00    -0.348 A  
HETATM    5  C   UNL     1      -6.083  18.304  68.469  1.00  0.00    -0.196 A  
HETATM    6  C   UNL     1      -6.802  17.209  67.953  1.00  0.00    -0.165 A  
HETATM    7  C   UNL     1      -6.024  15.979  67.566  1.00  0.00    -0.181 C  
HETATM    8  C   UNL     1      -8.213  17.272  67.869  1.00  0.00    -0.219 A  
ENDROOT
BRANCH   8   9
HETATM    9  N   UNL     1      -8.916  16.118  67.422  1.00  0.00    -0.189 N  
HETATM   10  C   UNL     1      -9.454  15.171  68.280  1.00  0.00    -0.201 C  
HETATM   11  H   UNL     1      -9.030  15.980  66.418  1.00  0.00     0.000 HD 
HETATM   12  O   UNL     1      -9.386  15.213  69.506  1.00  0.00    -0.207 OA 
BRANCH  10  13
HETATM   13  C   UNL     1     -10.038  13.918  67.611  1.00  0.00    -0.241 C  
BRANCH  13  14
HETATM   14  N   UNL     1      -9.846  12.649  68.357  1.00  0.00    -0.222 NA 
HETATM   15  C   UNL     1     -10.655  11.577  67.712  1.00  0.00    -0.192 C  
HETATM   16  C   UNL     1     -10.111  11.035  66.361  1.00  0.00    -0.229 C  
HETATM   17  N   UNL     1      -8.683  10.656  66.364  1.00  0.00    -0.145 NA 
HETATM   18  C   UNL     1      -7.889  11.724  66.995  1.00  0.00    -0.161 C  
HETATM   19  C   UNL     1      -8.433  12.203  68.359  1.00  0.00    -0.145 C  
BRANCH  17  20
HETATM   20  C   UNL     1      -8.439   9.348  66.985  1.00  0.00    -0.127 C  
BRANCH  20  21
HETATM   21  C   UNL     1      -7.128   8.713  66.497  1.00  0.00    -0.080 C  
BRANCH  21  22
HETATM   22  C   UNL     1      -7.322   7.540  65.522  1.00  0.00    -0.071 C  
HETATM   23  C   UNL     1      -7.463   6.150  66.198  1.00  0.00    -0.085 C  
HETATM   24  C   UNL     1      -7.436   4.990  65.200  1.00  0.00    -0.076 A  
HETATM   25  C   UNL     1      -8.686   6.124  67.111  1.00  0.00    -0.106 A  
HETATM   26  C   UNL     1      -9.982   6.278  66.588  1.00  0.00    -0.207 A  
HETATM   27  C   UNL     1      -6.927   3.744  65.612  1.00  0.00    -0.061 A  
HETATM   28  C   UNL     1      -6.837   2.678  64.713  1.00  0.00    -0.044 A  
HETATM   29  C   UNL     1     -11.083   6.386  67.438  1.00  0.00    -0.412 A  
HETATM   30  C   UNL     1      -7.265   2.849  63.403  1.00  0.00    -0.049 A  
HETATM   31  C   UNL     1     -10.896   6.332  68.811  1.00  0.00    -0.333 A  
HETATM   32  F   UNL     1     -11.950   6.466  69.626  1.00  0.00    -0.462 F  
HETATM   33  C   UNL     1      -9.628   6.157  69.354  1.00  0.00    -0.159 A  
HETATM   34  F   UNL     1      -7.164   1.832  62.536  1.00  0.00    -0.029 F  
HETATM   35  C   UNL     1      -7.790   4.059  62.977  1.00  0.00    -0.070 A  
HETATM   36  C   UNL     1      -7.881   5.124  63.873  1.00  0.00    -0.091 A  
HETATM   37  C   UNL     1      -8.525   6.047  68.507  1.00  0.00    -0.113 A  
ENDBRANCH  21  22
ENDBRANCH  20  21
ENDBRANCH  17  20
ENDBRANCH  13  14
ENDBRANCH  10  13
ENDBRANCH   8   9
TORSDOF 6
ENDMDL
MODEL      152
REMARK 921   NORMALIZED FREE ENERGY PREDICTED BY IDOCK:   -4.46 KCAL/MOL
REMARK 922        TOTAL FREE ENERGY PREDICTED BY IDOCK:   -7.30 KCAL/MOL
REMARK 923 INTER-LIGAND FREE ENERGY PREDICTED BY IDOCK:   -6.63 KCAL/MOL
REMARK 924 INTRA-LIGAND FREE ENERGY PREDICTED BY IDOCK:   -0.67 KCAL/MOL
REMARK 927      BINDING AFFINITY PREDICTED BY RF-SCORE:    0.00 PKD
ROOT
HETATM    1  C   UNL     1     -11.502   9.867  71.093  1.00  0.00    -0.459 C  
HETATM    2  C   UNL     1     -12.212   8.576  71.405  1.00  0.00    -0.343 A  
HETATM    3  C   UNL     1     -13.614   8.572  71.257  1.00  0.00    -0.180 A  
HETATM    4  C   UNL     1     -14.371   7.465  71.619  1.00  0.00    -0.614 A  
HETATM    5  C   UNL     1     -13.742   6.353  72.165  1.00  0.00     0.274 A  
HETATM    6  C   UNL     1     -12.344   6.321  72.328  1.00  0.00    -0.147 A  
HETATM    7  C   UNL     1     -11.734   5.075  72.914  1.00  0.00    -0.200 C  
HETATM    8  C   UNL     1     -11.562   7.418  71.894  1.00  0.00    -0.272 A  
ENDROOT
BRANCH   8   9
HETATM    9  N   UNL     1     -10.145   7.320  71.997  1.00  0.00    -0.184 N  
HETATM   10  C   UNL     1      -9.334   6.868  70.968  1.00  0.00    -0.156 C  
HETATM   11  H   UNL     1      -9.704   7.597  72.874  1.00  0.00     0.000 HD 
HETATM   12  O   UNL     1      -9.735   6.501  69.865  1.00  0.00    -0.163 OA 
BRANCH  10  13
HETATM   13  C   UNL     1      -7.850   6.684  71.317  1.00  0.00    -0.102 C  
BRANCH  13  14
HETATM   14  N   UNL     1      -7.133   7.921  71.720  1.00  0.00    -0.065 NA 
HETATM   15  C   UNL     1      -5.826   7.981  71.006  1.00  0.00    -0.033 C  
HETATM   16  C   UNL     1      -5.894   8.339  69.495  1.00  0.00    -0.030 C  
HETATM   17  N   UNL     1      -6.704   9.529  69.166  1.00  0.00    -0.049 NA 
HETATM   18  C   UNL     1      -7.997   9.458  69.868  1.00  0.00    -0.130 C  
HETATM   19  C   UNL     1      -7.887   9.149  71.377  1.00  0.00     0.051 C  
BRANCH  17  20
HETATM   20  C   UNL     1      -6.001  10.791  69.431  1.00  0.00    -0.046 C  
BRANCH  20  21
HETATM   21  C   UNL     1      -6.078  11.757  68.239  1.00  0.00    -0.049 C  
BRANCH  21  22
HETATM   22  C   UNL     1      -7.069  12.916  68.431  1.00  0.00    -0.099 C  
HETATM   23  C   UNL     1      -8.004  13.178  67.221  1.00  0.00    -0.140 C  
HETATM   24  C   UNL     1      -8.822  14.464  67.359  1.00  0.00    -0.211 A  
HETATM   25  C   UNL     1      -8.866  11.950  66.938  1.00  0.00    -0.197 A  
HETATM   26  C   UNL     1      -9.803  11.492  67.880  1.00  0.00    -0.192 A  
HETATM   27  C   UNL     1      -9.195  15.168  66.198  1.00  0.00    -0.318 A  
HETATM   28  C   UNL     1      -9.895  16.373  66.288  1.00  0.00    -0.336 A  
HETATM   29  C   UNL     1     -10.492  10.297  67.674  1.00  0.00    -0.285 A  
HETATM   30  C   UNL     1     -10.235  16.876  67.538  1.00  0.00    -0.295 A  
HETATM   31  C   UNL     1     -10.254   9.559  66.524  1.00  0.00    -0.237 A  
HETATM   32  F   UNL     1     -10.894   8.397  66.343  1.00  0.00    -0.213 F  
HETATM   33  C   UNL     1      -9.350  10.000  65.565  1.00  0.00    -0.271 A  
HETATM   34  F   UNL     1     -10.892  18.040  67.626  1.00  0.00    -0.402 F  
HETATM   35  C   UNL     1      -9.899  16.192  68.696  1.00  0.00    -0.226 A  
HETATM   36  C   UNL     1      -9.201  14.989  68.608  1.00  0.00    -0.198 A  
HETATM   37  C   UNL     1      -8.660  11.197  65.767  1.00  0.00    -0.113 A  
ENDBRANCH  21  22
ENDBRANCH  20  21
ENDBRANCH  17  20
ENDBRANCH  13  14
ENDBRANCH  10  13
ENDBRANCH   8   9
TORSDOF 6
ENDMDL
MODEL      153
REMARK 921   NORMALIZED FREE ENERGY PREDICTED BY IDOCK:   -4.44 KCAL/MOL
REMARK 922        TOTAL FREE ENERGY PREDICTED BY IDOCK:   -7.27 KCAL/MOL
REMARK 923 INTER-LIGAND FREE ENERGY PREDICTED BY IDOCK:   -6.58 KCAL/MOL
REMARK 924 INTRA-LIGAND FREE ENERGY PREDICTED BY IDOCK:   -0.70 KCAL/MOL
REMARK 927      BINDING AFFINITY PREDICTED BY RF-SCORE:    0.00 PKD
ROOT
HETATM    1  C   UNL     1     -10.467  12.135  67.995  1.00  0.00    -0.227 C  
HETATM    2  C   UNL     1     -10.720  12.479  66.551  1.00  0.00    -0.266 A  
HETATM    3  C   UNL     1     -11.287  13.742  66.291  1.00  0.00    -0.329 A  
HETATM    4  C   UNL     1     -11.656  14.113  65.004  1.00  0.00    -0.362 A  
HETATM    5  C   UNL     1     -11.490  13.213  63.958  1.00  0.00    -0.455 A  
HETATM    6  C   UNL     1     -10.927  11.942  64.180  1.00  0.00    -0.430 A  
HETATM    7  C   UNL     1     -10.767  11.029  62.994  1.00  0.00     0.150 C  
HETATM    8  C   UNL     1     -10.484  11.588  65.477  1.00  0.00    -0.275 A  
ENDROOT
BRANCH   8   9
HETATM    9  N   UNL     1      -9.844  10.328  65.651  1.00  0.00    -0.249 N  
HETATM   10  C   UNL     1      -8.487  10.127  65.451  1.00  0.00    -0.156 C  
HETATM   11  H   UNL     1     -10.413   9.532  65.938  1.00  0.00     0.000 HD 
HETATM   12  O   UNL     1      -7.691  10.997  65.103  1.00  0.00     0.121 OA 
BRANCH  10  13
HETATM   13  C   UNL     1      -8.007   8.672  65.536  1.00  0.00    -0.108 C  
BRANCH  13  14
HETATM   14  N   UNL     1      -6.815   8.442  66.391  1.00  0.00    -0.069 NA 
HETATM   15  C   UNL     1      -7.049   9.056  67.728  1.00  0.00    -0.079 C  
HETATM   16  C   UNL     1      -8.042   8.303  68.658  1.00  0.00    -0.120 C  
HETATM   17  N   UNL     1      -7.791   6.855  68.805  1.00  0.00    -0.116 NA 
HETATM   18  C   UNL     1      -7.570   6.253  67.479  1.00  0.00    -0.097 C  
HETATM   19  C   UNL     1      -6.541   7.001  66.603  1.00  0.00    -0.052 C  
BRANCH  17  20
HETATM   20  C   UNL     1      -6.696   6.556  69.736  1.00  0.00    -0.050 C  
BRANCH  20  21
HETATM   21  C   UNL     1      -7.209   6.246  71.150  1.00  0.00    -0.079 C  
BRANCH  21  22
HETATM   22  C   UNL     1      -8.468   7.032  71.549  1.00  0.00    -0.116 C  
HETATM   23  C   UNL     1      -9.804   6.270  71.340  1.00  0.00    -0.195 C  
HETATM   24  C   UNL     1     -11.038   7.151  71.540  1.00  0.00    -0.267 A  
HETATM   25  C   UNL     1      -9.831   5.001  72.190  1.00  0.00    -0.220 A  
HETATM   26  C   UNL     1      -9.803   5.071  73.593  1.00  0.00    -0.171 A  
HETATM   27  C   UNL     1     -12.212   6.862  70.819  1.00  0.00    -0.364 A  
HETATM   28  C   UNL     1     -13.340   7.677  70.935  1.00  0.00     0.058 A  
HETATM   29  C   UNL     1      -9.695   3.912  74.361  1.00  0.00    -0.152 A  
HETATM   30  C   UNL     1     -13.306   8.778  71.781  1.00  0.00    -0.378 A  
HETATM   31  C   UNL     1      -9.623   2.678  73.730  1.00  0.00    -0.090 A  
HETATM   32  F   UNL     1      -9.489   1.568  74.467  1.00  0.00    -0.067 F  
HETATM   33  C   UNL     1      -9.672   2.579  72.345  1.00  0.00    -0.198 A  
HETATM   34  F   UNL     1     -14.382   9.569  71.882  1.00  0.00    -0.246 F  
HETATM   35  C   UNL     1     -12.171   9.073  72.521  1.00  0.00    -0.234 A  
HETATM   36  C   UNL     1     -11.043   8.260  72.405  1.00  0.00    -0.447 A  
HETATM   37  C   UNL     1      -9.782   3.737  71.574  1.00  0.00    -0.241 A  
ENDBRANCH  21  22
ENDBRANCH  20  21
ENDBRANCH  17  20
ENDBRANCH  13  14
ENDBRANCH  10  13
ENDBRANCH   8   9
TORSDOF 6
ENDMDL
MODEL      154
REMARK 921   NORMALIZED FREE ENERGY PREDICTED BY IDOCK:   -4.40 KCAL/MOL
REMARK 922        TOTAL FREE ENERGY PREDICTED BY IDOCK:   -7.22 KCAL/MOL
REMARK 923 INTER-LIGAND FREE ENERGY PREDICTED BY IDOCK:   -7.04 KCAL/MOL
REMARK 924 INTRA-LIGAND FREE ENERGY PREDICTED BY IDOCK:   -0.18 KCAL/MOL
REMARK 927      BINDING AFFINITY PREDICTED BY RF-SCORE:    0.00 PKD
ROOT
HETATM    1  C   UNL     1     -11.213  10.095  70.890  1.00  0.00    -0.383 C  
HETATM    2  C   UNL     1     -11.955   8.859  71.326  1.00  0.00    -0.365 A  
HETATM    3  C   UNL     1     -13.362   8.905  71.249  1.00  0.00    -0.227 A  
HETATM    4  C   UNL     1     -14.141   7.858  71.725  1.00  0.00    -0.520 A  
HETATM    5  C   UNL     1     -13.528   6.760  72.314  1.00  0.00     0.165 A  
HETATM    6  C   UNL     1     -12.125   6.680  72.408  1.00  0.00    -0.132 A  
HETATM    7  C   UNL     1     -11.535   5.450  73.047  1.00  0.00    -0.324 C  
HETATM    8  C   UNL     1     -11.325   7.710  71.861  1.00  0.00    -0.266 A  
ENDROOT
BRANCH   8   9
HETATM    9  N   UNL     1      -9.910   7.559  71.899  1.00  0.00    -0.162 N  
HETATM   10  C   UNL     1      -9.182   6.931  70.900  1.00  0.00    -0.157 C  
HETATM   11  H   UNL     1      -9.406   7.932  72.703  1.00  0.00     0.000 HD 
HETATM   12  O   UNL     1      -9.663   6.436  69.884  1.00  0.00    -0.164 OA 
BRANCH  10  13
HETATM   13  C   UNL     1      -7.688   6.726  71.190  1.00  0.00    -0.093 C  
BRANCH  13  14
HETATM   14  N   UNL     1      -6.850   7.949  71.113  1.00  0.00    -0.044 NA 
HETATM   15  C   UNL     1      -5.662   7.673  70.256  1.00  0.00    -0.023 C  
HETATM   16  C   UNL     1      -5.933   7.585  68.728  1.00  0.00    -0.027 C  
HETATM   17  N   UNL     1      -6.714   8.703  68.162  1.00  0.00    -0.064 NA 
HETATM   18  C   UNL     1      -7.890   8.965  69.009  1.00  0.00    -0.091 C  
HETATM   19  C   UNL     1      -7.576   9.095  70.515  1.00  0.00    -0.125 C  
BRANCH  17  20
HETATM   20  C   UNL     1      -5.908   9.913  67.948  1.00  0.00    -0.039 C  
BRANCH  20  21
HETATM   21  C   UNL     1      -6.287  10.636  66.647  1.00  0.00    -0.091 C  
BRANCH  21  22
HETATM   22  C   UNL     1      -7.748  11.115  66.595  1.00  0.00    -0.155 C  
HETATM   23  C   UNL     1      -8.524  10.694  65.319  1.00  0.00    -0.152 C  
HETATM   24  C   UNL     1      -9.894  11.365  65.200  1.00  0.00    -0.302 A  
HETATM   25  C   UNL     1      -8.592   9.173  65.214  1.00  0.00    -0.191 A  
HETATM   26  C   UNL     1      -9.273   8.412  66.180  1.00  0.00    -0.263 A  
HETATM   27  C   UNL     1     -10.426  11.617  63.921  1.00  0.00    -0.433 A  
HETATM   28  C   UNL     1     -11.649  12.275  63.773  1.00  0.00    -0.555 A  
HETATM   29  C   UNL     1      -9.221   7.019  66.153  1.00  0.00    -0.119 A  
HETATM   30  C   UNL     1     -12.352  12.675  64.902  1.00  0.00    -0.498 A  
HETATM   31  C   UNL     1      -8.496   6.379  65.158  1.00  0.00    -0.068 A  
HETATM   32  F   UNL     1      -8.423   5.042  65.151  1.00  0.00    -0.119 F  
HETATM   33  C   UNL     1      -7.833   7.107  64.177  1.00  0.00    -0.113 A  
HETATM   34  F   UNL     1     -13.517  13.321  64.762  1.00  0.00    -0.066 F  
HETATM   35  C   UNL     1     -11.863  12.419  66.174  1.00  0.00    -0.442 A  
HETATM   36  C   UNL     1     -10.642  11.762  66.323  1.00  0.00    -0.292 A  
HETATM   37  C   UNL     1      -7.885   8.502  64.199  1.00  0.00    -0.144 A  
ENDBRANCH  21  22
ENDBRANCH  20  21
ENDBRANCH  17  20
ENDBRANCH  13  14
ENDBRANCH  10  13
ENDBRANCH   8   9
TORSDOF 6
ENDMDL
MODEL      155
REMARK 921   NORMALIZED FREE ENERGY PREDICTED BY IDOCK:   -4.37 KCAL/MOL
REMARK 922        TOTAL FREE ENERGY PREDICTED BY IDOCK:   -7.17 KCAL/MOL
REMARK 923 INTER-LIGAND FREE ENERGY PREDICTED BY IDOCK:   -6.76 KCAL/MOL
REMARK 924 INTRA-LIGAND FREE ENERGY PREDICTED BY IDOCK:   -0.42 KCAL/MOL
REMARK 927      BINDING AFFINITY PREDICTED BY RF-SCORE:    0.00 PKD
ROOT
HETATM    1  C   UNL     1      -8.346  15.772  66.451  1.00  0.00    -0.267 C  
HETATM    2  C   UNL     1      -9.634  15.159  65.967  1.00  0.00    -0.365 A  
HETATM    3  C   UNL     1     -10.417  15.939  65.093  1.00  0.00    -0.363 A  
HETATM    4  C   UNL     1     -11.671  15.509  64.675  1.00  0.00    -0.226 A  
HETATM    5  C   UNL     1     -12.175  14.304  65.148  1.00  0.00    -0.422 A  
HETATM    6  C   UNL     1     -11.421  13.499  66.023  1.00  0.00    -0.345 A  
HETATM    7  C   UNL     1     -12.030  12.200  66.481  1.00  0.00    -0.198 C  
HETATM    8  C   UNL     1     -10.115  13.898  66.394  1.00  0.00    -0.295 A  
ENDROOT
BRANCH   8   9
HETATM    9  N   UNL     1      -9.348  13.022  67.213  1.00  0.00    -0.212 N  
HETATM   10  C   UNL     1      -8.762  11.856  66.744  1.00  0.00    -0.193 C  
HETATM   11  H   UNL     1      -9.223  13.264  68.196  1.00  0.00     0.000 HD 
HETATM   12  O   UNL     1      -8.837  11.447  65.588  1.00  0.00    -0.174 OA 
BRANCH  10  13
HETATM   13  C   UNL     1      -8.107  10.963  67.807  1.00  0.00    -0.115 C  
BRANCH  13  14
HETATM   14  N   UNL     1      -8.879  10.796  69.065  1.00  0.00    -0.154 NA 
HETATM   15  C   UNL     1     -10.195  10.174  68.749  1.00  0.00    -0.186 C  
HETATM   16  C   UNL     1     -10.164   8.660  68.397  1.00  0.00    -0.200 C  
HETATM   17  N   UNL     1      -9.418   7.809  69.345  1.00  0.00    -0.156 NA 
HETATM   18  C   UNL     1      -8.114   8.426  69.645  1.00  0.00    -0.115 C  
HETATM   19  C   UNL     1      -8.190   9.918  70.039  1.00  0.00    -0.168 C  
BRANCH  17  20
HETATM   20  C   UNL     1     -10.179   7.507  70.565  1.00  0.00    -0.201 C  
BRANCH  20  21
HETATM   21  C   UNL     1     -10.999   6.216  70.429  1.00  0.00    -0.404 C  
BRANCH  21  22
HETATM   22  C   UNL     1     -10.486   5.256  69.342  1.00  0.00    -0.284 C  
HETATM   23  C   UNL     1      -9.057   4.704  69.585  1.00  0.00    -0.163 C  
HETATM   24  C   UNL     1      -8.499   3.931  68.388  1.00  0.00    -0.107 A  
HETATM   25  C   UNL     1      -9.009   3.906  70.886  1.00  0.00    -0.157 A  
HETATM   26  C   UNL     1      -9.758   2.727  71.039  1.00  0.00    -0.160 A  
HETATM   27  C   UNL     1      -7.109   3.922  68.166  1.00  0.00    -0.051 A  
HETATM   28  C   UNL     1      -6.568   3.272  67.054  1.00  0.00    -0.037 A  
HETATM   29  C   UNL     1      -9.814   2.076  72.271  1.00  0.00    -0.207 A  
HETATM   30  C   UNL     1      -7.412   2.620  66.164  1.00  0.00    -0.068 A  
HETATM   31  C   UNL     1      -9.115   2.594  73.352  1.00  0.00    -0.084 A  
HETATM   32  F   UNL     1      -9.194   1.983  74.541  1.00  0.00    -0.073 F  
HETATM   33  C   UNL     1      -8.347   3.744  73.222  1.00  0.00    -0.087 A  
HETATM   34  F   UNL     1      -6.896   2.011  65.088  1.00  0.00    -0.034 F  
HETATM   35  C   UNL     1      -8.783   2.595  66.371  1.00  0.00    -0.124 A  
HETATM   36  C   UNL     1      -9.324   3.243  67.481  1.00  0.00    -0.250 A  
HETATM   37  C   UNL     1      -8.287   4.398  71.990  1.00  0.00    -0.111 A  
ENDBRANCH  21  22
ENDBRANCH  20  21
ENDBRANCH  17  20
ENDBRANCH  13  14
ENDBRANCH  10  13
ENDBRANCH   8   9
TORSDOF 6
ENDMDL
MODEL      156
REMARK 921   NORMALIZED FREE ENERGY PREDICTED BY IDOCK:   -4.37 KCAL/MOL
REMARK 922        TOTAL FREE ENERGY PREDICTED BY IDOCK:   -7.17 KCAL/MOL
REMARK 923 INTER-LIGAND FREE ENERGY PREDICTED BY IDOCK:   -6.00 KCAL/MOL
REMARK 924 INTRA-LIGAND FREE ENERGY PREDICTED BY IDOCK:   -1.17 KCAL/MOL
REMARK 927      BINDING AFFINITY PREDICTED BY RF-SCORE:    0.00 PKD
ROOT
HETATM    1  C   UNL     1     -12.083  13.813  63.458  1.00  0.00    -0.241 C  
HETATM    2  C   UNL     1     -11.594  13.710  64.879  1.00  0.00    -0.360 A  
HETATM    3  C   UNL     1     -12.415  14.277  65.874  1.00  0.00    -0.404 A  
HETATM    4  C   UNL     1     -12.005  14.328  67.201  1.00  0.00    -0.449 A  
HETATM    5  C   UNL     1     -10.752  13.840  67.549  1.00  0.00    -0.262 A  
HETATM    6  C   UNL     1      -9.904  13.267  66.582  1.00  0.00    -0.276 A  
HETATM    7  C   UNL     1      -8.567  12.747  67.040  1.00  0.00    -0.177 C  
HETATM    8  C   UNL     1     -10.347  13.148  65.243  1.00  0.00    -0.305 A  
ENDROOT
BRANCH   8   9
HETATM    9  N   UNL     1      -9.500  12.490  64.307  1.00  0.00    -0.341 N  
HETATM   10  C   UNL     1      -9.780  11.244  63.768  1.00  0.00    -0.298 C  
HETATM   11  H   UNL     1      -8.642  12.959  64.019  1.00  0.00     0.000 HD 
HETATM   12  O   UNL     1     -10.774  10.570  64.032  1.00  0.00    -0.012 OA 
BRANCH  10  13
HETATM   13  C   UNL     1      -8.675  10.628  62.898  1.00  0.00    -0.222 C  
BRANCH  13  14
HETATM   14  N   UNL     1      -8.371   9.200  63.170  1.00  0.00    -0.183 NA 
HETATM   15  C   UNL     1      -6.998   8.893  62.679  1.00  0.00    -0.093 C  
HETATM   16  C   UNL     1      -5.829   9.456  63.536  1.00  0.00    -0.089 C  
HETATM   17  N   UNL     1      -5.921   9.182  64.984  1.00  0.00    -0.063 NA 
HETATM   18  C   UNL     1      -7.278   9.496  65.463  1.00  0.00    -0.091 C  
HETATM   19  C   UNL     1      -8.412   8.879  64.615  1.00  0.00    -0.168 C  
BRANCH  17  20
HETATM   20  C   UNL     1      -5.516   7.814  65.334  1.00  0.00    -0.033 C  
BRANCH  20  21
HETATM   21  C   UNL     1      -5.578   7.563  66.848  1.00  0.00    -0.027 C  
BRANCH  21  22
HETATM   22  C   UNL     1      -6.459   6.369  67.253  1.00  0.00    -0.052 C  
HETATM   23  C   UNL     1      -7.009   6.430  68.703  1.00  0.00    -0.080 C  
HETATM   24  C   UNL     1      -7.695   5.135  69.141  1.00  0.00    -0.080 A  
HETATM   25  C   UNL     1      -7.888   7.664  68.888  1.00  0.00    -0.123 A  
HETATM   26  C   UNL     1      -9.083   7.815  68.164  1.00  0.00    -0.129 A  
HETATM   27  C   UNL     1      -7.673   4.773  70.501  1.00  0.00    -0.058 A  
HETATM   28  C   UNL     1      -8.242   3.572  70.930  1.00  0.00    -0.080 A  
HETATM   29  C   UNL     1      -9.814   9.000  68.237  1.00  0.00    -0.186 A  
HETATM   30  C   UNL     1      -8.846   2.730  70.003  1.00  0.00    -0.084 A  
HETATM   31  C   UNL     1      -9.358  10.037  69.039  1.00  0.00    -0.181 A  
HETATM   32  F   UNL     1     -10.046  11.185  69.085  1.00  0.00    -0.214 F  
HETATM   33  C   UNL     1      -8.193   9.905  69.784  1.00  0.00    -0.191 A  
HETATM   34  F   UNL     1      -9.378   1.571  70.411  1.00  0.00    -0.127 F  
HETATM   35  C   UNL     1      -8.901   3.073  68.661  1.00  0.00    -0.167 A  
HETATM   36  C   UNL     1      -8.333   4.272  68.232  1.00  0.00    -0.098 A  
HETATM   37  C   UNL     1      -7.460   8.720  69.715  1.00  0.00    -0.056 A  
ENDBRANCH  21  22
ENDBRANCH  20  21
ENDBRANCH  17  20
ENDBRANCH  13  14
ENDBRANCH  10  13
ENDBRANCH   8   9
TORSDOF 6
ENDMDL
MODEL      157
REMARK 921   NORMALIZED FREE ENERGY PREDICTED BY IDOCK:   -4.36 KCAL/MOL
REMARK 922        TOTAL FREE ENERGY PREDICTED BY IDOCK:   -7.17 KCAL/MOL
REMARK 923 INTER-LIGAND FREE ENERGY PREDICTED BY IDOCK:   -6.55 KCAL/MOL
REMARK 924 INTRA-LIGAND FREE ENERGY PREDICTED BY IDOCK:   -0.62 KCAL/MOL
REMARK 927      BINDING AFFINITY PREDICTED BY RF-SCORE:    0.00 PKD
ROOT
HETATM    1  C   UNL     1      -8.257   7.034  66.236  1.00  0.00    -0.120 C  
HETATM    2  C   UNL     1      -8.486   5.681  66.855  1.00  0.00    -0.111 A  
HETATM    3  C   UNL     1      -9.173   4.733  66.070  1.00  0.00    -0.148 A  
HETATM    4  C   UNL     1      -9.527   3.493  66.588  1.00  0.00    -0.179 A  
HETATM    5  C   UNL     1      -9.227   3.191  67.910  1.00  0.00    -0.243 A  
HETATM    6  C   UNL     1      -8.542   4.114  68.724  1.00  0.00    -0.112 A  
HETATM    7  C   UNL     1      -8.240   3.707  70.143  1.00  0.00    -0.070 C  
HETATM    8  C   UNL     1      -8.116   5.349  68.181  1.00  0.00    -0.095 A  
ENDROOT
BRANCH   8   9
HETATM    9  N   UNL     1      -7.355   6.223  69.006  1.00  0.00    -0.083 N  
HETATM   10  C   UNL     1      -7.909   7.274  69.722  1.00  0.00    -0.117 C  
HETATM   11  H   UNL     1      -6.349   6.069  69.075  1.00  0.00     0.000 HD 
HETATM   12  O   UNL     1      -9.102   7.571  69.725  1.00  0.00    -0.141 OA 
BRANCH  10  13
HETATM   13  C   UNL     1      -6.911   8.200  70.430  1.00  0.00    -0.037 C  
BRANCH  13  14
HETATM   14  N   UNL     1      -5.960   8.914  69.540  1.00  0.00    -0.036 NA 
HETATM   15  C   UNL     1      -6.697   9.424  68.350  1.00  0.00    -0.058 C  
HETATM   16  C   UNL     1      -7.615  10.654  68.597  1.00  0.00    -0.103 C  
HETATM   17  N   UNL     1      -6.984  11.777  69.319  1.00  0.00    -0.095 NA 
HETATM   18  C   UNL     1      -6.265  11.265  70.499  1.00  0.00     0.008 C  
HETATM   19  C   UNL     1      -5.325  10.075  70.206  1.00  0.00    -0.044 C  
BRANCH  17  20
HETATM   20  C   UNL     1      -6.119  12.597  68.460  1.00  0.00    -0.062 C  
BRANCH  20  21
HETATM   21  C   UNL     1      -6.929  13.445  67.468  1.00  0.00    -0.153 C  
BRANCH  21  22
HETATM   22  C   UNL     1      -6.995  14.939  67.824  1.00  0.00    -0.193 C  
HETATM   23  C   UNL     1      -7.745  15.821  66.790  1.00  0.00    -0.216 C  
HETATM   24  C   UNL     1      -7.605  17.320  67.064  1.00  0.00    -0.228 A  
HETATM   25  C   UNL     1      -9.198  15.370  66.661  1.00  0.00    -0.303 A  
HETATM   26  C   UNL     1     -10.082  15.460  67.750  1.00  0.00    -0.227 A  
HETATM   27  C   UNL     1      -7.640  18.221  65.982  1.00  0.00    -0.229 A  
HETATM   28  C   UNL     1      -7.462  19.591  66.188  1.00  0.00    -0.303 A  
HETATM   29  C   UNL     1     -11.368  14.926  67.667  1.00  0.00    -0.348 A  
HETATM   30  C   UNL     1      -7.258  20.069  67.477  1.00  0.00    -0.277 A  
HETATM   31  C   UNL     1     -11.779  14.309  66.494  1.00  0.00    -0.394 A  
HETATM   32  F   UNL     1     -13.003  13.771  66.426  1.00  0.00    -0.342 F  
HETATM   33  C   UNL     1     -10.933  14.228  65.394  1.00  0.00    -0.335 A  
HETATM   34  F   UNL     1      -7.072  21.381  67.673  1.00  0.00    -0.391 F  
HETATM   35  C   UNL     1      -7.241  19.206  68.562  1.00  0.00    -0.342 A  
HETATM   36  C   UNL     1      -7.419  17.838  68.358  1.00  0.00    -0.263 A  
HETATM   37  C   UNL     1      -9.646  14.762  65.473  1.00  0.00    -0.159 A  
ENDBRANCH  21  22
ENDBRANCH  20  21
ENDBRANCH  17  20
ENDBRANCH  13  14
ENDBRANCH  10  13
ENDBRANCH   8   9
TORSDOF 6
ENDMDL
MODEL      158
REMARK 921   NORMALIZED FREE ENERGY PREDICTED BY IDOCK:   -4.36 KCAL/MOL
REMARK 922        TOTAL FREE ENERGY PREDICTED BY IDOCK:   -7.16 KCAL/MOL
REMARK 923 INTER-LIGAND FREE ENERGY PREDICTED BY IDOCK:   -7.20 KCAL/MOL
REMARK 924 INTRA-LIGAND FREE ENERGY PREDICTED BY IDOCK:    0.04 KCAL/MOL
REMARK 927      BINDING AFFINITY PREDICTED BY RF-SCORE:    0.00 PKD
ROOT
HETATM    1  C   UNL     1      -7.140   4.328  65.237  1.00  0.00    -0.063 C  
HETATM    2  C   UNL     1      -6.633   4.951  66.511  1.00  0.00    -0.046 A  
HETATM    3  C   UNL     1      -6.270   4.067  67.547  1.00  0.00    -0.036 A  
HETATM    4  C   UNL     1      -5.891   4.542  68.797  1.00  0.00    -0.025 A  
HETATM    5  C   UNL     1      -5.897   5.909  69.041  1.00  0.00    -0.016 A  
HETATM    6  C   UNL     1      -6.255   6.822  68.030  1.00  0.00    -0.033 A  
HETATM    7  C   UNL     1      -6.224   8.289  68.368  1.00  0.00    -0.050 C  
HETATM    8  C   UNL     1      -6.572   6.347  66.736  1.00  0.00    -0.051 A  
ENDROOT
BRANCH   8   9
HETATM    9  N   UNL     1      -6.848   7.300  65.715  1.00  0.00    -0.055 N  
HETATM   10  C   UNL     1      -8.127   7.582  65.259  1.00  0.00    -0.130 C  
HETATM   11  H   UNL     1      -6.065   7.802  65.297  1.00  0.00     0.000 HD 
HETATM   12  O   UNL     1      -9.155   7.049  65.672  1.00  0.00    -0.027 OA 
BRANCH  10  13
HETATM   13  C   UNL     1      -8.213   8.523  64.049  1.00  0.00    -0.131 C  
BRANCH  13  14
HETATM   14  N   UNL     1      -7.944   9.956  64.334  1.00  0.00    -0.139 NA 
HETATM   15  C   UNL     1      -8.503  10.785  63.231  1.00  0.00    -0.066 C  
HETATM   16  C   UNL     1     -10.051  10.930  63.207  1.00  0.00    -0.312 C  
HETATM   17  N   UNL     1     -10.667  11.319  64.492  1.00  0.00    -0.336 NA 
HETATM   18  C   UNL     1     -10.116  10.488  65.577  1.00  0.00    -0.283 C  
HETATM   19  C   UNL     1      -8.573  10.408  65.598  1.00  0.00    -0.167 C  
BRANCH  17  20
HETATM   20  C   UNL     1     -10.539  12.754  64.778  1.00  0.00    -0.327 C  
BRANCH  20  21
HETATM   21  C   UNL     1     -11.750  13.299  65.549  1.00  0.00    -0.376 C  
BRANCH  21  22
HETATM   22  C   UNL     1     -12.001  12.606  66.898  1.00  0.00    -0.345 C  
HETATM   23  C   UNL     1     -10.721  12.310  67.724  1.00  0.00    -0.246 C  
HETATM   24  C   UNL     1     -10.985  11.433  68.950  1.00  0.00    -0.276 A  
HETATM   25  C   UNL     1      -9.994  13.608  68.064  1.00  0.00    -0.247 A  
HETATM   26  C   UNL     1     -10.596  14.580  68.882  1.00  0.00    -0.249 A  
HETATM   27  C   UNL     1      -9.968  10.577  69.413  1.00  0.00    -0.220 A  
HETATM   28  C   UNL     1     -10.191   9.723  70.496  1.00  0.00    -0.321 A  
HETATM   29  C   UNL     1      -9.985  15.818  69.081  1.00  0.00    -0.241 A  
HETATM   30  C   UNL     1     -11.428   9.727  71.128  1.00  0.00    -0.398 A  
HETATM   31  C   UNL     1      -8.767  16.087  68.472  1.00  0.00    -0.195 A  
HETATM   32  F   UNL     1      -8.197  17.286  68.641  1.00  0.00    -0.236 F  
HETATM   33  C   UNL     1      -8.139  15.135  67.679  1.00  0.00    -0.177 A  
HETATM   34  F   UNL     1     -11.649   8.898  72.156  1.00  0.00    -0.396 F  
HETATM   35  C   UNL     1     -12.440  10.576  70.706  1.00  0.00    -0.472 A  
HETATM   36  C   UNL     1     -12.218  11.429  69.625  1.00  0.00    -0.316 A  
HETATM   37  C   UNL     1      -8.747  13.894  67.478  1.00  0.00    -0.194 A  
ENDBRANCH  21  22
ENDBRANCH  20  21
ENDBRANCH  17  20
ENDBRANCH  13  14
ENDBRANCH  10  13
ENDBRANCH   8   9
TORSDOF 6
ENDMDL
MODEL      159
REMARK 921   NORMALIZED FREE ENERGY PREDICTED BY IDOCK:   -4.33 KCAL/MOL
REMARK 922        TOTAL FREE ENERGY PREDICTED BY IDOCK:   -7.11 KCAL/MOL
REMARK 923 INTER-LIGAND FREE ENERGY PREDICTED BY IDOCK:   -7.95 KCAL/MOL
REMARK 924 INTRA-LIGAND FREE ENERGY PREDICTED BY IDOCK:    0.83 KCAL/MOL
REMARK 927      BINDING AFFINITY PREDICTED BY RF-SCORE:    0.00 PKD
ROOT
HETATM    1  C   UNL     1     -10.884  13.392  67.167  1.00  0.00    -0.284 C  
HETATM    2  C   UNL     1     -10.956  14.548  68.130  1.00  0.00    -0.261 A  
HETATM    3  C   UNL     1     -10.722  15.832  67.597  1.00  0.00    -0.310 A  
HETATM    4  C   UNL     1     -10.661  16.951  68.418  1.00  0.00    -0.368 A  
HETATM    5  C   UNL     1     -10.804  16.801  69.792  1.00  0.00    -0.156 A  
HETATM    6  C   UNL     1     -11.038  15.534  70.360  1.00  0.00    -0.357 A  
HETATM    7  C   UNL     1     -11.196  15.454  71.856  1.00  0.00    -0.378 C  
HETATM    8  C   UNL     1     -11.172  14.402  69.521  1.00  0.00    -0.254 A  
ENDROOT
BRANCH   8   9
HETATM    9  N   UNL     1     -11.491  13.151  70.120  1.00  0.00    -0.516 N  
HETATM   10  C   UNL     1     -12.701  12.889  70.745  1.00  0.00    -0.149 C  
HETATM   11  H   UNL     1     -10.793  12.408  70.089  1.00  0.00     0.000 HD 
HETATM   12  O   UNL     1     -13.624  13.694  70.856  1.00  0.00     0.003 OA 
BRANCH  10  13
HETATM   13  C   UNL     1     -12.802  11.538  71.467  1.00  0.00    -0.380 C  
BRANCH  13  14
HETATM   14  N   UNL     1     -12.667  10.340  70.600  1.00  0.00    -0.322 NA 
HETATM   15  C   UNL     1     -11.242   9.904  70.592  1.00  0.00    -0.344 C  
HETATM   16  C   UNL     1     -10.738   9.205  71.886  1.00  0.00    -0.264 C  
HETATM   17  N   UNL     1     -11.597   8.113  72.386  1.00  0.00    -0.377 NA 
HETATM   18  C   UNL     1     -13.002   8.555  72.400  1.00  0.00    -0.307 C  
HETATM   19  C   UNL     1     -13.481   9.200  71.081  1.00  0.00    -0.134 C  
BRANCH  17  20
HETATM   20  C   UNL     1     -11.421   6.859  71.643  1.00  0.00    -0.275 C  
BRANCH  20  21
HETATM   21  C   UNL     1     -10.063   6.798  70.928  1.00  0.00    -0.207 C  
BRANCH  21  22
HETATM   22  C   UNL     1     -10.056   7.447  69.533  1.00  0.00    -0.187 C  
HETATM   23  C   UNL     1      -8.799   7.135  68.679  1.00  0.00    -0.126 C  
HETATM   24  C   UNL     1      -8.723   7.965  67.395  1.00  0.00    -0.128 A  
HETATM   25  C   UNL     1      -8.684   5.634  68.428  1.00  0.00    -0.109 A  
HETATM   26  C   UNL     1      -9.662   4.948  67.687  1.00  0.00    -0.197 A  
HETATM   27  C   UNL     1      -7.462   8.293  66.863  1.00  0.00    -0.088 A  
HETATM   28  C   UNL     1      -7.354   9.093  65.723  1.00  0.00    -0.090 A  
HETATM   29  C   UNL     1      -9.623   3.559  67.573  1.00  0.00    -0.177 A  
HETATM   30  C   UNL     1      -8.505   9.560  65.103  1.00  0.00    -0.149 A  
HETATM   31  C   UNL     1      -8.603   2.850  68.190  1.00  0.00    -0.090 A  
HETATM   32  F   UNL     1      -8.583   1.514  68.104  1.00  0.00    -0.066 F  
HETATM   33  C   UNL     1      -7.609   3.505  68.908  1.00  0.00    -0.052 A  
HETATM   34  F   UNL     1      -8.402  10.341  64.019  1.00  0.00    -0.151 F  
HETATM   35  C   UNL     1      -9.761   9.234  65.593  1.00  0.00    -0.302 A  
HETATM   36  C   UNL     1      -9.870   8.435  66.731  1.00  0.00    -0.329 A  
HETATM   37  C   UNL     1      -7.644   4.895  69.023  1.00  0.00    -0.068 A  
ENDBRANCH  21  22
ENDBRANCH  20  21
ENDBRANCH  17  20
ENDBRANCH  13  14
ENDBRANCH  10  13
ENDBRANCH   8   9
TORSDOF 6
ENDMDL
MODEL      160
REMARK 921   NORMALIZED FREE ENERGY PREDICTED BY IDOCK:   -4.32 KCAL/MOL
REMARK 922        TOTAL FREE ENERGY PREDICTED BY IDOCK:   -7.10 KCAL/MOL
REMARK 923 INTER-LIGAND FREE ENERGY PREDICTED BY IDOCK:   -6.56 KCAL/MOL
REMARK 924 INTRA-LIGAND FREE ENERGY PREDICTED BY IDOCK:   -0.55 KCAL/MOL
REMARK 927      BINDING AFFINITY PREDICTED BY RF-SCORE:    0.00 PKD
ROOT
HETATM    1  C   UNL     1     -10.019   3.384  64.662  1.00  0.00    -0.117 C  
HETATM    2  C   UNL     1      -8.522   3.225  64.720  1.00  0.00    -0.098 A  
HETATM    3  C   UNL     1      -7.910   2.591  63.620  1.00  0.00    -0.069 A  
HETATM    4  C   UNL     1      -6.551   2.302  63.623  1.00  0.00    -0.030 A  
HETATM    5  C   UNL     1      -5.786   2.616  64.740  1.00  0.00    -0.013 A  
HETATM    6  C   UNL     1      -6.364   3.249  65.857  1.00  0.00    -0.032 A  
HETATM    7  C   UNL     1      -5.467   3.569  67.023  1.00  0.00    -0.020 C  
HETATM    8  C   UNL     1      -7.732   3.610  65.829  1.00  0.00    -0.085 A  
ENDROOT
BRANCH   8   9
HETATM    9  N   UNL     1      -8.265   4.323  66.940  1.00  0.00    -0.101 N  
HETATM   10  C   UNL     1      -8.812   3.703  68.053  1.00  0.00    -0.116 C  
HETATM   11  H   UNL     1      -8.243   5.342  66.916  1.00  0.00     0.000 HD 
HETATM   12  O   UNL     1      -8.903   2.487  68.209  1.00  0.00    -0.091 OA 
BRANCH  10  13
HETATM   13  C   UNL     1      -9.476   4.635  69.078  1.00  0.00    -0.155 C  
BRANCH  13  14
HETATM   14  N   UNL     1     -10.070   5.876  68.520  1.00  0.00    -0.154 NA 
HETATM   15  C   UNL     1     -11.391   6.117  69.166  1.00  0.00    -0.232 C  
HETATM   16  C   UNL     1     -11.345   6.626  70.635  1.00  0.00    -0.347 C  
HETATM   17  N   UNL     1     -10.448   7.774  70.875  1.00  0.00    -0.205 NA 
HETATM   18  C   UNL     1      -9.142   7.524  70.241  1.00  0.00    -0.154 C  
HETATM   19  C   UNL     1      -9.226   7.068  68.767  1.00  0.00    -0.132 C  
BRANCH  17  20
HETATM   20  C   UNL     1     -11.030   9.054  70.452  1.00  0.00    -0.247 C  
BRANCH  20  21
HETATM   21  C   UNL     1     -10.050   9.885  69.612  1.00  0.00    -0.254 C  
BRANCH  21  22
HETATM   22  C   UNL     1     -10.534  11.313  69.309  1.00  0.00    -0.145 C  
HETATM   23  C   UNL     1      -9.577  12.147  68.416  1.00  0.00    -0.186 C  
HETATM   24  C   UNL     1      -9.980  13.620  68.314  1.00  0.00    -0.236 A  
HETATM   25  C   UNL     1      -9.403  11.480  67.054  1.00  0.00    -0.185 A  
HETATM   26  C   UNL     1     -10.492  11.331  66.178  1.00  0.00    -0.305 A  
HETATM   27  C   UNL     1      -8.980  14.593  68.123  1.00  0.00    -0.179 A  
HETATM   28  C   UNL     1      -9.304  15.951  68.079  1.00  0.00    -0.201 A  
HETATM   29  C   UNL     1     -10.358  10.606  64.994  1.00  0.00    -0.341 A  
HETATM   30  C   UNL     1     -10.630  16.343  68.215  1.00  0.00    -0.318 A  
HETATM   31  C   UNL     1      -9.134  10.033  64.677  1.00  0.00    -0.237 A  
HETATM   32  F   UNL     1      -9.015   9.312  63.555  1.00  0.00    -0.231 F  
HETATM   33  C   UNL     1      -8.035  10.185  65.514  1.00  0.00    -0.146 A  
HETATM   34  F   UNL     1     -10.940  17.646  68.190  1.00  0.00    -0.361 F  
HETATM   35  C   UNL     1     -11.637  15.405  68.383  1.00  0.00    -0.368 A  
HETATM   36  C   UNL     1     -11.314  14.048  68.426  1.00  0.00    -0.321 A  
HETATM   37  C   UNL     1      -8.165  10.912  66.698  1.00  0.00    -0.145 A  
ENDBRANCH  21  22
ENDBRANCH  20  21
ENDBRANCH  17  20
ENDBRANCH  13  14
ENDBRANCH  10  13
ENDBRANCH   8   9
TORSDOF 6
ENDMDL
MODEL      161
REMARK 921   NORMALIZED FREE ENERGY PREDICTED BY IDOCK:   -4.30 KCAL/MOL
REMARK 922        TOTAL FREE ENERGY PREDICTED BY IDOCK:   -7.08 KCAL/MOL
REMARK 923 INTER-LIGAND FREE ENERGY PREDICTED BY IDOCK:   -6.38 KCAL/MOL
REMARK 924 INTRA-LIGAND FREE ENERGY PREDICTED BY IDOCK:   -0.70 KCAL/MOL
REMARK 927      BINDING AFFINITY PREDICTED BY RF-SCORE:    0.00 PKD
ROOT
HETATM    1  C   UNL     1      -9.725  19.851  65.642  1.00  0.00    -0.096 C  
HETATM    2  C   UNL     1      -8.385  19.579  66.271  1.00  0.00    -0.359 A  
HETATM    3  C   UNL     1      -7.592  20.701  66.584  1.00  0.00    -0.197 A  
HETATM    4  C   UNL     1      -6.298  20.554  67.069  1.00  0.00    -0.278 A  
HETATM    5  C   UNL     1      -5.764  19.281  67.222  1.00  0.00    -0.171 A  
HETATM    6  C   UNL     1      -6.527  18.136  66.920  1.00  0.00    -0.205 A  
HETATM    7  C   UNL     1      -5.883  16.791  67.125  1.00  0.00    -0.206 C  
HETATM    8  C   UNL     1      -7.868  18.280  66.494  1.00  0.00    -0.252 A  
ENDROOT
BRANCH   8   9
HETATM    9  N   UNL     1      -8.637  17.101  66.276  1.00  0.00    -0.258 N  
HETATM   10  C   UNL     1      -9.695  16.719  67.087  1.00  0.00    -0.251 C  
HETATM   11  H   UNL     1      -8.397  16.507  65.483  1.00  0.00     0.000 HD 
HETATM   12  O   UNL     1     -10.085  17.339  68.074  1.00  0.00    -0.292 OA 
BRANCH  10  13
HETATM   13  C   UNL     1     -10.303  15.341  66.788  1.00  0.00    -0.279 C  
BRANCH  13  14
HETATM   14  N   UNL     1     -10.166  14.335  67.871  1.00  0.00    -0.234 NA 
HETATM   15  C   UNL     1     -11.523  13.940  68.343  1.00  0.00    -0.311 C  
HETATM   16  C   UNL     1     -12.332  13.017  67.389  1.00  0.00     0.120 C  
HETATM   17  N   UNL     1     -11.605  11.830  66.895  1.00  0.00    -0.548 NA 
HETATM   18  C   UNL     1     -10.268  12.230  66.422  1.00  0.00    -0.225 C  
HETATM   19  C   UNL     1      -9.475  13.106  67.417  1.00  0.00    -0.214 C  
BRANCH  17  20
HETATM   20  C   UNL     1     -11.538  10.746  67.884  1.00  0.00    -0.128 C  
BRANCH  20  21
HETATM   21  C   UNL     1     -10.621   9.602  67.426  1.00  0.00    -0.333 C  
BRANCH  21  22
HETATM   22  C   UNL     1      -9.925   8.855  68.576  1.00  0.00    -0.195 C  
HETATM   23  C   UNL     1      -9.250   7.519  68.167  1.00  0.00    -0.137 C  
HETATM   24  C   UNL     1      -8.759   6.702  69.364  1.00  0.00    -0.135 A  
HETATM   25  C   UNL     1      -8.160   7.770  67.128  1.00  0.00    -0.118 A  
HETATM   26  C   UNL     1      -7.024   8.535  67.442  1.00  0.00    -0.078 A  
HETATM   27  C   UNL     1      -8.725   5.298  69.268  1.00  0.00    -0.108 A  
HETATM   28  C   UNL     1      -8.334   4.517  70.358  1.00  0.00    -0.084 A  
HETATM   29  C   UNL     1      -6.098   8.871  66.455  1.00  0.00    -0.060 A  
HETATM   30  C   UNL     1      -7.966   5.135  71.547  1.00  0.00    -0.113 A  
HETATM   31  C   UNL     1      -6.299   8.438  65.152  1.00  0.00    -0.052 A  
HETATM   32  F   UNL     1      -5.425   8.786  64.200  1.00  0.00    -0.053 F  
HETATM   33  C   UNL     1      -7.401   7.659  64.819  1.00  0.00    -0.076 A  
HETATM   34  F   UNL     1      -7.606   4.387  72.598  1.00  0.00    -0.072 F  
HETATM   35  C   UNL     1      -7.969   6.517  71.661  1.00  0.00    -0.104 A  
HETATM   36  C   UNL     1      -8.359   7.297  70.573  1.00  0.00    -0.133 A  
HETATM   37  C   UNL     1      -8.329   7.320  65.805  1.00  0.00    -0.140 A  
ENDBRANCH  21  22
ENDBRANCH  20  21
ENDBRANCH  17  20
ENDBRANCH  13  14
ENDBRANCH  10  13
ENDBRANCH   8   9
TORSDOF 6
ENDMDL
MODEL      162
REMARK 921   NORMALIZED FREE ENERGY PREDICTED BY IDOCK:   -4.26 KCAL/MOL
REMARK 922        TOTAL FREE ENERGY PREDICTED BY IDOCK:   -7.02 KCAL/MOL
REMARK 923 INTER-LIGAND FREE ENERGY PREDICTED BY IDOCK:   -6.37 KCAL/MOL
REMARK 924 INTRA-LIGAND FREE ENERGY PREDICTED BY IDOCK:   -0.66 KCAL/MOL
REMARK 927      BINDING AFFINITY PREDICTED BY RF-SCORE:    0.00 PKD
ROOT
HETATM    1  C   UNL     1      -5.653   7.297  65.390  1.00  0.00    -0.033 C  
HETATM    2  C   UNL     1      -5.935   5.841  65.126  1.00  0.00    -0.025 A  
HETATM    3  C   UNL     1      -5.414   5.301  63.933  1.00  0.00    -0.013 A  
HETATM    4  C   UNL     1      -5.706   3.999  63.546  1.00  0.00    -0.014 A  
HETATM    5  C   UNL     1      -6.551   3.225  64.331  1.00  0.00    -0.035 A  
HETATM    6  C   UNL     1      -7.091   3.731  65.529  1.00  0.00    -0.063 A  
HETATM    7  C   UNL     1      -7.987   2.825  66.332  1.00  0.00    -0.081 C  
HETATM    8  C   UNL     1      -6.739   5.031  65.963  1.00  0.00    -0.053 A  
ENDROOT
BRANCH   8   9
HETATM    9  N   UNL     1      -7.236   5.481  67.219  1.00  0.00    -0.074 N  
HETATM   10  C   UNL     1      -6.430   5.694  68.327  1.00  0.00    -0.043 C  
HETATM   11  H   UNL     1      -8.236   5.655  67.309  1.00  0.00     0.000 HD 
HETATM   12  O   UNL     1      -5.214   5.520  68.357  1.00  0.00    -0.003 OA 
BRANCH  10  13
HETATM   13  C   UNL     1      -7.165   6.029  69.633  1.00  0.00    -0.074 C  
BRANCH  13  14
HETATM   14  N   UNL     1      -7.421   7.472  69.869  1.00  0.00    -0.082 NA 
HETATM   15  C   UNL     1      -8.119   8.043  68.684  1.00  0.00    -0.125 C  
HETATM   16  C   UNL     1      -9.617   7.655  68.526  1.00  0.00    -0.148 C  
HETATM   17  N   UNL     1     -10.445   7.835  69.735  1.00  0.00    -0.229 NA 
HETATM   18  C   UNL     1      -9.751   7.260  70.901  1.00  0.00    -0.170 C  
HETATM   19  C   UNL     1      -8.281   7.708  71.053  1.00  0.00    -0.107 C  
BRANCH  17  20
HETATM   20  C   UNL     1     -10.834   9.234  69.960  1.00  0.00    -0.238 C  
BRANCH  20  21
HETATM   21  C   UNL     1     -11.281   9.923  68.662  1.00  0.00    -0.122 C  
BRANCH  21  22
HETATM   22  C   UNL     1     -11.409  11.452  68.774  1.00  0.00    -0.334 C  
HETATM   23  C   UNL     1     -10.259  12.251  68.106  1.00  0.00    -0.212 C  
HETATM   24  C   UNL     1     -10.303  13.747  68.421  1.00  0.00    -0.247 A  
HETATM   25  C   UNL     1     -10.205  11.956  66.609  1.00  0.00    -0.236 A  
HETATM   26  C   UNL     1     -11.273  12.308  65.765  1.00  0.00    -0.378 A  
HETATM   27  C   UNL     1      -9.099  14.475  68.464  1.00  0.00    -0.190 A  
HETATM   28  C   UNL     1      -9.096  15.831  68.801  1.00  0.00    -0.213 A  
HETATM   29  C   UNL     1     -11.277  11.920  64.426  1.00  0.00    -0.401 A  
HETATM   30  C   UNL     1     -10.297  16.469  69.086  1.00  0.00    -0.316 A  
HETATM   31  C   UNL     1     -10.212  11.187  63.922  1.00  0.00    -0.362 A  
HETATM   32  F   UNL     1     -10.232  10.790  62.643  1.00  0.00    -0.267 F  
HETATM   33  C   UNL     1      -9.133  10.847  64.728  1.00  0.00    -0.197 A  
HETATM   34  F   UNL     1     -10.293  17.765  69.425  1.00  0.00    -0.352 F  
HETATM   35  C   UNL     1     -11.499  15.781  69.029  1.00  0.00    -0.394 A  
HETATM   36  C   UNL     1     -11.503  14.427  68.693  1.00  0.00    -0.316 A  
HETATM   37  C   UNL     1      -9.125  11.234  66.069  1.00  0.00    -0.221 A  
ENDBRANCH  21  22
ENDBRANCH  20  21
ENDBRANCH  17  20
ENDBRANCH  13  14
ENDBRANCH  10  13
ENDBRANCH   8   9
TORSDOF 6
ENDMDL
MODEL      163
REMARK 921   NORMALIZED FREE ENERGY PREDICTED BY IDOCK:   -4.23 KCAL/MOL
REMARK 922        TOTAL FREE ENERGY PREDICTED BY IDOCK:   -6.98 KCAL/MOL
REMARK 923 INTER-LIGAND FREE ENERGY PREDICTED BY IDOCK:   -6.78 KCAL/MOL
REMARK 924 INTRA-LIGAND FREE ENERGY PREDICTED BY IDOCK:   -0.21 KCAL/MOL
REMARK 927      BINDING AFFINITY PREDICTED BY RF-SCORE:    0.00 PKD
ROOT
HETATM    1  C   UNL     1      -8.988   4.350  66.080  1.00  0.00    -0.121 C  
HETATM    2  C   UNL     1      -8.429   4.815  67.399  1.00  0.00    -0.104 A  
HETATM    3  C   UNL     1      -8.158   3.818  68.358  1.00  0.00    -0.079 A  
HETATM    4  C   UNL     1      -7.740   4.151  69.641  1.00  0.00    -0.053 A  
HETATM    5  C   UNL     1      -7.616   5.488  69.996  1.00  0.00    -0.077 A  
HETATM    6  C   UNL     1      -7.879   6.511  69.065  1.00  0.00    -0.110 A  
HETATM    7  C   UNL     1      -7.709   7.936  69.521  1.00  0.00    -0.104 C  
HETATM    8  C   UNL     1      -8.235   6.176  67.737  1.00  0.00    -0.117 A  
ENDROOT
BRANCH   8   9
HETATM    9  N   UNL     1      -8.413   7.231  66.798  1.00  0.00    -0.118 N  
HETATM   10  C   UNL     1      -9.601   7.931  66.653  1.00  0.00    -0.226 C  
HETATM   11  H   UNL     1      -7.626   7.486  66.202  1.00  0.00     0.000 HD 
HETATM   12  O   UNL     1     -10.624   7.724  67.303  1.00  0.00    -0.295 OA 
BRANCH  10  13
HETATM   13  C   UNL     1      -9.652   8.927  65.485  1.00  0.00    -0.018 C  
BRANCH  13  14
HETATM   14  N   UNL     1      -9.270  10.322  65.821  1.00  0.00    -0.166 NA 
HETATM   15  C   UNL     1      -9.601  11.208  64.670  1.00  0.00    -0.250 C  
HETATM   16  C   UNL     1     -11.111  11.517  64.463  1.00  0.00    -0.273 C  
HETATM   17  N   UNL     1     -11.832  11.968  65.671  1.00  0.00    -0.447 NA 
HETATM   18  C   UNL     1     -11.506  11.082  66.802  1.00  0.00     0.182 C  
HETATM   19  C   UNL     1      -9.994  10.838  67.006  1.00  0.00    -0.197 C  
BRANCH  17  20
HETATM   20  C   UNL     1     -11.588  13.381  65.989  1.00  0.00    -0.344 C  
BRANCH  20  21
HETATM   21  C   UNL     1     -10.578  14.024  65.027  1.00  0.00    -0.426 C  
BRANCH  21  22
HETATM   22  C   UNL     1     -10.267  15.498  65.335  1.00  0.00    -0.409 C  
HETATM   23  C   UNL     1     -10.067  15.820  66.840  1.00  0.00    -0.267 C  
HETATM   24  C   UNL     1      -9.976  17.320  67.127  1.00  0.00    -0.282 A  
HETATM   25  C   UNL     1      -8.888  15.030  67.401  1.00  0.00    -0.202 A  
HETATM   26  C   UNL     1      -7.582  15.247  66.927  1.00  0.00    -0.051 A  
HETATM   27  C   UNL     1     -10.422  17.808  68.370  1.00  0.00    -0.351 A  
HETATM   28  C   UNL     1     -10.403  19.177  68.648  1.00  0.00    -0.311 A  
HETATM   29  C   UNL     1      -6.530  14.433  67.347  1.00  0.00     0.092 A  
HETATM   30  C   UNL     1      -9.929  20.064  67.689  1.00  0.00    -0.428 A  
HETATM   31  C   UNL     1      -6.775  13.406  68.247  1.00  0.00    -0.105 A  
HETATM   32  F   UNL     1      -5.769  12.608  68.626  1.00  0.00    -0.056 F  
HETATM   33  C   UNL     1      -8.052  13.186  68.750  1.00  0.00     0.073 A  
HETATM   34  F   UNL     1      -9.925  21.378  67.948  1.00  0.00    -0.310 F  
HETATM   35  C   UNL     1      -9.462  19.607  66.466  1.00  0.00    -0.472 A  
HETATM   36  C   UNL     1      -9.481  18.241  66.188  1.00  0.00    -0.165 A  
HETATM   37  C   UNL     1      -9.107  13.999  68.333  1.00  0.00    -0.191 A  
ENDBRANCH  21  22
ENDBRANCH  20  21
ENDBRANCH  17  20
ENDBRANCH  13  14
ENDBRANCH  10  13
ENDBRANCH   8   9
TORSDOF 6
ENDMDL
MODEL      164
REMARK 921   NORMALIZED FREE ENERGY PREDICTED BY IDOCK:   -4.20 KCAL/MOL
REMARK 922        TOTAL FREE ENERGY PREDICTED BY IDOCK:   -6.95 KCAL/MOL
REMARK 923 INTER-LIGAND FREE ENERGY PREDICTED BY IDOCK:   -7.01 KCAL/MOL
REMARK 924 INTRA-LIGAND FREE ENERGY PREDICTED BY IDOCK:    0.06 KCAL/MOL
REMARK 927      BINDING AFFINITY PREDICTED BY RF-SCORE:    0.00 PKD
ROOT
HETATM    1  C   UNL     1     -11.570  10.003  70.433  1.00  0.00    -0.379 C  
HETATM    2  C   UNL     1     -11.640   8.553  70.834  1.00  0.00    -0.295 A  
HETATM    3  C   UNL     1     -12.883   8.086  71.307  1.00  0.00    -0.221 A  
HETATM    4  C   UNL     1     -13.025   6.794  71.799  1.00  0.00    -0.274 A  
HETATM    5  C   UNL     1     -11.917   5.957  71.854  1.00  0.00    -0.069 A  
HETATM    6  C   UNL     1     -10.660   6.390  71.391  1.00  0.00    -0.274 A  
HETATM    7  C   UNL     1      -9.511   5.419  71.472  1.00  0.00    -0.185 C  
HETATM    8  C   UNL     1     -10.527   7.679  70.823  1.00  0.00    -0.210 A  
ENDROOT
BRANCH   8   9
HETATM    9  N   UNL     1      -9.262   8.054  70.289  1.00  0.00    -0.154 N  
HETATM   10  C   UNL     1      -8.917   7.891  68.956  1.00  0.00    -0.145 C  
HETATM   11  H   UNL     1      -8.573   8.464  70.920  1.00  0.00     0.000 HD 
HETATM   12  O   UNL     1      -9.648   7.409  68.094  1.00  0.00    -0.141 OA 
BRANCH  10  13
HETATM   13  C   UNL     1      -7.458   8.210  68.599  1.00  0.00    -0.098 C  
BRANCH  13  14
HETATM   14  N   UNL     1      -6.823   9.281  69.408  1.00  0.00    -0.048 NA 
HETATM   15  C   UNL     1      -5.896  10.061  68.541  1.00  0.00    -0.041 C  
HETATM   16  C   UNL     1      -6.569  11.026  67.524  1.00  0.00    -0.068 C  
HETATM   17  N   UNL     1      -7.601  11.918  68.090  1.00  0.00    -0.113 NA 
HETATM   18  C   UNL     1      -8.518  11.138  68.938  1.00  0.00    -0.092 C  
HETATM   19  C   UNL     1      -7.815  10.228  69.970  1.00  0.00    -0.038 C  
BRANCH  17  20
HETATM   20  C   UNL     1      -7.034  13.070  68.804  1.00  0.00    -0.103 C  
BRANCH  20  21
HETATM   21  C   UNL     1      -7.997  14.266  68.827  1.00  0.00    -0.119 C  
BRANCH  21  22
HETATM   22  C   UNL     1      -8.910  14.362  67.593  1.00  0.00    -0.193 C  
HETATM   23  C   UNL     1     -10.270  13.627  67.733  1.00  0.00    -0.242 C  
HETATM   24  C   UNL     1     -11.055  13.560  66.422  1.00  0.00    -0.311 A  
HETATM   25  C   UNL     1     -11.079  14.218  68.885  1.00  0.00    -0.283 A  
HETATM   26  C   UNL     1     -11.522  15.552  68.847  1.00  0.00    -0.362 A  
HETATM   27  C   UNL     1     -11.914  12.469  66.192  1.00  0.00    -0.432 A  
HETATM   28  C   UNL     1     -12.606  12.347  64.985  1.00  0.00    -0.305 A  
HETATM   29  C   UNL     1     -12.145  16.125  69.955  1.00  0.00     0.023 A  
HETATM   30  C   UNL     1     -12.451  13.319  64.005  1.00  0.00    -0.257 A  
HETATM   31  C   UNL     1     -12.335  15.368  71.102  1.00  0.00    -0.385 A  
HETATM   32  F   UNL     1     -12.907  15.929  72.175  1.00  0.00    -0.433 F  
HETATM   33  C   UNL     1     -11.929  14.040  71.158  1.00  0.00    -0.257 A  
HETATM   34  F   UNL     1     -13.101  13.195  62.841  1.00  0.00     0.124 F  
HETATM   35  C   UNL     1     -11.629  14.416  64.214  1.00  0.00    -0.279 A  
HETATM   36  C   UNL     1     -10.937  14.539  65.419  1.00  0.00    -0.346 A  
HETATM   37  C   UNL     1     -11.306  13.462  70.050  1.00  0.00    -0.009 A  
ENDBRANCH  21  22
ENDBRANCH  20  21
ENDBRANCH  17  20
ENDBRANCH  13  14
ENDBRANCH  10  13
ENDBRANCH   8   9
TORSDOF 6
ENDMDL
MODEL      165
REMARK 921   NORMALIZED FREE ENERGY PREDICTED BY IDOCK:   -4.14 KCAL/MOL
REMARK 922        TOTAL FREE ENERGY PREDICTED BY IDOCK:   -6.87 KCAL/MOL
REMARK 923 INTER-LIGAND FREE ENERGY PREDICTED BY IDOCK:   -6.23 KCAL/MOL
REMARK 924 INTRA-LIGAND FREE ENERGY PREDICTED BY IDOCK:   -0.64 KCAL/MOL
REMARK 927      BINDING AFFINITY PREDICTED BY RF-SCORE:    0.00 PKD
ROOT
HETATM    1  C   UNL     1      -7.620  12.695  68.122  1.00  0.00    -0.132 C  
HETATM    2  C   UNL     1      -7.369  11.419  68.880  1.00  0.00    -0.114 A  
HETATM    3  C   UNL     1      -6.286  11.421  69.783  1.00  0.00    -0.139 A  
HETATM    4  C   UNL     1      -5.907  10.263  70.452  1.00  0.00    -0.087 A  
HETATM    5  C   UNL     1      -6.585   9.076  70.206  1.00  0.00    -0.045 A  
HETATM    6  C   UNL     1      -7.671   9.036  69.311  1.00  0.00    -0.090 A  
HETATM    7  C   UNL     1      -8.365   7.715  69.109  1.00  0.00    -0.131 C  
HETATM    8  C   UNL     1      -8.107  10.227  68.682  1.00  0.00    -0.114 A  
ENDROOT
BRANCH   8   9
HETATM    9  N   UNL     1      -9.258  10.168  67.848  1.00  0.00    -0.137 N  
HETATM   10  C   UNL     1      -9.222   9.759  66.523  1.00  0.00    -0.156 C  
HETATM   11  H   UNL     1     -10.158  10.440  68.245  1.00  0.00     0.000 HD 
HETATM   12  O   UNL     1      -8.208   9.410  65.923  1.00  0.00    -0.112 OA 
BRANCH  10  13
HETATM   13  C   UNL     1     -10.534   9.910  65.741  1.00  0.00     0.037 C  
BRANCH  13  14
HETATM   14  N   UNL     1     -10.482  10.837  64.582  1.00  0.00    -0.329 NA 
HETATM   15  C   UNL     1     -11.802  11.513  64.440  1.00  0.00     0.020 C  
HETATM   16  C   UNL     1     -12.118  12.614  65.492  1.00  0.00    -0.458 C  
HETATM   17  N   UNL     1     -11.055  13.619  65.690  1.00  0.00    -0.293 NA 
HETATM   18  C   UNL     1      -9.755  12.943  65.838  1.00  0.00    -0.184 C  
HETATM   19  C   UNL     1      -9.455  11.892  64.747  1.00  0.00     0.048 C  
BRANCH  17  20
HETATM   20  C   UNL     1     -11.028  14.640  64.634  1.00  0.00    -0.325 C  
BRANCH  20  21
HETATM   21  C   UNL     1     -11.216  16.057  65.196  1.00  0.00    -0.193 C  
BRANCH  21  22
HETATM   22  C   UNL     1      -9.954  16.650  65.844  1.00  0.00    -0.320 C  
HETATM   23  C   UNL     1     -10.184  17.311  67.229  1.00  0.00    -0.320 C  
HETATM   24  C   UNL     1      -8.962  18.075  67.741  1.00  0.00    -0.255 A  
HETATM   25  C   UNL     1     -10.710  16.284  68.228  1.00  0.00    -0.322 A  
HETATM   26  C   UNL     1      -9.927  15.181  68.609  1.00  0.00    -0.220 A  
HETATM   27  C   UNL     1      -9.152  19.194  68.575  1.00  0.00    -0.416 A  
HETATM   28  C   UNL     1      -8.063  19.947  69.018  1.00  0.00    -0.031 A  
HETATM   29  C   UNL     1     -10.460  14.178  69.419  1.00  0.00    -0.000 A  
HETATM   30  C   UNL     1      -6.777  19.581  68.639  1.00  0.00    -0.297 A  
HETATM   31  C   UNL     1     -11.772  14.277  69.858  1.00  0.00    -0.311 A  
HETATM   32  F   UNL     1     -12.291  13.298  70.611  1.00  0.00    -0.390 F  
HETATM   33  C   UNL     1     -12.560  15.369  69.516  1.00  0.00    -0.006 A  
HETATM   34  F   UNL     1      -5.733  20.312  69.051  1.00  0.00    -0.253 F  
HETATM   35  C   UNL     1      -6.560  18.471  67.837  1.00  0.00    -0.212 A  
HETATM   36  C   UNL     1      -7.647  17.718  67.394  1.00  0.00    -0.213 A  
HETATM   37  C   UNL     1     -12.030  16.376  68.708  1.00  0.00     0.272 A  
ENDBRANCH  21  22
ENDBRANCH  20  21
ENDBRANCH  17  20
ENDBRANCH  13  14
ENDBRANCH  10  13
ENDBRANCH   8   9
TORSDOF 6
ENDMDL
MODEL      166
REMARK 921   NORMALIZED FREE ENERGY PREDICTED BY IDOCK:   -4.14 KCAL/MOL
REMARK 922        TOTAL FREE ENERGY PREDICTED BY IDOCK:   -6.86 KCAL/MOL
REMARK 923 INTER-LIGAND FREE ENERGY PREDICTED BY IDOCK:   -6.18 KCAL/MOL
REMARK 924 INTRA-LIGAND FREE ENERGY PREDICTED BY IDOCK:   -0.68 KCAL/MOL
REMARK 927      BINDING AFFINITY PREDICTED BY RF-SCORE:    0.00 PKD
ROOT
HETATM    1  C   UNL     1     -10.136   3.399  64.875  1.00  0.00     0.010 C  
HETATM    2  C   UNL     1      -8.666   3.626  64.639  1.00  0.00    -0.109 A  
HETATM    3  C   UNL     1      -8.118   3.062  63.468  1.00  0.00    -0.085 A  
HETATM    4  C   UNL     1      -6.754   3.124  63.212  1.00  0.00    -0.031 A  
HETATM    5  C   UNL     1      -5.910   3.725  64.137  1.00  0.00    -0.014 A  
HETATM    6  C   UNL     1      -6.421   4.298  65.317  1.00  0.00    -0.039 A  
HETATM    7  C   UNL     1      -5.444   4.943  66.264  1.00  0.00    -0.017 C  
HETATM    8  C   UNL     1      -7.817   4.300  65.548  1.00  0.00    -0.090 A  
ENDROOT
BRANCH   8   9
HETATM    9  N   UNL     1      -8.309   4.961  66.710  1.00  0.00    -0.107 N  
HETATM   10  C   UNL     1      -8.498   4.325  67.927  1.00  0.00    -0.095 C  
HETATM   11  H   UNL     1      -8.533   5.953  66.643  1.00  0.00     0.000 HD 
HETATM   12  O   UNL     1      -8.271   3.136  68.143  1.00  0.00    -0.075 OA 
BRANCH  10  13
HETATM   13  C   UNL     1      -9.180   5.160  69.019  1.00  0.00    -0.117 C  
BRANCH  13  14
HETATM   14  N   UNL     1      -9.946   6.338  68.536  1.00  0.00    -0.138 NA 
HETATM   15  C   UNL     1     -11.296   6.333  69.166  1.00  0.00    -0.287 C  
HETATM   16  C   UNL     1     -11.346   6.733  70.667  1.00  0.00    -0.334 C  
HETATM   17  N   UNL     1     -10.634   7.981  71.010  1.00  0.00    -0.211 NA 
HETATM   18  C   UNL     1      -9.297   7.974  70.392  1.00  0.00    -0.158 C  
HETATM   19  C   UNL     1      -9.292   7.620  68.888  1.00  0.00    -0.145 C  
BRANCH  17  20
HETATM   20  C   UNL     1     -11.396   9.188  70.665  1.00  0.00    -0.273 C  
BRANCH  20  21
HETATM   21  C   UNL     1     -10.516  10.253  69.994  1.00  0.00    -0.293 C  
BRANCH  21  22
HETATM   22  C   UNL     1     -11.126  10.864  68.721  1.00  0.00    -0.310 C  
HETATM   23  C   UNL     1     -10.162  11.768  67.909  1.00  0.00    -0.203 C  
HETATM   24  C   UNL     1     -10.859  12.526  66.777  1.00  0.00    -0.281 A  
HETATM   25  C   UNL     1      -8.952  10.967  67.435  1.00  0.00    -0.136 A  
HETATM   26  C   UNL     1      -9.102   9.896  66.537  1.00  0.00    -0.179 A  
HETATM   27  C   UNL     1     -10.359  13.782  66.383  1.00  0.00    -0.290 A  
HETATM   28  C   UNL     1     -11.001  14.526  65.390  1.00  0.00    -0.346 A  
HETATM   29  C   UNL     1      -8.016   9.085  66.210  1.00  0.00    -0.103 A  
HETATM   30  C   UNL     1     -12.139  14.016  64.780  1.00  0.00    -0.437 A  
HETATM   31  C   UNL     1      -6.774   9.345  66.772  1.00  0.00    -0.072 A  
HETATM   32  F   UNL     1      -5.738   8.548  66.480  1.00  0.00    -0.042 F  
HETATM   33  C   UNL     1      -6.593  10.413  67.643  1.00  0.00    -0.066 A  
HETATM   34  F   UNL     1     -12.765  14.736  63.839  1.00  0.00    -0.377 F  
HETATM   35  C   UNL     1     -12.640  12.773  65.133  1.00  0.00    -0.513 A  
HETATM   36  C   UNL     1     -12.000  12.028  66.124  1.00  0.00    -0.105 A  
HETATM   37  C   UNL     1      -7.678  11.227  67.971  1.00  0.00    -0.108 A  
ENDBRANCH  21  22
ENDBRANCH  20  21
ENDBRANCH  17  20
ENDBRANCH  13  14
ENDBRANCH  10  13
ENDBRANCH   8   9
TORSDOF 6
ENDMDL
MODEL      167
REMARK 921   NORMALIZED FREE ENERGY PREDICTED BY IDOCK:   -4.14 KCAL/MOL
REMARK 922        TOTAL FREE ENERGY PREDICTED BY IDOCK:   -6.86 KCAL/MOL
REMARK 923 INTER-LIGAND FREE ENERGY PREDICTED BY IDOCK:   -6.13 KCAL/MOL
REMARK 924 INTRA-LIGAND FREE ENERGY PREDICTED BY IDOCK:   -0.73 KCAL/MOL
REMARK 927      BINDING AFFINITY PREDICTED BY RF-SCORE:    0.00 PKD
ROOT
HETATM    1  C   UNL     1      -9.903   3.965  69.986  1.00  0.00    -0.149 C  
HETATM    2  C   UNL     1      -8.799   3.868  71.005  1.00  0.00    -0.134 A  
HETATM    3  C   UNL     1      -7.975   2.726  70.941  1.00  0.00    -0.055 A  
HETATM    4  C   UNL     1      -6.997   2.490  71.899  1.00  0.00    -0.030 A  
HETATM    5  C   UNL     1      -6.846   3.379  72.956  1.00  0.00    -0.038 A  
HETATM    6  C   UNL     1      -7.651   4.530  73.054  1.00  0.00    -0.086 A  
HETATM    7  C   UNL     1      -7.417   5.452  74.221  1.00  0.00    -0.089 C  
HETATM    8  C   UNL     1      -8.599   4.811  72.042  1.00  0.00    -0.120 A  
ENDROOT
BRANCH   8   9
HETATM    9  N   UNL     1      -9.338   6.025  72.127  1.00  0.00    -0.149 N  
HETATM   10  C   UNL     1     -10.567   6.128  72.760  1.00  0.00    -0.228 C  
HETATM   11  H   UNL     1      -8.943   6.863  71.700  1.00  0.00     0.000 HD 
HETATM   12  O   UNL     1     -11.156   5.199  73.310  1.00  0.00    -0.287 OA 
BRANCH  10  13
HETATM   13  C   UNL     1     -11.283   7.478  72.615  1.00  0.00    -0.348 C  
BRANCH  13  14
HETATM   14  N   UNL     1     -12.012   7.679  71.337  1.00  0.00    -0.300 NA 
HETATM   15  C   UNL     1     -12.956   8.821  71.489  1.00  0.00    -0.319 C  
HETATM   16  C   UNL     1     -12.313  10.236  71.513  1.00  0.00    -0.390 C  
HETATM   17  N   UNL     1     -11.359  10.512  70.420  1.00  0.00    -0.321 NA 
HETATM   18  C   UNL     1     -10.423   9.383  70.282  1.00  0.00    -0.251 C  
HETATM   19  C   UNL     1     -11.102   7.997  70.212  1.00  0.00    -0.224 C  
BRANCH  17  20
HETATM   20  C   UNL     1     -12.021  10.838  69.150  1.00  0.00    -0.230 C  
BRANCH  20  21
HETATM   21  C   UNL     1     -11.042  11.420  68.120  1.00  0.00    -0.306 C  
BRANCH  21  22
HETATM   22  C   UNL     1     -10.317  10.361  67.272  1.00  0.00    -0.278 C  
HETATM   23  C   UNL     1      -9.004  10.850  66.606  1.00  0.00    -0.173 C  
HETATM   24  C   UNL     1      -8.429   9.847  65.603  1.00  0.00    -0.152 A  
HETATM   25  C   UNL     1      -7.995  11.278  67.668  1.00  0.00    -0.118 A  
HETATM   26  C   UNL     1      -7.475  10.350  68.587  1.00  0.00    -0.088 A  
HETATM   27  C   UNL     1      -7.688  10.324  64.505  1.00  0.00    -0.107 A  
HETATM   28  C   UNL     1      -7.193   9.442  63.541  1.00  0.00    -0.100 A  
HETATM   29  C   UNL     1      -6.658  10.771  69.636  1.00  0.00    -0.114 A  
HETATM   30  C   UNL     1      -7.427   8.080  63.675  1.00  0.00    -0.118 A  
HETATM   31  C   UNL     1      -6.350  12.117  69.767  1.00  0.00    -0.102 A  
HETATM   32  F   UNL     1      -5.589  12.522  70.791  1.00  0.00    -0.138 F  
HETATM   33  C   UNL     1      -6.830  13.052  68.858  1.00  0.00    -0.099 A  
HETATM   34  F   UNL     1      -6.967   7.235  62.742  1.00  0.00    -0.061 F  
HETATM   35  C   UNL     1      -8.135   7.581  64.758  1.00  0.00    -0.112 A  
HETATM   36  C   UNL     1      -8.629   8.461  65.721  1.00  0.00    -0.181 A  
HETATM   37  C   UNL     1      -7.648  12.635  67.806  1.00  0.00    -0.141 A  
ENDBRANCH  21  22
ENDBRANCH  20  21
ENDBRANCH  17  20
ENDBRANCH  13  14
ENDBRANCH  10  13
ENDBRANCH   8   9
TORSDOF 6
ENDMDL
MODEL      168
REMARK 921   NORMALIZED FREE ENERGY PREDICTED BY IDOCK:   -4.14 KCAL/MOL
REMARK 922        TOTAL FREE ENERGY PREDICTED BY IDOCK:   -6.86 KCAL/MOL
REMARK 923 INTER-LIGAND FREE ENERGY PREDICTED BY IDOCK:   -6.44 KCAL/MOL
REMARK 924 INTRA-LIGAND FREE ENERGY PREDICTED BY IDOCK:   -0.42 KCAL/MOL
REMARK 927      BINDING AFFINITY PREDICTED BY RF-SCORE:    0.00 PKD
ROOT
HETATM    1  C   UNL     1      -8.974  13.601  68.217  1.00  0.00    -0.187 C  
HETATM    2  C   UNL     1      -9.447  13.312  66.817  1.00  0.00    -0.257 A  
HETATM    3  C   UNL     1     -10.114  14.356  66.146  1.00  0.00    -0.323 A  
HETATM    4  C   UNL     1     -10.681  14.158  64.893  1.00  0.00    -0.444 A  
HETATM    5  C   UNL     1     -10.616  12.902  64.303  1.00  0.00    -0.430 A  
HETATM    6  C   UNL     1      -9.958  11.835  64.944  1.00  0.00    -0.280 A  
HETATM    7  C   UNL     1      -9.918  10.507  64.234  1.00  0.00    -0.398 C  
HETATM    8  C   UNL     1      -9.317  12.051  66.187  1.00  0.00    -0.211 A  
ENDROOT
BRANCH   8   9
HETATM    9  N   UNL     1      -8.591  10.974  66.769  1.00  0.00    -0.147 N  
HETATM   10  C   UNL     1      -7.206  10.918  66.804  1.00  0.00    -0.134 C  
HETATM   11  H   UNL     1      -9.116  10.203  67.181  1.00  0.00     0.000 HD 
HETATM   12  O   UNL     1      -6.455  11.775  66.342  1.00  0.00    -0.003 OA 
BRANCH  10  13
HETATM   13  C   UNL     1      -6.603   9.609  67.331  1.00  0.00    -0.070 C  
BRANCH  13  14
HETATM   14  N   UNL     1      -5.617   9.758  68.432  1.00  0.00    -0.043 NA 
HETATM   15  C   UNL     1      -6.237  10.539  69.539  1.00  0.00    -0.054 C  
HETATM   16  C   UNL     1      -7.294   9.784  70.393  1.00  0.00    -0.141 C  
HETATM   17  N   UNL     1      -6.873   8.456  70.886  1.00  0.00    -0.043 NA 
HETATM   18  C   UNL     1      -6.269   7.688  69.784  1.00  0.00    -0.030 C  
HETATM   19  C   UNL     1      -5.189   8.453  68.989  1.00  0.00    -0.031 C  
BRANCH  17  20
HETATM   20  C   UNL     1      -5.987   8.534  72.054  1.00  0.00    -0.060 C  
BRANCH  20  21
HETATM   21  C   UNL     1      -6.724   8.205  73.361  1.00  0.00    -0.129 C  
BRANCH  21  22
HETATM   22  C   UNL     1      -8.253   8.121  73.217  1.00  0.00    -0.259 C  
HETATM   23  C   UNL     1      -8.755   7.007  72.260  1.00  0.00    -0.134 C  
HETATM   24  C   UNL     1     -10.256   7.092  71.974  1.00  0.00    -0.209 A  
HETATM   25  C   UNL     1      -8.320   5.635  72.766  1.00  0.00    -0.120 A  
HETATM   26  C   UNL     1      -8.788   5.136  73.994  1.00  0.00    -0.117 A  
HETATM   27  C   UNL     1     -10.744   6.636  70.734  1.00  0.00    -0.282 A  
HETATM   28  C   UNL     1     -12.100   6.747  70.417  1.00  0.00    -0.270 A  
HETATM   29  C   UNL     1      -8.287   3.942  74.514  1.00  0.00    -0.089 A  
HETATM   30  C   UNL     1     -12.977   7.304  71.340  1.00  0.00    -0.373 A  
HETATM   31  C   UNL     1      -7.322   3.239  73.806  1.00  0.00    -0.052 A  
HETATM   32  F   UNL     1      -6.821   2.109  74.320  1.00  0.00    -0.019 F  
HETATM   33  C   UNL     1      -6.860   3.698  72.578  1.00  0.00    -0.041 A  
HETATM   34  F   UNL     1     -14.274   7.425  71.030  1.00  0.00    -0.476 F  
HETATM   35  C   UNL     1     -12.526   7.740  72.576  1.00  0.00    -0.072 A  
HETATM   36  C   UNL     1     -11.172   7.630  72.894  1.00  0.00    -0.426 A  
HETATM   37  C   UNL     1      -7.361   4.890  72.054  1.00  0.00    -0.081 A  
ENDBRANCH  21  22
ENDBRANCH  20  21
ENDBRANCH  17  20
ENDBRANCH  13  14
ENDBRANCH  10  13
ENDBRANCH   8   9
TORSDOF 6
ENDMDL
MODEL      169
REMARK 921   NORMALIZED FREE ENERGY PREDICTED BY IDOCK:   -4.12 KCAL/MOL
REMARK 922        TOTAL FREE ENERGY PREDICTED BY IDOCK:   -6.84 KCAL/MOL
REMARK 923 INTER-LIGAND FREE ENERGY PREDICTED BY IDOCK:   -7.03 KCAL/MOL
REMARK 924 INTRA-LIGAND FREE ENERGY PREDICTED BY IDOCK:    0.19 KCAL/MOL
REMARK 927      BINDING AFFINITY PREDICTED BY RF-SCORE:    0.00 PKD
ROOT
HETATM    1  C   UNL     1     -13.520  12.424  71.755  1.00  0.00    -0.261 C  
HETATM    2  C   UNL     1     -12.825  13.752  71.907  1.00  0.00    -0.400 A  
HETATM    3  C   UNL     1     -12.680  14.244  73.219  1.00  0.00    -0.259 A  
HETATM    4  C   UNL     1     -12.149  15.506  73.459  1.00  0.00    -0.615 A  
HETATM    5  C   UNL     1     -11.781  16.309  72.386  1.00  0.00    -0.512 A  
HETATM    6  C   UNL     1     -11.912  15.850  71.061  1.00  0.00    -0.453 A  
HETATM    7  C   UNL     1     -11.478  16.774  69.954  1.00  0.00     0.437 C  
HETATM    8  C   UNL     1     -12.385  14.540  70.816  1.00  0.00    -0.340 A  
ENDROOT
BRANCH   8   9
HETATM    9  N   UNL     1     -12.427  14.078  69.470  1.00  0.00    -0.437 N  
HETATM   10  C   UNL     1     -11.302  13.954  68.669  1.00  0.00    -0.278 C  
HETATM   11  H   UNL     1     -13.332  13.824  69.074  1.00  0.00     0.000 HD 
HETATM   12  O   UNL     1     -10.156  14.228  69.019  1.00  0.00    -0.209 OA 
BRANCH  10  13
HETATM   13  C   UNL     1     -11.563  13.590  67.201  1.00  0.00    -0.357 C  
BRANCH  13  14
HETATM   14  N   UNL     1     -11.676  12.137  66.915  1.00  0.00    -0.552 NA 
HETATM   15  C   UNL     1     -11.555  11.918  65.447  1.00  0.00    -0.223 C  
HETATM   16  C   UNL     1     -10.126  12.073  64.853  1.00  0.00    -0.260 C  
HETATM   17  N   UNL     1      -9.066  11.329  65.563  1.00  0.00    -0.199 NA 
HETATM   18  C   UNL     1      -9.187  11.557  67.013  1.00  0.00    -0.176 C  
HETATM   19  C   UNL     1     -10.610  11.347  67.575  1.00  0.00    -0.213 C  
BRANCH  17  20
HETATM   20  C   UNL     1      -9.048   9.899  65.229  1.00  0.00    -0.211 C  
BRANCH  20  21
HETATM   21  C   UNL     1      -7.664   9.271  65.452  1.00  0.00    -0.099 C  
BRANCH  21  22
HETATM   22  C   UNL     1      -7.442   8.725  66.873  1.00  0.00    -0.090 C  
HETATM   23  C   UNL     1      -8.145   7.373  67.166  1.00  0.00    -0.114 C  
HETATM   24  C   UNL     1      -8.084   6.970  68.641  1.00  0.00    -0.121 A  
HETATM   25  C   UNL     1      -7.623   6.288  66.228  1.00  0.00    -0.090 A  
HETATM   26  C   UNL     1      -6.278   5.881  66.270  1.00  0.00    -0.037 A  
HETATM   27  C   UNL     1      -9.127   6.197  69.184  1.00  0.00    -0.128 A  
HETATM   28  C   UNL     1      -9.132   5.856  70.539  1.00  0.00    -0.158 A  
HETATM   29  C   UNL     1      -5.776   4.987  65.325  1.00  0.00    -0.014 A  
HETATM   30  C   UNL     1      -8.089   6.277  71.355  1.00  0.00    -0.117 A  
HETATM   31  C   UNL     1      -6.616   4.488  64.340  1.00  0.00    -0.043 A  
HETATM   32  F   UNL     1      -6.125   3.652  63.417  1.00  0.00    -0.013 F  
HETATM   33  C   UNL     1      -7.956   4.854  64.290  1.00  0.00    -0.108 A  
HETATM   34  F   UNL     1      -8.101   5.964  72.657  1.00  0.00    -0.103 F  
HETATM   35  C   UNL     1      -7.038   7.021  70.841  1.00  0.00    -0.070 A  
HETATM   36  C   UNL     1      -7.033   7.362  69.488  1.00  0.00    -0.057 A  
HETATM   37  C   UNL     1      -8.462   5.748  65.235  1.00  0.00    -0.148 A  
ENDBRANCH  21  22
ENDBRANCH  20  21
ENDBRANCH  17  20
ENDBRANCH  13  14
ENDBRANCH  10  13
ENDBRANCH   8   9
TORSDOF 6
ENDMDL
MODEL      170
REMARK 921   NORMALIZED FREE ENERGY PREDICTED BY IDOCK:   -4.12 KCAL/MOL
REMARK 922        TOTAL FREE ENERGY PREDICTED BY IDOCK:   -6.83 KCAL/MOL
REMARK 923 INTER-LIGAND FREE ENERGY PREDICTED BY IDOCK:   -6.83 KCAL/MOL
REMARK 924 INTRA-LIGAND FREE ENERGY PREDICTED BY IDOCK:   -0.01 KCAL/MOL
REMARK 927      BINDING AFFINITY PREDICTED BY RF-SCORE:    0.00 PKD
ROOT
HETATM    1  C   UNL     1      -5.696   8.470  70.602  1.00  0.00    -0.028 C  
HETATM    2  C   UNL     1      -6.143   7.604  69.453  1.00  0.00    -0.031 A  
HETATM    3  C   UNL     1      -5.131   7.094  68.614  1.00  0.00    -0.017 A  
HETATM    4  C   UNL     1      -5.444   6.374  67.468  1.00  0.00    -0.005 A  
HETATM    5  C   UNL     1      -6.776   6.177  67.125  1.00  0.00    -0.057 A  
HETATM    6  C   UNL     1      -7.813   6.672  67.939  1.00  0.00    -0.112 A  
HETATM    7  C   UNL     1      -9.231   6.406  67.507  1.00  0.00    -0.112 C  
HETATM    8  C   UNL     1      -7.499   7.344  69.144  1.00  0.00    -0.099 A  
ENDROOT
BRANCH   8   9
HETATM    9  N   UNL     1      -8.571   7.759  69.985  1.00  0.00    -0.138 N  
HETATM   10  C   UNL     1      -9.122   6.957  70.971  1.00  0.00    -0.155 C  
HETATM   11  H   UNL     1      -8.952   8.696  69.854  1.00  0.00     0.000 HD 
HETATM   12  O   UNL     1      -8.761   5.811  71.230  1.00  0.00    -0.130 OA 
BRANCH  10  13
HETATM   13  C   UNL     1     -10.369   7.517  71.669  1.00  0.00    -0.192 C  
BRANCH  13  14
HETATM   14  N   UNL     1     -11.506   7.850  70.774  1.00  0.00    -0.276 NA 
HETATM   15  C   UNL     1     -12.420   8.793  71.476  1.00  0.00    -0.326 C  
HETATM   16  C   UNL     1     -11.912  10.256  71.614  1.00  0.00    -0.160 C  
HETATM   17  N   UNL     1     -11.416  10.870  70.365  1.00  0.00    -0.305 NA 
HETATM   18  C   UNL     1     -10.506   9.935  69.681  1.00  0.00    -0.249 C  
HETATM   19  C   UNL     1     -11.065   8.504  69.519  1.00  0.00     0.052 C  
BRANCH  17  20
HETATM   20  C   UNL     1     -12.497  11.331  69.485  1.00  0.00    -0.061 C  
BRANCH  20  21
HETATM   21  C   UNL     1     -12.085  11.310  68.005  1.00  0.00     0.053 C  
BRANCH  21  22
HETATM   22  C   UNL     1     -11.698  12.687  67.440  1.00  0.00    -0.432 C  
HETATM   23  C   UNL     1     -10.195  12.847  67.090  1.00  0.00    -0.239 C  
HETATM   24  C   UNL     1      -9.808  14.285  66.739  1.00  0.00    -0.274 A  
HETATM   25  C   UNL     1      -9.788  11.840  66.018  1.00  0.00    -0.258 A  
HETATM   26  C   UNL     1     -10.348  11.890  64.730  1.00  0.00    -0.323 A  
HETATM   27  C   UNL     1      -8.502  14.731  67.015  1.00  0.00    -0.250 A  
HETATM   28  C   UNL     1      -8.129  16.053  66.757  1.00  0.00    -0.302 A  
HETATM   29  C   UNL     1     -10.074  10.891  63.796  1.00  0.00    -0.413 A  
HETATM   30  C   UNL     1      -9.057  16.932  66.213  1.00  0.00    -0.267 A  
HETATM   31  C   UNL     1      -9.233   9.843  64.142  1.00  0.00    -0.262 A  
HETATM   32  F   UNL     1      -8.994   8.869  63.254  1.00  0.00    -0.174 F  
HETATM   33  C   UNL     1      -8.646   9.782  65.400  1.00  0.00    -0.163 A  
HETATM   34  F   UNL     1      -8.705  18.203  65.980  1.00  0.00    -0.253 F  
HETATM   35  C   UNL     1     -10.343  16.513  65.910  1.00  0.00    -0.365 A  
HETATM   36  C   UNL     1     -10.716  15.194  66.167  1.00  0.00    -0.327 A  
HETATM   37  C   UNL     1      -8.918  10.781  66.337  1.00  0.00    -0.179 A  
ENDBRANCH  21  22
ENDBRANCH  20  21
ENDBRANCH  17  20
ENDBRANCH  13  14
ENDBRANCH  10  13
ENDBRANCH   8   9
TORSDOF 6
ENDMDL
MODEL      171
REMARK 921   NORMALIZED FREE ENERGY PREDICTED BY IDOCK:   -4.08 KCAL/MOL
REMARK 922        TOTAL FREE ENERGY PREDICTED BY IDOCK:   -6.78 KCAL/MOL
REMARK 923 INTER-LIGAND FREE ENERGY PREDICTED BY IDOCK:   -6.02 KCAL/MOL
REMARK 924 INTRA-LIGAND FREE ENERGY PREDICTED BY IDOCK:   -0.76 KCAL/MOL
REMARK 927      BINDING AFFINITY PREDICTED BY RF-SCORE:    0.00 PKD
ROOT
HETATM    1  C   UNL     1      -9.088   5.495  62.345  1.00  0.00     0.174 C  
HETATM    2  C   UNL     1      -7.796   5.337  63.102  1.00  0.00    -0.084 A  
HETATM    3  C   UNL     1      -6.837   4.468  62.543  1.00  0.00    -0.031 A  
HETATM    4  C   UNL     1      -5.657   4.173  63.215  1.00  0.00    -0.013 A  
HETATM    5  C   UNL     1      -5.430   4.718  64.472  1.00  0.00    -0.013 A  
HETATM    6  C   UNL     1      -6.366   5.589  65.062  1.00  0.00    -0.038 A  
HETATM    7  C   UNL     1      -6.041   6.150  66.422  1.00  0.00    -0.032 C  
HETATM    8  C   UNL     1      -7.534   5.949  64.351  1.00  0.00    -0.077 A  
ENDROOT
BRANCH   8   9
HETATM    9  N   UNL     1      -8.419   6.896  64.941  1.00  0.00    -0.338 N  
HETATM   10  C   UNL     1      -8.511   8.216  64.527  1.00  0.00     0.005 C  
HETATM   11  H   UNL     1      -9.015   6.588  65.708  1.00  0.00     0.000 HD 
HETATM   12  O   UNL     1      -7.850   8.717  63.619  1.00  0.00    -0.133 OA 
BRANCH  10  13
HETATM   13  C   UNL     1      -9.406   9.124  65.382  1.00  0.00    -0.191 C  
BRANCH  13  14
HETATM   14  N   UNL     1      -8.917   9.384  66.761  1.00  0.00    -0.130 NA 
HETATM   15  C   UNL     1      -7.469   9.732  66.707  1.00  0.00    -0.095 C  
HETATM   16  C   UNL     1      -7.131  11.149  66.163  1.00  0.00     0.003 C  
HETATM   17  N   UNL     1      -7.893  12.256  66.775  1.00  0.00    -0.027 NA 
HETATM   18  C   UNL     1      -9.324  11.909  66.816  1.00  0.00    -0.201 C  
HETATM   19  C   UNL     1      -9.625  10.514  67.407  1.00  0.00    -0.158 C  
BRANCH  17  20
HETATM   20  C   UNL     1      -7.382  12.643  68.096  1.00  0.00    -0.112 C  
BRANCH  20  21
HETATM   21  C   UNL     1      -8.449  13.350  68.944  1.00  0.00     0.223 C  
BRANCH  21  22
HETATM   22  C   UNL     1      -8.469  14.880  68.783  1.00  0.00    -0.172 C  
HETATM   23  C   UNL     1      -9.817  15.462  68.280  1.00  0.00    -0.213 C  
HETATM   24  C   UNL     1      -9.735  16.948  67.926  1.00  0.00    -0.254 A  
HETATM   25  C   UNL     1     -10.936  15.143  69.267  1.00  0.00    -0.260 A  
HETATM   26  C   UNL     1     -10.916  15.660  70.574  1.00  0.00    -0.371 A  
HETATM   27  C   UNL     1     -10.577  17.461  66.921  1.00  0.00    -0.216 A  
HETATM   28  C   UNL     1     -10.493  18.801  66.534  1.00  0.00    -0.484 A  
HETATM   29  C   UNL     1     -11.869  15.261  71.511  1.00  0.00    -0.441 A  
HETATM   30  C   UNL     1      -9.576  19.637  67.157  1.00  0.00    -0.348 A  
HETATM   31  C   UNL     1     -12.850  14.350  71.145  1.00  0.00    -0.347 A  
HETATM   32  F   UNL     1     -13.746  13.946  72.054  1.00  0.00    -0.412 F  
HETATM   33  C   UNL     1     -12.907  13.842  69.853  1.00  0.00     0.195 A  
HETATM   34  F   UNL     1      -9.483  20.918  66.776  1.00  0.00    -0.432 F  
HETATM   35  C   UNL     1      -8.751  19.164  68.166  1.00  0.00    -0.360 A  
HETATM   36  C   UNL     1      -8.834  17.826  68.553  1.00  0.00    -0.284 A  
HETATM   37  C   UNL     1     -11.956  14.240  68.912  1.00  0.00    -0.356 A  
ENDBRANCH  21  22
ENDBRANCH  20  21
ENDBRANCH  17  20
ENDBRANCH  13  14
ENDBRANCH  10  13
ENDBRANCH   8   9
TORSDOF 6
ENDMDL
MODEL      172
REMARK 921   NORMALIZED FREE ENERGY PREDICTED BY IDOCK:   -4.07 KCAL/MOL
REMARK 922        TOTAL FREE ENERGY PREDICTED BY IDOCK:   -6.77 KCAL/MOL
REMARK 923 INTER-LIGAND FREE ENERGY PREDICTED BY IDOCK:   -6.04 KCAL/MOL
REMARK 924 INTRA-LIGAND FREE ENERGY PREDICTED BY IDOCK:   -0.73 KCAL/MOL
REMARK 927      BINDING AFFINITY PREDICTED BY RF-SCORE:    0.00 PKD
ROOT
HETATM    1  C   UNL     1     -12.584  12.617  70.110  1.00  0.00     0.031 C  
HETATM    2  C   UNL     1     -12.029  14.014  70.198  1.00  0.00    -0.399 A  
HETATM    3  C   UNL     1     -12.079  14.637  71.461  1.00  0.00    -0.413 A  
HETATM    4  C   UNL     1     -11.690  15.961  71.625  1.00  0.00    -0.563 A  
HETATM    5  C   UNL     1     -11.272  16.694  70.521  1.00  0.00     0.054 A  
HETATM    6  C   UNL     1     -11.210  16.105  69.244  1.00  0.00    -0.337 A  
HETATM    7  C   UNL     1     -10.734  16.961  68.100  1.00  0.00    -0.375 C  
HETATM    8  C   UNL     1     -11.537  14.737  69.085  1.00  0.00    -0.303 A  
ENDROOT
BRANCH   8   9
HETATM    9  N   UNL     1     -11.384  14.152  67.796  1.00  0.00    -0.291 N  
HETATM   10  C   UNL     1     -10.191  13.614  67.339  1.00  0.00    -0.241 C  
HETATM   11  H   UNL     1     -12.194  14.127  67.177  1.00  0.00     0.000 HD 
HETATM   12  O   UNL     1      -9.142  13.582  67.979  1.00  0.00    -0.186 OA 
BRANCH  10  13
HETATM   13  C   UNL     1     -10.178  13.170  65.869  1.00  0.00    -0.291 C  
BRANCH  13  14
HETATM   14  N   UNL     1     -10.772  11.835  65.601  1.00  0.00    -0.272 NA 
HETATM   15  C   UNL     1     -10.290  11.344  64.280  1.00  0.00    -0.328 C  
HETATM   16  C   UNL     1      -8.813  10.858  64.233  1.00  0.00    -0.051 C  
HETATM   17  N   UNL     1      -8.430   9.906  65.296  1.00  0.00    -0.142 NA 
HETATM   18  C   UNL     1      -8.903  10.403  66.600  1.00  0.00    -0.134 C  
HETATM   19  C   UNL     1     -10.387  10.830  66.620  1.00  0.00    -0.241 C  
BRANCH  17  20
HETATM   20  C   UNL     1      -8.888   8.536  65.029  1.00  0.00    -0.029 C  
BRANCH  20  21
HETATM   21  C   UNL     1      -7.795   7.496  65.316  1.00  0.00    -0.120 C  
BRANCH  21  22
HETATM   22  C   UNL     1      -7.150   7.628  66.706  1.00  0.00    -0.083 C  
HETATM   23  C   UNL     1      -7.969   7.000  67.864  1.00  0.00    -0.115 C  
HETATM   24  C   UNL     1      -7.410   7.336  69.248  1.00  0.00    -0.087 A  
HETATM   25  C   UNL     1      -8.145   5.500  67.639  1.00  0.00    -0.101 A  
HETATM   26  C   UNL     1      -7.037   4.637  67.624  1.00  0.00    -0.065 A  
HETATM   27  C   UNL     1      -8.292   7.419  70.342  1.00  0.00    -0.129 A  
HETATM   28  C   UNL     1      -7.825   7.776  71.610  1.00  0.00    -0.094 A  
HETATM   29  C   UNL     1      -7.188   3.291  67.288  1.00  0.00    -0.058 A  
HETATM   30  C   UNL     1      -6.474   8.042  71.792  1.00  0.00    -0.044 A  
HETATM   31  C   UNL     1      -8.448   2.802  66.974  1.00  0.00    -0.099 A  
HETATM   32  F   UNL     1      -8.587   1.517  66.623  1.00  0.00    -0.080 F  
HETATM   33  C   UNL     1      -9.564   3.628  67.005  1.00  0.00    -0.187 A  
HETATM   34  F   UNL     1      -6.029   8.400  73.004  1.00  0.00    -0.056 F  
HETATM   35  C   UNL     1      -5.581   7.946  70.737  1.00  0.00    -0.030 A  
HETATM   36  C   UNL     1      -6.045   7.590  69.471  1.00  0.00    -0.031 A  
HETATM   37  C   UNL     1      -9.417   4.975  67.342  1.00  0.00    -0.151 A  
ENDBRANCH  21  22
ENDBRANCH  20  21
ENDBRANCH  17  20
ENDBRANCH  13  14
ENDBRANCH  10  13
ENDBRANCH   8   9
TORSDOF 6
ENDMDL
MODEL      173
REMARK 921   NORMALIZED FREE ENERGY PREDICTED BY IDOCK:   -4.06 KCAL/MOL
REMARK 922        TOTAL FREE ENERGY PREDICTED BY IDOCK:   -6.75 KCAL/MOL
REMARK 923 INTER-LIGAND FREE ENERGY PREDICTED BY IDOCK:   -6.69 KCAL/MOL
REMARK 924 INTRA-LIGAND FREE ENERGY PREDICTED BY IDOCK:   -0.06 KCAL/MOL
REMARK 927      BINDING AFFINITY PREDICTED BY RF-SCORE:    0.00 PKD
ROOT
HETATM    1  C   UNL     1     -12.419  13.414  66.048  1.00  0.00    -0.431 C  
HETATM    2  C   UNL     1     -11.410  14.201  66.841  1.00  0.00    -0.343 A  
HETATM    3  C   UNL     1     -11.841  15.436  67.367  1.00  0.00     0.083 A  
HETATM    4  C   UNL     1     -10.958  16.284  68.023  1.00  0.00    -0.328 A  
HETATM    5  C   UNL     1      -9.621  15.925  68.139  1.00  0.00    -0.208 A  
HETATM    6  C   UNL     1      -9.154  14.700  67.626  1.00  0.00    -0.193 A  
HETATM    7  C   UNL     1      -7.694  14.376  67.803  1.00  0.00    -0.172 C  
HETATM    8  C   UNL     1     -10.064  13.801  67.020  1.00  0.00    -0.256 A  
ENDROOT
BRANCH   8   9
HETATM    9  N   UNL     1      -9.576  12.535  66.587  1.00  0.00    -0.234 N  
HETATM   10  C   UNL     1      -9.384  12.207  65.254  1.00  0.00     0.125 C  
HETATM   11  H   UNL     1      -9.356  11.834  67.294  1.00  0.00     0.000 HD 
HETATM   12  O   UNL     1      -9.612  12.954  64.305  1.00  0.00     0.080 OA 
BRANCH  10  13
HETATM   13  C   UNL     1      -9.001  10.747  64.974  1.00  0.00    -0.194 C  
BRANCH  13  14
HETATM   14  N   UNL     1      -8.391  10.017  66.115  1.00  0.00    -0.118 NA 
HETATM   15  C   UNL     1      -9.475   9.511  67.003  1.00  0.00    -0.155 C  
HETATM   16  C   UNL     1     -10.280   8.295  66.467  1.00  0.00    -0.193 C  
HETATM   17  N   UNL     1      -9.464   7.167  65.975  1.00  0.00     0.009 NA 
HETATM   18  C   UNL     1      -8.401   7.674  65.090  1.00  0.00    -0.093 C  
HETATM   19  C   UNL     1      -7.590   8.851  65.677  1.00  0.00    -0.086 C  
BRANCH  17  20
HETATM   20  C   UNL     1      -8.928   6.332  67.058  1.00  0.00    -0.115 C  
BRANCH  20  21
HETATM   21  C   UNL     1      -9.517   6.711  68.424  1.00  0.00    -0.125 C  
BRANCH  21  22
HETATM   22  C   UNL     1      -9.557   5.552  69.435  1.00  0.00    -0.196 C  
HETATM   23  C   UNL     1      -9.439   5.983  70.921  1.00  0.00    -0.188 C  
HETATM   24  C   UNL     1      -9.266   4.802  71.878  1.00  0.00    -0.171 A  
HETATM   25  C   UNL     1     -10.601   6.897  71.305  1.00  0.00    -0.244 A  
HETATM   26  C   UNL     1     -11.925   6.428  71.288  1.00  0.00    -0.288 A  
HETATM   27  C   UNL     1      -8.542   4.987  73.072  1.00  0.00    -0.114 A  
HETATM   28  C   UNL     1      -8.317   3.919  73.943  1.00  0.00    -0.091 A  
HETATM   29  C   UNL     1     -12.991   7.300  71.510  1.00  0.00    -0.434 A  
HETATM   30  C   UNL     1      -8.823   2.663  73.632  1.00  0.00    -0.075 A  
HETATM   31  C   UNL     1     -12.738   8.641  71.758  1.00  0.00    -0.359 A  
HETATM   32  F   UNL     1     -13.764   9.482  71.942  1.00  0.00    -0.392 F  
HETATM   33  C   UNL     1     -11.437   9.127  71.804  1.00  0.00    -0.452 A  
HETATM   34  F   UNL     1      -8.595   1.634  74.459  1.00  0.00    -0.050 F  
HETATM   35  C   UNL     1      -9.559   2.458  72.475  1.00  0.00    -0.167 A  
HETATM   36  C   UNL     1      -9.784   3.524  71.604  1.00  0.00    -0.234 A  
HETATM   37  C   UNL     1     -10.368   8.257  71.584  1.00  0.00    -0.289 A  
ENDBRANCH  21  22
ENDBRANCH  20  21
ENDBRANCH  17  20
ENDBRANCH  13  14
ENDBRANCH  10  13
ENDBRANCH   8   9
TORSDOF 6
ENDMDL
MODEL      174
REMARK 921   NORMALIZED FREE ENERGY PREDICTED BY IDOCK:   -4.06 KCAL/MOL
REMARK 922        TOTAL FREE ENERGY PREDICTED BY IDOCK:   -6.75 KCAL/MOL
REMARK 923 INTER-LIGAND FREE ENERGY PREDICTED BY IDOCK:   -6.77 KCAL/MOL
REMARK 924 INTRA-LIGAND FREE ENERGY PREDICTED BY IDOCK:    0.02 KCAL/MOL
REMARK 927      BINDING AFFINITY PREDICTED BY RF-SCORE:    0.00 PKD
ROOT
HETATM    1  C   UNL     1      -6.355  17.513  65.829  1.00  0.00    -0.045 C  
HETATM    2  C   UNL     1      -7.433  18.483  66.236  1.00  0.00    -0.289 A  
HETATM    3  C   UNL     1      -7.059  19.837  66.347  1.00  0.00    -0.248 A  
HETATM    4  C   UNL     1      -7.951  20.792  66.817  1.00  0.00    -0.100 A  
HETATM    5  C   UNL     1      -9.225  20.405  67.212  1.00  0.00    -0.525 A  
HETATM    6  C   UNL     1      -9.634  19.061  67.116  1.00  0.00    -0.360 A  
HETATM    7  C   UNL     1     -11.035  18.721  67.550  1.00  0.00    -0.273 C  
HETATM    8  C   UNL     1      -8.753  18.097  66.570  1.00  0.00    -0.268 A  
ENDROOT
BRANCH   8   9
HETATM    9  N   UNL     1      -9.227  16.764  66.410  1.00  0.00    -0.264 N  
HETATM   10  C   UNL     1      -9.112  15.789  67.389  1.00  0.00    -0.197 C  
HETATM   11  H   UNL     1      -9.673  16.512  65.528  1.00  0.00     0.000 HD 
HETATM   12  O   UNL     1      -8.595  15.957  68.491  1.00  0.00    -0.174 OA 
BRANCH  10  13
HETATM   13  C   UNL     1      -9.539  14.374  66.977  1.00  0.00    -0.247 C  
BRANCH  13  14
HETATM   14  N   UNL     1      -9.161  13.293  67.922  1.00  0.00    -0.205 NA 
HETATM   15  C   UNL     1     -10.369  12.866  68.682  1.00  0.00    -0.188 C  
HETATM   16  C   UNL     1     -11.402  12.013  67.893  1.00  0.00    -0.305 C  
HETATM   17  N   UNL     1     -10.837  10.864  67.156  1.00  0.00    -0.274 NA 
HETATM   18  C   UNL     1      -9.649  11.296  66.400  1.00  0.00    -0.198 C  
HETATM   19  C   UNL     1      -8.622  12.099  67.230  1.00  0.00    -0.180 C  
BRANCH  17  20
HETATM   20  C   UNL     1     -10.551   9.713  68.022  1.00  0.00    -0.243 C  
BRANCH  20  21
HETATM   21  C   UNL     1      -9.054   9.587  68.339  1.00  0.00    -0.127 C  
BRANCH  21  22
HETATM   22  C   UNL     1      -8.736   8.643  69.511  1.00  0.00    -0.139 C  
HETATM   23  C   UNL     1      -9.236   7.185  69.325  1.00  0.00    -0.140 C  
HETATM   24  C   UNL     1      -9.097   6.335  70.589  1.00  0.00    -0.153 A  
HETATM   25  C   UNL     1      -8.580   6.550  68.102  1.00  0.00    -0.118 A  
HETATM   26  C   UNL     1      -7.190   6.342  68.053  1.00  0.00    -0.087 A  
HETATM   27  C   UNL     1     -10.012   5.290  70.817  1.00  0.00    -0.279 A  
HETATM   28  C   UNL     1      -9.948   4.527  71.985  1.00  0.00    -0.255 A  
HETATM   29  C   UNL     1      -6.580   5.885  66.886  1.00  0.00    -0.056 A  
HETATM   30  C   UNL     1      -8.964   4.799  72.928  1.00  0.00    -0.119 A  
HETATM   31  C   UNL     1      -7.356   5.624  65.765  1.00  0.00    -0.073 A  
HETATM   32  F   UNL     1      -6.765   5.213  64.636  1.00  0.00    -0.042 F  
HETATM   33  C   UNL     1      -8.735   5.798  65.793  1.00  0.00    -0.152 A  
HETATM   34  F   UNL     1      -8.912   4.079  74.056  1.00  0.00    -0.092 F  
HETATM   35  C   UNL     1      -8.037   5.808  72.718  1.00  0.00    -0.108 A  
HETATM   36  C   UNL     1      -8.099   6.569  71.552  1.00  0.00    -0.112 A  
HETATM   37  C   UNL     1      -9.348   6.254  66.961  1.00  0.00    -0.135 A  
ENDBRANCH  21  22
ENDBRANCH  20  21
ENDBRANCH  17  20
ENDBRANCH  13  14
ENDBRANCH  10  13
ENDBRANCH   8   9
TORSDOF 6
ENDMDL
MODEL      175
REMARK 921   NORMALIZED FREE ENERGY PREDICTED BY IDOCK:   -4.03 KCAL/MOL
REMARK 922        TOTAL FREE ENERGY PREDICTED BY IDOCK:   -6.71 KCAL/MOL
REMARK 923 INTER-LIGAND FREE ENERGY PREDICTED BY IDOCK:   -6.71 KCAL/MOL
REMARK 924 INTRA-LIGAND FREE ENERGY PREDICTED BY IDOCK:   -0.01 KCAL/MOL
REMARK 927      BINDING AFFINITY PREDICTED BY RF-SCORE:    0.00 PKD
ROOT
HETATM    1  C   UNL     1     -11.860  15.138  67.638  1.00  0.00    -0.134 C  
HETATM    2  C   UNL     1     -11.951  13.845  68.405  1.00  0.00    -0.391 A  
HETATM    3  C   UNL     1     -12.280  13.942  69.773  1.00  0.00    -0.388 A  
HETATM    4  C   UNL     1     -12.285  12.820  70.591  1.00  0.00    -0.374 A  
HETATM    5  C   UNL     1     -11.933  11.584  70.063  1.00  0.00    -0.435 A  
HETATM    6  C   UNL     1     -11.598  11.450  68.702  1.00  0.00    -0.384 A  
HETATM    7  C   UNL     1     -11.240  10.075  68.201  1.00  0.00    -0.192 C  
HETATM    8  C   UNL     1     -11.660  12.577  67.849  1.00  0.00    -0.347 A  
ENDROOT
BRANCH   8   9
HETATM    9  N   UNL     1     -11.396  12.390  66.462  1.00  0.00    -0.319 N  
HETATM   10  C   UNL     1     -10.170  12.661  65.875  1.00  0.00    -0.274 C  
HETATM   11  H   UNL     1     -12.149  12.038  65.870  1.00  0.00     0.000 HD 
HETATM   12  O   UNL     1      -9.184  13.091  66.470  1.00  0.00    -0.240 OA 
BRANCH  10  13
HETATM   13  C   UNL     1     -10.122  12.547  64.345  1.00  0.00    -0.258 C  
BRANCH  13  14
HETATM   14  N   UNL     1     -10.364  11.187  63.799  1.00  0.00    -0.362 NA 
HETATM   15  C   UNL     1      -9.440  10.949  62.655  1.00  0.00    -0.293 C  
HETATM   16  C   UNL     1      -7.952  10.693  63.026  1.00  0.00    -0.047 C  
HETATM   17  N   UNL     1      -7.731   9.675  64.073  1.00  0.00    -0.122 NA 
HETATM   18  C   UNL     1      -8.641   9.923  65.204  1.00  0.00    -0.153 C  
HETATM   19  C   UNL     1     -10.119  10.123  64.801  1.00  0.00    -0.180 C  
BRANCH  17  20
HETATM   20  C   UNL     1      -7.839   8.300  63.568  1.00  0.00    -0.152 C  
BRANCH  20  21
HETATM   21  C   UNL     1      -7.875   7.269  64.705  1.00  0.00    -0.126 C  
BRANCH  21  22
HETATM   22  C   UNL     1      -7.159   7.722  65.989  1.00  0.00    -0.065 C  
HETATM   23  C   UNL     1      -7.968   7.506  67.295  1.00  0.00    -0.118 C  
HETATM   24  C   UNL     1      -7.322   8.160  68.518  1.00  0.00    -0.093 A  
HETATM   25  C   UNL     1      -8.266   6.023  67.498  1.00  0.00    -0.106 A  
HETATM   26  C   UNL     1      -7.226   5.098  67.696  1.00  0.00    -0.067 A  
HETATM   27  C   UNL     1      -8.143   8.614  69.567  1.00  0.00    -0.110 A  
HETATM   28  C   UNL     1      -7.593   9.263  70.675  1.00  0.00    -0.161 A  
HETATM   29  C   UNL     1      -7.493   3.730  67.749  1.00  0.00    -0.067 A  
HETATM   30  C   UNL     1      -6.219   9.455  70.744  1.00  0.00    -0.072 A  
HETATM   31  C   UNL     1      -8.799   3.281  67.613  1.00  0.00    -0.132 A  
HETATM   32  F   UNL     1      -9.049   1.966  67.635  1.00  0.00    -0.132 F  
HETATM   33  C   UNL     1      -9.848   4.175  67.441  1.00  0.00    -0.152 A  
HETATM   34  F   UNL     1      -5.692  10.092  71.798  1.00  0.00    -0.055 F  
HETATM   35  C   UNL     1      -5.385   8.998  69.735  1.00  0.00    -0.029 A  
HETATM   36  C   UNL     1      -5.933   8.349  68.629  1.00  0.00    -0.044 A  
HETATM   37  C   UNL     1      -9.585   5.545  67.389  1.00  0.00    -0.128 A  
ENDBRANCH  21  22
ENDBRANCH  20  21
ENDBRANCH  17  20
ENDBRANCH  13  14
ENDBRANCH  10  13
ENDBRANCH   8   9
TORSDOF 6
ENDMDL
MODEL      176
REMARK 921   NORMALIZED FREE ENERGY PREDICTED BY IDOCK:   -4.02 KCAL/MOL
REMARK 922        TOTAL FREE ENERGY PREDICTED BY IDOCK:   -6.71 KCAL/MOL
REMARK 923 INTER-LIGAND FREE ENERGY PREDICTED BY IDOCK:   -5.70 KCAL/MOL
REMARK 924 INTRA-LIGAND FREE ENERGY PREDICTED BY IDOCK:   -1.01 KCAL/MOL
REMARK 927      BINDING AFFINITY PREDICTED BY RF-SCORE:    0.00 PKD
ROOT
HETATM    1  C   UNL     1      -5.658   2.388  63.639  1.00  0.00    -0.009 C  
HETATM    2  C   UNL     1      -5.603   2.672  65.117  1.00  0.00    -0.013 A  
HETATM    3  C   UNL     1      -5.313   1.581  65.961  1.00  0.00    -0.005 A  
HETATM    4  C   UNL     1      -5.342   1.716  67.344  1.00  0.00    -0.016 A  
HETATM    5  C   UNL     1      -5.692   2.937  67.906  1.00  0.00    -0.019 A  
HETATM    6  C   UNL     1      -5.989   4.048  67.094  1.00  0.00    -0.024 A  
HETATM    7  C   UNL     1      -6.345   5.341  67.778  1.00  0.00    -0.040 C  
HETATM    8  C   UNL     1      -5.890   3.935  65.687  1.00  0.00    -0.022 A  
ENDROOT
BRANCH   8   9
HETATM    9  N   UNL     1      -6.115   5.099  64.899  1.00  0.00    -0.025 N  
HETATM   10  C   UNL     1      -7.372   5.500  64.471  1.00  0.00    -0.064 C  
HETATM   11  H   UNL     1      -5.311   5.667  64.634  1.00  0.00     0.000 HD 
HETATM   12  O   UNL     1      -8.420   4.907  64.714  1.00  0.00    -0.132 OA 
BRANCH  10  13
HETATM   13  C   UNL     1      -7.400   6.691  63.502  1.00  0.00    -0.072 C  
BRANCH  13  14
HETATM   14  N   UNL     1      -6.973   7.991  64.078  1.00  0.00    -0.066 NA 
HETATM   15  C   UNL     1      -7.333   9.084  63.131  1.00  0.00    -0.096 C  
HETATM   16  C   UNL     1      -8.843   9.448  63.056  1.00  0.00    -0.195 C  
HETATM   17  N   UNL     1      -9.503   9.670  64.358  1.00  0.00    -0.168 NA 
HETATM   18  C   UNL     1      -9.149   8.581  65.285  1.00  0.00     0.014 C  
HETATM   19  C   UNL     1      -7.636   8.282  65.370  1.00  0.00    -0.096 C  
BRANCH  17  20
HETATM   20  C   UNL     1      -9.215  10.994  64.927  1.00  0.00    -0.188 C  
BRANCH  20  21
HETATM   21  C   UNL     1     -10.487  11.700  65.418  1.00  0.00    -0.324 C  
BRANCH  21  22
HETATM   22  C   UNL     1     -10.976  11.229  66.798  1.00  0.00    -0.339 C  
HETATM   23  C   UNL     1      -9.884  11.207  67.900  1.00  0.00    -0.187 C  
HETATM   24  C   UNL     1     -10.349  10.533  69.193  1.00  0.00    -0.240 A  
HETATM   25  C   UNL     1      -9.326  12.610  68.124  1.00  0.00    -0.210 A  
HETATM   26  C   UNL     1     -10.144  13.645  68.608  1.00  0.00    -0.182 A  
HETATM   27  C   UNL     1      -9.403   9.874  70.001  1.00  0.00    -0.232 A  
HETATM   28  C   UNL     1      -9.798   9.203  71.161  1.00  0.00    -0.371 A  
HETATM   29  C   UNL     1      -9.665  14.952  68.686  1.00  0.00    -0.226 A  
HETATM   30  C   UNL     1     -11.139   9.195  71.524  1.00  0.00    -0.365 A  
HETATM   31  C   UNL     1      -8.365  15.230  68.289  1.00  0.00    -0.148 A  
HETATM   32  F   UNL     1      -7.916  16.490  68.337  1.00  0.00    -0.164 F  
HETATM   33  C   UNL     1      -7.526  14.221  67.830  1.00  0.00    -0.157 A  
HETATM   34  F   UNL     1     -11.522   8.538  72.627  1.00  0.00    -0.430 F  
HETATM   35  C   UNL     1     -12.088   9.855  70.758  1.00  0.00    -0.396 A  
HETATM   36  C   UNL     1     -11.694  10.526  69.601  1.00  0.00    -0.328 A  
HETATM   37  C   UNL     1      -8.002  12.911  67.753  1.00  0.00    -0.162 A  
ENDBRANCH  21  22
ENDBRANCH  20  21
ENDBRANCH  17  20
ENDBRANCH  13  14
ENDBRANCH  10  13
ENDBRANCH   8   9
TORSDOF 6
ENDMDL
MODEL      177
REMARK 921   NORMALIZED FREE ENERGY PREDICTED BY IDOCK:   -4.00 KCAL/MOL
REMARK 922        TOTAL FREE ENERGY PREDICTED BY IDOCK:   -6.67 KCAL/MOL
REMARK 923 INTER-LIGAND FREE ENERGY PREDICTED BY IDOCK:   -7.08 KCAL/MOL
REMARK 924 INTRA-LIGAND FREE ENERGY PREDICTED BY IDOCK:    0.41 KCAL/MOL
REMARK 927      BINDING AFFINITY PREDICTED BY RF-SCORE:    0.00 PKD
ROOT
HETATM    1  C   UNL     1      -9.281   8.588  66.470  1.00  0.00    -0.239 C  
HETATM    2  C   UNL     1      -8.108   7.647  66.389  1.00  0.00    -0.113 A  
HETATM    3  C   UNL     1      -7.359   7.669  65.196  1.00  0.00    -0.076 A  
HETATM    4  C   UNL     1      -6.324   6.768  64.981  1.00  0.00    -0.039 A  
HETATM    5  C   UNL     1      -6.040   5.808  65.944  1.00  0.00    -0.029 A  
HETATM    6  C   UNL     1      -6.768   5.754  67.148  1.00  0.00    -0.062 A  
HETATM    7  C   UNL     1      -6.392   4.694  68.149  1.00  0.00    -0.037 C  
HETATM    8  C   UNL     1      -7.775   6.716  67.402  1.00  0.00    -0.109 A  
ENDROOT
BRANCH   8   9
HETATM    9  N   UNL     1      -8.435   6.685  68.663  1.00  0.00    -0.122 N  
HETATM   10  C   UNL     1      -8.082   7.497  69.730  1.00  0.00    -0.126 C  
HETATM   11  H   UNL     1      -9.208   6.031  68.788  1.00  0.00     0.000 HD 
HETATM   12  O   UNL     1      -7.172   8.323  69.714  1.00  0.00    -0.058 OA 
BRANCH  10  13
HETATM   13  C   UNL     1      -8.804   7.213  71.054  1.00  0.00    -0.145 C  
BRANCH  13  14
HETATM   14  N   UNL     1      -9.231   8.412  71.819  1.00  0.00    -0.197 NA 
HETATM   15  C   UNL     1      -9.257   9.588  70.905  1.00  0.00    -0.055 C  
HETATM   16  C   UNL     1     -10.437   9.635  69.893  1.00  0.00    -0.253 C  
HETATM   17  N   UNL     1     -11.776   9.420  70.477  1.00  0.00    -0.238 NA 
HETATM   18  C   UNL     1     -11.743   8.250  71.372  1.00  0.00    -0.287 C  
HETATM   19  C   UNL     1     -10.587   8.263  72.396  1.00  0.00    -0.337 C  
BRANCH  17  20
HETATM   20  C   UNL     1     -12.307  10.613  71.148  1.00  0.00    -0.400 C  
BRANCH  20  21
HETATM   21  C   UNL     1     -11.862  11.910  70.457  1.00  0.00    -0.253 C  
BRANCH  21  22
HETATM   22  C   UNL     1     -11.751  11.802  68.926  1.00  0.00    -0.384 C  
HETATM   23  C   UNL     1     -11.653  13.162  68.185  1.00  0.00    -0.375 C  
HETATM   24  C   UNL     1     -11.762  13.027  66.665  1.00  0.00    -0.438 A  
HETATM   25  C   UNL     1     -10.407  13.923  68.630  1.00  0.00    -0.237 A  
HETATM   26  C   UNL     1      -9.121  13.412  68.380  1.00  0.00    -0.142 A  
HETATM   27  C   UNL     1     -12.315  14.086  65.920  1.00  0.00    -0.515 A  
HETATM   28  C   UNL     1     -12.480  13.977  64.537  1.00  0.00    -0.342 A  
HETATM   29  C   UNL     1      -7.993  14.043  68.902  1.00  0.00    -0.025 A  
HETATM   30  C   UNL     1     -12.083  12.814  63.890  1.00  0.00    -0.486 A  
HETATM   31  C   UNL     1      -8.142  15.190  69.669  1.00  0.00    -0.096 A  
HETATM   32  F   UNL     1      -7.060  15.778  70.194  1.00  0.00    -0.106 F  
HETATM   33  C   UNL     1      -9.400  15.729  69.911  1.00  0.00     0.084 A  
HETATM   34  F   UNL     1     -12.255  12.702  62.566  1.00  0.00     0.088 F  
HETATM   35  C   UNL     1     -11.515  11.764  64.596  1.00  0.00    -0.303 A  
HETATM   36  C   UNL     1     -11.350  11.872  65.976  1.00  0.00    -0.375 A  
HETATM   37  C   UNL     1     -10.532  15.102  69.388  1.00  0.00    -0.259 A  
ENDBRANCH  21  22
ENDBRANCH  20  21
ENDBRANCH  17  20
ENDBRANCH  13  14
ENDBRANCH  10  13
ENDBRANCH   8   9
TORSDOF 6
ENDMDL
MODEL      178
REMARK 921   NORMALIZED FREE ENERGY PREDICTED BY IDOCK:   -3.99 KCAL/MOL
REMARK 922        TOTAL FREE ENERGY PREDICTED BY IDOCK:   -6.66 KCAL/MOL
REMARK 923 INTER-LIGAND FREE ENERGY PREDICTED BY IDOCK:   -6.06 KCAL/MOL
REMARK 924 INTRA-LIGAND FREE ENERGY PREDICTED BY IDOCK:   -0.59 KCAL/MOL
REMARK 927      BINDING AFFINITY PREDICTED BY RF-SCORE:    0.00 PKD
ROOT
HETATM    1  C   UNL     1      -9.104  18.443  69.417  1.00  0.00     0.368 C  
HETATM    2  C   UNL     1      -9.596  18.607  68.003  1.00  0.00    -0.348 A  
HETATM    3  C   UNL     1      -9.717  19.926  67.523  1.00  0.00    -0.521 A  
HETATM    4  C   UNL     1     -10.261  20.189  66.272  1.00  0.00    -0.541 A  
HETATM    5  C   UNL     1     -10.721  19.136  65.490  1.00  0.00    -0.145 A  
HETATM    6  C   UNL     1     -10.617  17.805  65.938  1.00  0.00    -0.205 A  
HETATM    7  C   UNL     1     -11.125  16.718  65.027  1.00  0.00    -0.063 C  
HETATM    8  C   UNL     1      -9.999  17.528  67.180  1.00  0.00    -0.314 A  
ENDROOT
BRANCH   8   9
HETATM    9  N   UNL     1      -9.835  16.167  67.564  1.00  0.00    -0.235 N  
HETATM   10  C   UNL     1     -10.749  15.480  68.349  1.00  0.00    -0.263 C  
HETATM   11  H   UNL     1      -9.002  15.672  67.247  1.00  0.00     0.000 HD 
HETATM   12  O   UNL     1     -11.788  15.957  68.800  1.00  0.00    -0.393 OA 
BRANCH  10  13
HETATM   13  C   UNL     1     -10.326  14.071  68.788  1.00  0.00    -0.222 C  
BRANCH  13  14
HETATM   14  N   UNL     1      -9.606  13.273  67.764  1.00  0.00    -0.207 NA 
HETATM   15  C   UNL     1      -8.832  12.195  68.441  1.00  0.00    -0.143 C  
HETATM   16  C   UNL     1      -9.666  11.004  68.993  1.00  0.00    -0.134 C  
HETATM   17  N   UNL     1     -10.626  10.413  68.039  1.00  0.00    -0.203 NA 
HETATM   18  C   UNL     1     -11.393  11.484  67.380  1.00  0.00    -0.298 C  
HETATM   19  C   UNL     1     -10.527  12.625  66.801  1.00  0.00    -0.240 C  
BRANCH  17  20
HETATM   20  C   UNL     1      -9.988   9.514  67.068  1.00  0.00    -0.213 C  
BRANCH  20  21
HETATM   21  C   UNL     1      -8.537   9.188  67.450  1.00  0.00    -0.115 C  
BRANCH  21  22
HETATM   22  C   UNL     1      -8.105   7.750  67.114  1.00  0.00    -0.118 C  
HETATM   23  C   UNL     1      -8.374   7.318  65.647  1.00  0.00    -0.142 C  
HETATM   24  C   UNL     1      -8.135   5.826  65.407  1.00  0.00    -0.131 A  
HETATM   25  C   UNL     1      -7.602   8.211  64.679  1.00  0.00    -0.111 A  
HETATM   26  C   UNL     1      -6.196   8.229  64.678  1.00  0.00    -0.064 A  
HETATM   27  C   UNL     1      -8.885   5.162  64.417  1.00  0.00    -0.041 A  
HETATM   28  C   UNL     1      -8.732   3.790  64.206  1.00  0.00    -0.107 A  
HETATM   29  C   UNL     1      -5.498   9.141  63.886  1.00  0.00    -0.062 A  
HETATM   30  C   UNL     1      -7.822   3.076  64.975  1.00  0.00    -0.082 A  
HETATM   31  C   UNL     1      -6.201  10.032  63.086  1.00  0.00    -0.132 A  
HETATM   32  F   UNL     1      -5.529  10.925  62.349  1.00  0.00    -0.122 F  
HETATM   33  C   UNL     1      -7.590  10.018  63.050  1.00  0.00    -0.137 A  
HETATM   34  F   UNL     1      -7.686   1.757  64.785  1.00  0.00    -0.059 F  
HETATM   35  C   UNL     1      -7.054   3.709  65.941  1.00  0.00    -0.063 A  
HETATM   36  C   UNL     1      -7.206   5.079  66.152  1.00  0.00    -0.077 A  
HETATM   37  C   UNL     1      -8.291   9.106  63.840  1.00  0.00    -0.183 A  
ENDBRANCH  21  22
ENDBRANCH  20  21
ENDBRANCH  17  20
ENDBRANCH  13  14
ENDBRANCH  10  13
ENDBRANCH   8   9
TORSDOF 6
ENDMDL
MODEL      179
REMARK 921   NORMALIZED FREE ENERGY PREDICTED BY IDOCK:   -3.97 KCAL/MOL
REMARK 922        TOTAL FREE ENERGY PREDICTED BY IDOCK:   -6.63 KCAL/MOL
REMARK 923 INTER-LIGAND FREE ENERGY PREDICTED BY IDOCK:   -7.62 KCAL/MOL
REMARK 924 INTRA-LIGAND FREE ENERGY PREDICTED BY IDOCK:    0.99 KCAL/MOL
REMARK 927      BINDING AFFINITY PREDICTED BY RF-SCORE:    0.00 PKD
ROOT
HETATM    1  C   UNL     1      -8.671   9.253  62.469  1.00  0.00    -0.233 C  
HETATM    2  C   UNL     1      -8.671   9.265  63.975  1.00  0.00    -0.198 A  
HETATM    3  C   UNL     1      -7.628   8.566  64.614  1.00  0.00    -0.102 A  
HETATM    4  C   UNL     1      -7.597   8.428  65.997  1.00  0.00    -0.085 A  
HETATM    5  C   UNL     1      -8.626   8.962  66.761  1.00  0.00    -0.122 A  
HETATM    6  C   UNL     1      -9.686   9.666  66.157  1.00  0.00    -0.317 A  
HETATM    7  C   UNL     1     -10.757  10.227  67.055  1.00  0.00    -0.281 C  
HETATM    8  C   UNL     1      -9.684   9.871  64.757  1.00  0.00    -0.235 A  
ENDROOT
BRANCH   8   9
HETATM    9  N   UNL     1     -10.725  10.658  64.188  1.00  0.00    -0.313 N  
HETATM   10  C   UNL     1     -10.545  11.960  63.748  1.00  0.00    -0.422 C  
HETATM   11  H   UNL     1     -11.652  10.242  64.099  1.00  0.00     0.000 HD 
HETATM   12  O   UNL     1      -9.484  12.580  63.799  1.00  0.00    -0.027 OA 
BRANCH  10  13
HETATM   13  C   UNL     1     -11.816  12.699  63.309  1.00  0.00    -0.425 C  
BRANCH  13  14
HETATM   14  N   UNL     1     -12.595  13.334  64.403  1.00  0.00    -0.649 NA 
HETATM   15  C   UNL     1     -12.141  12.779  65.709  1.00  0.00    -0.448 C  
HETATM   16  C   UNL     1     -10.755  13.273  66.212  1.00  0.00    -0.286 C  
HETATM   17  N   UNL     1     -10.564  14.738  66.192  1.00  0.00    -0.301 NA 
HETATM   18  C   UNL     1     -11.007  15.277  64.895  1.00  0.00    -0.430 C  
HETATM   19  C   UNL     1     -12.408  14.803  64.451  1.00  0.00    -0.368 C  
BRANCH  17  20
HETATM   20  C   UNL     1     -11.213  15.415  67.322  1.00  0.00    -0.270 C  
BRANCH  20  21
HETATM   21  C   UNL     1     -10.222  15.737  68.450  1.00  0.00    -0.223 C  
BRANCH  21  22
HETATM   22  C   UNL     1      -9.262  14.584  68.791  1.00  0.00    -0.162 C  
HETATM   23  C   UNL     1      -8.050  14.443  67.833  1.00  0.00    -0.153 C  
HETATM   24  C   UNL     1      -7.241  13.166  68.070  1.00  0.00    -0.125 A  
HETATM   25  C   UNL     1      -7.194  15.707  67.867  1.00  0.00    -0.152 A  
HETATM   26  C   UNL     1      -6.535  16.102  69.043  1.00  0.00    -0.154 A  
HETATM   27  C   UNL     1      -6.568  12.570  66.987  1.00  0.00     0.060 A  
HETATM   28  C   UNL     1      -5.864  11.375  67.154  1.00  0.00    -0.094 A  
HETATM   29  C   UNL     1      -5.864  17.323  69.106  1.00  0.00    -0.193 A  
HETATM   30  C   UNL     1      -5.821  10.775  68.406  1.00  0.00    -0.043 A  
HETATM   31  C   UNL     1      -5.843  18.151  67.993  1.00  0.00    -0.164 A  
HETATM   32  F   UNL     1      -5.223  19.336  68.065  1.00  0.00    -0.171 F  
HETATM   33  C   UNL     1      -6.466  17.774  66.810  1.00  0.00    -0.216 A  
HETATM   34  F   UNL     1      -5.160   9.621  68.564  1.00  0.00    -0.034 F  
HETATM   35  C   UNL     1      -6.456  11.353  69.495  1.00  0.00    -0.122 A  
HETATM   36  C   UNL     1      -7.159  12.546  69.329  1.00  0.00     0.091 A  
HETATM   37  C   UNL     1      -7.137  16.552  66.742  1.00  0.00    -0.253 A  
ENDBRANCH  21  22
ENDBRANCH  20  21
ENDBRANCH  17  20
ENDBRANCH  13  14
ENDBRANCH  10  13
ENDBRANCH   8   9
TORSDOF 6
ENDMDL
MODEL      180
REMARK 921   NORMALIZED FREE ENERGY PREDICTED BY IDOCK:   -3.97 KCAL/MOL
REMARK 922        TOTAL FREE ENERGY PREDICTED BY IDOCK:   -6.63 KCAL/MOL
REMARK 923 INTER-LIGAND FREE ENERGY PREDICTED BY IDOCK:   -6.86 KCAL/MOL
REMARK 924 INTRA-LIGAND FREE ENERGY PREDICTED BY IDOCK:    0.22 KCAL/MOL
REMARK 927      BINDING AFFINITY PREDICTED BY RF-SCORE:    0.00 PKD
ROOT
HETATM    1  C   UNL     1      -9.530  10.272  62.520  1.00  0.00    -0.281 C  
HETATM    2  C   UNL     1     -10.507  10.965  63.433  1.00  0.00    -0.220 A  
HETATM    3  C   UNL     1     -11.729  11.374  62.861  1.00  0.00     0.551 A  
HETATM    4  C   UNL     1     -12.651  12.113  63.590  1.00  0.00    -0.616 A  
HETATM    5  C   UNL     1     -12.354  12.483  64.896  1.00  0.00    -0.539 A  
HETATM    6  C   UNL     1     -11.144  12.094  65.500  1.00  0.00    -0.361 A  
HETATM    7  C   UNL     1     -10.901  12.522  66.923  1.00  0.00    -0.280 C  
HETATM    8  C   UNL     1     -10.233  11.280  64.786  1.00  0.00    -0.292 A  
ENDROOT
BRANCH   8   9
HETATM    9  N   UNL     1      -9.057  10.835  65.454  1.00  0.00    -0.189 N  
HETATM   10  C   UNL     1      -8.978   9.635  66.143  1.00  0.00    -0.154 C  
HETATM   11  H   UNL     1      -8.229  11.431  65.424  1.00  0.00     0.000 HD 
HETATM   12  O   UNL     1      -9.899   8.829  66.260  1.00  0.00    -0.268 OA 
BRANCH  10  13
HETATM   13  C   UNL     1      -7.680   9.399  66.929  1.00  0.00    -0.091 C  
BRANCH  13  14
HETATM   14  N   UNL     1      -7.572  10.131  68.216  1.00  0.00    -0.086 NA 
HETATM   15  C   UNL     1      -6.149  10.133  68.657  1.00  0.00    -0.044 C  
HETATM   16  C   UNL     1      -5.196  11.079  67.873  1.00  0.00    -0.039 C  
HETATM   17  N   UNL     1      -5.677  12.466  67.714  1.00  0.00    -0.091 NA 
HETATM   18  C   UNL     1      -7.081  12.456  67.269  1.00  0.00    -0.128 C  
HETATM   19  C   UNL     1      -8.008  11.543  68.102  1.00  0.00    -0.136 C  
BRANCH  17  20
HETATM   20  C   UNL     1      -5.487  13.280  68.921  1.00  0.00    -0.073 C  
BRANCH  20  21
HETATM   21  C   UNL     1      -6.637  14.276  69.133  1.00  0.00    -0.114 C  
BRANCH  21  22
HETATM   22  C   UNL     1      -6.292  15.726  68.752  1.00  0.00    -0.109 C  
HETATM   23  C   UNL     1      -7.136  16.310  67.589  1.00  0.00    -0.164 C  
HETATM   24  C   UNL     1      -6.625  17.665  67.096  1.00  0.00    -0.188 A  
HETATM   25  C   UNL     1      -8.616  16.330  67.962  1.00  0.00    -0.176 A  
HETATM   26  C   UNL     1      -9.082  17.121  69.027  1.00  0.00    -0.123 A  
HETATM   27  C   UNL     1      -6.816  18.021  65.747  1.00  0.00    -0.281 A  
HETATM   28  C   UNL     1      -6.315  19.227  65.249  1.00  0.00    -0.314 A  
HETATM   29  C   UNL     1     -10.409  17.035  69.448  1.00  0.00    -0.230 A  
HETATM   30  C   UNL     1      -5.631  20.087  66.098  1.00  0.00    -0.166 A  
HETATM   31  C   UNL     1     -11.278  16.166  68.803  1.00  0.00    -0.365 A  
HETATM   32  F   UNL     1     -12.543  16.063  69.227  1.00  0.00    -0.196 F  
HETATM   33  C   UNL     1     -10.849  15.391  67.732  1.00  0.00    -0.302 A  
HETATM   34  F   UNL     1      -5.137  21.236  65.618  1.00  0.00    -0.216 F  
HETATM   35  C   UNL     1      -5.448  19.772  67.436  1.00  0.00    -0.172 A  
HETATM   36  C   UNL     1      -5.948  18.568  67.934  1.00  0.00    -0.186 A  
HETATM   37  C   UNL     1      -9.522  15.475  67.307  1.00  0.00    -0.218 A  
ENDBRANCH  21  22
ENDBRANCH  20  21
ENDBRANCH  17  20
ENDBRANCH  13  14
ENDBRANCH  10  13
ENDBRANCH   8   9
TORSDOF 6
ENDMDL
MODEL      181
REMARK 921   NORMALIZED FREE ENERGY PREDICTED BY IDOCK:   -3.94 KCAL/MOL
REMARK 922        TOTAL FREE ENERGY PREDICTED BY IDOCK:   -6.59 KCAL/MOL
REMARK 923 INTER-LIGAND FREE ENERGY PREDICTED BY IDOCK:   -6.03 KCAL/MOL
REMARK 924 INTRA-LIGAND FREE ENERGY PREDICTED BY IDOCK:   -0.56 KCAL/MOL
REMARK 927      BINDING AFFINITY PREDICTED BY RF-SCORE:    0.00 PKD
ROOT
HETATM    1  C   UNL     1     -11.977  16.319  72.205  1.00  0.00    -0.605 C  
HETATM    2  C   UNL     1     -12.575  14.974  71.890  1.00  0.00    -0.403 A  
HETATM    3  C   UNL     1     -13.787  14.653  72.533  1.00  0.00    -0.561 A  
HETATM    4  C   UNL     1     -14.365  13.398  72.392  1.00  0.00    -0.257 A  
HETATM    5  C   UNL     1     -13.724  12.430  71.628  1.00  0.00     0.265 A  
HETATM    6  C   UNL     1     -12.511  12.715  70.971  1.00  0.00    -0.354 A  
HETATM    7  C   UNL     1     -11.885  11.618  70.150  1.00  0.00    -0.428 C  
HETATM    8  C   UNL     1     -11.956  14.014  71.054  1.00  0.00    -0.233 A  
ENDROOT
BRANCH   8   9
HETATM    9  N   UNL     1     -10.774  14.291  70.311  1.00  0.00    -0.295 N  
HETATM   10  C   UNL     1     -10.782  14.867  69.049  1.00  0.00    -0.247 C  
HETATM   11  H   UNL     1      -9.874  14.054  70.728  1.00  0.00     0.000 HD 
HETATM   12  O   UNL     1     -11.793  15.196  68.433  1.00  0.00    -0.328 OA 
BRANCH  10  13
HETATM   13  C   UNL     1      -9.422  14.946  68.342  1.00  0.00    -0.209 C  
BRANCH  13  14
HETATM   14  N   UNL     1      -9.325  14.201  67.061  1.00  0.00    -0.236 NA 
HETATM   15  C   UNL     1      -7.899  13.852  66.807  1.00  0.00     0.521 C  
HETATM   16  C   UNL     1      -7.314  12.709  67.683  1.00  0.00    -0.139 C  
HETATM   17  N   UNL     1      -8.131  11.480  67.744  1.00  0.00    -0.127 NA 
HETATM   18  C   UNL     1      -9.537  11.833  68.004  1.00  0.00    -0.187 C  
HETATM   19  C   UNL     1     -10.099  12.938  67.081  1.00  0.00    -0.243 C  
BRANCH  17  20
HETATM   20  C   UNL     1      -7.986  10.637  66.550  1.00  0.00    -0.138 C  
BRANCH  20  21
HETATM   21  C   UNL     1      -8.229   9.152  66.859  1.00  0.00    -0.116 C  
BRANCH  21  22
HETATM   22  C   UNL     1      -7.468   8.634  68.091  1.00  0.00    -0.096 C  
HETATM   23  C   UNL     1      -8.284   7.681  69.005  1.00  0.00    -0.127 C  
HETATM   24  C   UNL     1      -7.577   7.360  70.324  1.00  0.00    -0.088 A  
HETATM   25  C   UNL     1      -8.705   6.433  68.233  1.00  0.00    -0.116 A  
HETATM   26  C   UNL     1      -7.746   5.535  67.734  1.00  0.00    -0.092 A  
HETATM   27  C   UNL     1      -8.351   7.085  71.467  1.00  0.00    -0.112 A  
HETATM   28  C   UNL     1      -7.741   6.840  72.700  1.00  0.00    -0.099 A  
HETATM   29  C   UNL     1      -8.128   4.470  66.918  1.00  0.00    -0.102 A  
HETATM   30  C   UNL     1      -6.355   6.859  72.794  1.00  0.00    -0.054 A  
HETATM   31  C   UNL     1      -9.468   4.293  66.605  1.00  0.00    -0.187 A  
HETATM   32  F   UNL     1      -9.828   3.287  65.798  1.00  0.00    -0.126 F  
HETATM   33  C   UNL     1     -10.439   5.152  67.105  1.00  0.00    -0.224 A  
HETATM   34  F   UNL     1      -5.769   6.640  73.978  1.00  0.00    -0.051 F  
HETATM   35  C   UNL     1      -5.569   7.105  71.679  1.00  0.00    -0.036 A  
HETATM   36  C   UNL     1      -6.177   7.349  70.447  1.00  0.00    -0.034 A  
HETATM   37  C   UNL     1     -10.061   6.218  67.923  1.00  0.00    -0.169 A  
ENDBRANCH  21  22
ENDBRANCH  20  21
ENDBRANCH  17  20
ENDBRANCH  13  14
ENDBRANCH  10  13
ENDBRANCH   8   9
TORSDOF 6
ENDMDL
MODEL      182
REMARK 921   NORMALIZED FREE ENERGY PREDICTED BY IDOCK:   -3.87 KCAL/MOL
REMARK 922        TOTAL FREE ENERGY PREDICTED BY IDOCK:   -6.50 KCAL/MOL
REMARK 923 INTER-LIGAND FREE ENERGY PREDICTED BY IDOCK:   -5.74 KCAL/MOL
REMARK 924 INTRA-LIGAND FREE ENERGY PREDICTED BY IDOCK:   -0.76 KCAL/MOL
REMARK 927      BINDING AFFINITY PREDICTED BY RF-SCORE:    0.00 PKD
ROOT
HETATM    1  C   UNL     1     -11.841  16.840  72.792  1.00  0.00    -0.123 C  
HETATM    2  C   UNL     1     -12.478  15.739  71.986  1.00  0.00    -0.531 A  
HETATM    3  C   UNL     1     -13.774  15.340  72.371  1.00  0.00    -0.622 A  
HETATM    4  C   UNL     1     -14.405  14.263  71.760  1.00  0.00    -0.539 A  
HETATM    5  C   UNL     1     -13.739  13.548  70.773  1.00  0.00     0.596 A  
HETATM    6  C   UNL     1     -12.443  13.918  70.363  1.00  0.00    -0.404 A  
HETATM    7  C   UNL     1     -11.793  13.102  69.277  1.00  0.00    -0.377 C  
HETATM    8  C   UNL     1     -11.825  15.057  70.932  1.00  0.00    -0.324 A  
ENDROOT
BRANCH   8   9
HETATM    9  N   UNL     1     -10.551  15.451  70.436  1.00  0.00    -0.445 N  
HETATM   10  C   UNL     1     -10.378  16.198  69.280  1.00  0.00    -0.265 C  
HETATM   11  H   UNL     1      -9.721  15.171  70.958  1.00  0.00     0.000 HD 
HETATM   12  O   UNL     1     -11.289  16.597  68.558  1.00  0.00    -0.317 OA 
BRANCH  10  13
HETATM   13  C   UNL     1      -8.926  16.393  68.821  1.00  0.00    -0.245 C  
BRANCH  13  14
HETATM   14  N   UNL     1      -8.541  15.654  67.592  1.00  0.00    -0.164 NA 
HETATM   15  C   UNL     1      -7.065  15.745  67.411  1.00  0.00    -0.203 C  
HETATM   16  C   UNL     1      -6.209  14.877  68.376  1.00  0.00    -0.104 C  
HETATM   17  N   UNL     1      -6.618  13.462  68.482  1.00  0.00    -0.081 NA 
HETATM   18  C   UNL     1      -8.077  13.382  68.669  1.00  0.00    -0.040 C  
HETATM   19  C   UNL     1      -8.897  14.217  67.662  1.00  0.00    -0.196 C  
BRANCH  17  20
HETATM   20  C   UNL     1      -6.162  12.648  67.349  1.00  0.00    -0.148 C  
BRANCH  20  21
HETATM   21  C   UNL     1      -7.335  12.084  66.534  1.00  0.00     0.246 C  
BRANCH  21  22
HETATM   22  C   UNL     1      -7.114  10.651  66.020  1.00  0.00    -0.127 C  
HETATM   23  C   UNL     1      -7.155   9.555  67.117  1.00  0.00    -0.086 C  
HETATM   24  C   UNL     1      -6.720   8.179  66.610  1.00  0.00    -0.063 A  
HETATM   25  C   UNL     1      -8.521   9.535  67.800  1.00  0.00    -0.119 A  
HETATM   26  C   UNL     1      -9.683   9.208  67.080  1.00  0.00    -0.236 A  
HETATM   27  C   UNL     1      -6.103   7.282  67.503  1.00  0.00    -0.042 A  
HETATM   28  C   UNL     1      -5.645   6.038  67.062  1.00  0.00    -0.012 A  
HETATM   29  C   UNL     1     -10.941   9.320  67.673  1.00  0.00    -0.071 A  
HETATM   30  C   UNL     1      -5.808   5.680  65.730  1.00  0.00    -0.024 A  
HETATM   31  C   UNL     1     -11.042   9.750  68.989  1.00  0.00    -0.107 A  
HETATM   32  F   UNL     1     -12.251   9.885  69.547  1.00  0.00    -0.034 F  
HETATM   33  C   UNL     1      -9.907  10.056  69.730  1.00  0.00    -0.270 A  
HETATM   34  F   UNL     1      -5.354   4.495  65.303  1.00  0.00    -0.011 F  
HETATM   35  C   UNL     1      -6.431   6.535  64.834  1.00  0.00    -0.041 A  
HETATM   36  C   UNL     1      -6.890   7.777  65.273  1.00  0.00    -0.051 A  
HETATM   37  C   UNL     1      -8.647   9.944  69.141  1.00  0.00    -0.157 A  
ENDBRANCH  21  22
ENDBRANCH  20  21
ENDBRANCH  17  20
ENDBRANCH  13  14
ENDBRANCH  10  13
ENDBRANCH   8   9
TORSDOF 6
ENDMDL
MODEL      183
REMARK 921   NORMALIZED FREE ENERGY PREDICTED BY IDOCK:   -3.87 KCAL/MOL
REMARK 922        TOTAL FREE ENERGY PREDICTED BY IDOCK:   -6.50 KCAL/MOL
REMARK 923 INTER-LIGAND FREE ENERGY PREDICTED BY IDOCK:   -5.87 KCAL/MOL
REMARK 924 INTRA-LIGAND FREE ENERGY PREDICTED BY IDOCK:   -0.63 KCAL/MOL
REMARK 927      BINDING AFFINITY PREDICTED BY RF-SCORE:    0.00 PKD
ROOT
HETATM    1  C   UNL     1      -8.209  14.857  67.083  1.00  0.00    -0.244 C  
HETATM    2  C   UNL     1      -9.448  14.969  66.233  1.00  0.00    -0.342 A  
HETATM    3  C   UNL     1      -9.787  16.258  65.774  1.00  0.00    -0.332 A  
HETATM    4  C   UNL     1     -10.965  16.484  65.074  1.00  0.00    -0.222 A  
HETATM    5  C   UNL     1     -11.840  15.429  64.845  1.00  0.00    -0.095 A  
HETATM    6  C   UNL     1     -11.534  14.128  65.289  1.00  0.00    -0.330 A  
HETATM    7  C   UNL     1     -12.526  13.035  64.991  1.00  0.00    -0.534 C  
HETATM    8  C   UNL     1     -10.302  13.880  65.940  1.00  0.00    -0.311 A  
ENDROOT
BRANCH   8   9
HETATM    9  N   UNL     1      -9.988  12.539  66.302  1.00  0.00    -0.247 N  
HETATM   10  C   UNL     1      -9.619  11.567  65.385  1.00  0.00    -0.224 C  
HETATM   11  H   UNL     1     -10.036  12.280  67.287  1.00  0.00     0.000 HD 
HETATM   12  O   UNL     1      -9.525  11.743  64.172  1.00  0.00    -0.114 OA 
BRANCH  10  13
HETATM   13  C   UNL     1      -9.470  10.144  65.942  1.00  0.00    -0.196 C  
BRANCH  13  14
HETATM   14  N   UNL     1      -9.168  10.056  67.393  1.00  0.00    -0.137 NA 
HETATM   15  C   UNL     1      -9.744   8.794  67.935  1.00  0.00    -0.157 C  
HETATM   16  C   UNL     1      -8.994   7.487  67.552  1.00  0.00    -0.126 C  
HETATM   17  N   UNL     1      -7.534   7.510  67.772  1.00  0.00    -0.098 NA 
HETATM   18  C   UNL     1      -6.971   8.757  67.225  1.00  0.00    -0.075 C  
HETATM   19  C   UNL     1      -7.712  10.039  67.668  1.00  0.00    -0.091 C  
BRANCH  17  20
HETATM   20  C   UNL     1      -7.163   7.308  69.179  1.00  0.00    -0.085 C  
BRANCH  20  21
HETATM   21  C   UNL     1      -6.912   5.828  69.502  1.00  0.00    -0.063 C  
BRANCH  21  22
HETATM   22  C   UNL     1      -7.999   5.182  70.379  1.00  0.00    -0.086 C  
HETATM   23  C   UNL     1      -7.524   4.759  71.794  1.00  0.00    -0.079 C  
HETATM   24  C   UNL     1      -8.563   3.931  72.554  1.00  0.00    -0.104 A  
HETATM   25  C   UNL     1      -7.039   5.975  72.579  1.00  0.00    -0.084 A  
HETATM   26  C   UNL     1      -7.921   7.017  72.915  1.00  0.00    -0.115 A  
HETATM   27  C   UNL     1      -8.126   2.975  73.491  1.00  0.00    -0.072 A  
HETATM   28  C   UNL     1      -9.042   2.164  74.165  1.00  0.00    -0.081 A  
HETATM   29  C   UNL     1      -7.447   8.183  73.515  1.00  0.00    -0.197 A  
HETATM   30  C   UNL     1     -10.400   2.311  73.913  1.00  0.00    -0.125 A  
HETATM   31  C   UNL     1      -6.092   8.311  73.789  1.00  0.00    -0.110 A  
HETATM   32  F   UNL     1      -5.635   9.443  74.337  1.00  0.00    -0.129 F  
HETATM   33  C   UNL     1      -5.203   7.286  73.489  1.00  0.00    -0.042 A  
HETATM   34  F   UNL     1     -11.279   1.523  74.546  1.00  0.00    -0.170 F  
HETATM   35  C   UNL     1     -10.859   3.259  73.011  1.00  0.00    -0.186 A  
HETATM   36  C   UNL     1      -9.945   4.070  72.339  1.00  0.00    -0.229 A  
HETATM   37  C   UNL     1      -5.674   6.117  72.890  1.00  0.00    -0.037 A  
ENDBRANCH  21  22
ENDBRANCH  20  21
ENDBRANCH  17  20
ENDBRANCH  13  14
ENDBRANCH  10  13
ENDBRANCH   8   9
TORSDOF 6
ENDMDL
MODEL      184
REMARK 921   NORMALIZED FREE ENERGY PREDICTED BY IDOCK:   -3.83 KCAL/MOL
REMARK 922        TOTAL FREE ENERGY PREDICTED BY IDOCK:   -6.44 KCAL/MOL
REMARK 923 INTER-LIGAND FREE ENERGY PREDICTED BY IDOCK:   -6.63 KCAL/MOL
REMARK 924 INTRA-LIGAND FREE ENERGY PREDICTED BY IDOCK:    0.19 KCAL/MOL
REMARK 927      BINDING AFFINITY PREDICTED BY RF-SCORE:    0.00 PKD
ROOT
HETATM    1  C   UNL     1      -9.227   6.461  67.638  1.00  0.00    -0.116 C  
HETATM    2  C   UNL     1      -8.762   5.164  68.245  1.00  0.00    -0.104 A  
HETATM    3  C   UNL     1      -7.738   4.476  67.562  1.00  0.00    -0.085 A  
HETATM    4  C   UNL     1      -7.313   3.222  67.981  1.00  0.00    -0.054 A  
HETATM    5  C   UNL     1      -7.924   2.620  69.073  1.00  0.00    -0.062 A  
HETATM    6  C   UNL     1      -8.950   3.276  69.780  1.00  0.00    -0.174 A  
HETATM    7  C   UNL     1      -9.553   2.565  70.962  1.00  0.00    -0.206 C  
HETATM    8  C   UNL     1      -9.337   4.584  69.401  1.00  0.00    -0.149 A  
ENDROOT
BRANCH   8   9
HETATM    9  N   UNL     1     -10.319   5.252  70.187  1.00  0.00    -0.281 N  
HETATM   10  C   UNL     1     -10.014   6.004  71.311  1.00  0.00    -0.184 C  
HETATM   11  H   UNL     1     -11.297   5.173  69.908  1.00  0.00     0.000 HD 
HETATM   12  O   UNL     1      -8.882   6.177  71.756  1.00  0.00    -0.137 OA 
BRANCH  10  13
HETATM   13  C   UNL     1     -11.216   6.518  72.116  1.00  0.00    -0.271 C  
BRANCH  13  14
HETATM   14  N   UNL     1     -11.175   7.960  72.471  1.00  0.00    -0.348 NA 
HETATM   15  C   UNL     1     -10.011   8.596  71.793  1.00  0.00    -0.301 C  
HETATM   16  C   UNL     1     -10.159   8.827  70.263  1.00  0.00    -0.191 C  
HETATM   17  N   UNL     1     -11.410   9.491  69.845  1.00  0.00    -0.179 NA 
HETATM   18  C   UNL     1     -12.557   8.851  70.512  1.00  0.00     0.410 C  
HETATM   19  C   UNL     1     -12.395   8.682  72.039  1.00  0.00    -0.371 C  
BRANCH  17  20
HETATM   20  C   UNL     1     -11.388  10.943  70.060  1.00  0.00    -0.307 C  
BRANCH  20  21
HETATM   21  C   UNL     1     -11.219  11.719  68.745  1.00  0.00    -0.308 C  
BRANCH  21  22
HETATM   22  C   UNL     1     -10.251  11.062  67.746  1.00  0.00    -0.210 C  
HETATM   23  C   UNL     1     -10.078  11.829  66.409  1.00  0.00    -0.239 C  
HETATM   24  C   UNL     1      -9.286  11.043  65.362  1.00  0.00    -0.232 A  
HETATM   25  C   UNL     1      -9.512  13.224  66.665  1.00  0.00    -0.262 A  
HETATM   26  C   UNL     1      -8.230  13.393  67.214  1.00  0.00    -0.162 A  
HETATM   27  C   UNL     1      -9.559  11.251  63.997  1.00  0.00    -0.261 A  
HETATM   28  C   UNL     1      -8.893  10.513  63.016  1.00  0.00    -0.226 A  
HETATM   29  C   UNL     1      -7.770  14.661  67.568  1.00  0.00    -0.216 A  
HETATM   30  C   UNL     1      -7.944   9.571  63.393  1.00  0.00    -0.141 A  
HETATM   31  C   UNL     1      -8.585  15.766  67.367  1.00  0.00    -0.175 A  
HETATM   32  F   UNL     1      -8.154  16.979  67.734  1.00  0.00    -0.179 F  
HETATM   33  C   UNL     1      -9.848  15.629  66.802  1.00  0.00    -0.255 A  
HETATM   34  F   UNL     1      -7.316   8.852  62.453  1.00  0.00    -0.101 F  
HETATM   35  C   UNL     1      -7.639   9.363  64.729  1.00  0.00    -0.111 A  
HETATM   36  C   UNL     1      -8.303  10.099  65.710  1.00  0.00    -0.147 A  
HETATM   37  C   UNL     1     -10.311  14.362  66.446  1.00  0.00    -0.289 A  
ENDBRANCH  21  22
ENDBRANCH  20  21
ENDBRANCH  17  20
ENDBRANCH  13  14
ENDBRANCH  10  13
ENDBRANCH   8   9
TORSDOF 6
ENDMDL
MODEL      185
REMARK 921   NORMALIZED FREE ENERGY PREDICTED BY IDOCK:   -3.81 KCAL/MOL
REMARK 922        TOTAL FREE ENERGY PREDICTED BY IDOCK:   -6.42 KCAL/MOL
REMARK 923 INTER-LIGAND FREE ENERGY PREDICTED BY IDOCK:   -5.70 KCAL/MOL
REMARK 924 INTRA-LIGAND FREE ENERGY PREDICTED BY IDOCK:   -0.72 KCAL/MOL
REMARK 927      BINDING AFFINITY PREDICTED BY RF-SCORE:    0.00 PKD
ROOT
HETATM    1  C   UNL     1     -11.692  16.235  67.707  1.00  0.00     0.278 C  
HETATM    2  C   UNL     1     -10.256  16.297  68.155  1.00  0.00    -0.258 A  
HETATM    3  C   UNL     1      -9.767  17.560  68.544  1.00  0.00    -0.319 A  
HETATM    4  C   UNL     1      -8.430  17.744  68.872  1.00  0.00    -0.136 A  
HETATM    5  C   UNL     1      -7.550  16.671  68.788  1.00  0.00    -0.227 A  
HETATM    6  C   UNL     1      -8.002  15.395  68.402  1.00  0.00    -0.131 A  
HETATM    7  C   UNL     1      -6.991  14.280  68.348  1.00  0.00    -0.100 C  
HETATM    8  C   UNL     1      -9.377  15.187  68.137  1.00  0.00    -0.192 A  
ENDROOT
BRANCH   8   9
HETATM    9  N   UNL     1      -9.814  13.868  67.831  1.00  0.00    -0.222 N  
HETATM   10  C   UNL     1     -10.672  13.140  68.642  1.00  0.00    -0.250 C  
HETATM   11  H   UNL     1      -9.479  13.434  66.971  1.00  0.00     0.000 HD 
HETATM   12  O   UNL     1     -11.145  13.540  69.703  1.00  0.00    -0.129 OA 
BRANCH  10  13
HETATM   13  C   UNL     1     -10.906  11.681  68.227  1.00  0.00    -0.219 C  
BRANCH  13  14
HETATM   14  N   UNL     1     -10.264  10.660  69.094  1.00  0.00    -0.213 NA 
HETATM   15  C   UNL     1     -10.631   9.302  68.603  1.00  0.00    -0.187 C  
HETATM   16  C   UNL     1      -9.931   8.842  67.293  1.00  0.00    -0.220 C  
HETATM   17  N   UNL     1      -8.464   9.005  67.273  1.00  0.00    -0.114 NA 
HETATM   18  C   UNL     1      -8.109  10.353  67.751  1.00  0.00    -0.103 C  
HETATM   19  C   UNL     1      -8.785  10.756  69.080  1.00  0.00    -0.130 C  
BRANCH  17  20
HETATM   20  C   UNL     1      -7.760   7.953  68.017  1.00  0.00    -0.125 C  
BRANCH  20  21
HETATM   21  C   UNL     1      -7.022   6.981  67.084  1.00  0.00    -0.078 C  
BRANCH  21  22
HETATM   22  C   UNL     1      -7.947   6.173  66.159  1.00  0.00    -0.108 C  
HETATM   23  C   UNL     1      -8.289   4.747  66.667  1.00  0.00    -0.106 C  
HETATM   24  C   UNL     1      -9.026   3.899  65.629  1.00  0.00    -0.133 A  
HETATM   25  C   UNL     1      -9.018   4.820  68.006  1.00  0.00    -0.126 A  
HETATM   26  C   UNL     1     -10.280   5.428  68.109  1.00  0.00    -0.226 A  
HETATM   27  C   UNL     1      -8.855   2.502  65.638  1.00  0.00    -0.127 A  
HETATM   28  C   UNL     1      -9.471   1.701  64.672  1.00  0.00    -0.086 A  
HETATM   29  C   UNL     1     -10.882   5.610  69.355  1.00  0.00    -0.334 A  
HETATM   30  C   UNL     1     -10.268   2.291  63.700  1.00  0.00    -0.143 A  
HETATM   31  C   UNL     1     -10.229   5.177  70.500  1.00  0.00    -0.260 A  
HETATM   32  F   UNL     1     -10.795   5.378  71.697  1.00  0.00    -0.290 F  
HETATM   33  C   UNL     1      -8.991   4.550  70.424  1.00  0.00    -0.144 A  
HETATM   34  F   UNL     1     -10.845   1.526  62.764  1.00  0.00    -0.099 F  
HETATM   35  C   UNL     1     -10.471   3.662  63.681  1.00  0.00    -0.262 A  
HETATM   36  C   UNL     1      -9.858   4.463  64.645  1.00  0.00    -0.097 A  
HETATM   37  C   UNL     1      -8.387   4.366  69.180  1.00  0.00    -0.087 A  
ENDBRANCH  21  22
ENDBRANCH  20  21
ENDBRANCH  17  20
ENDBRANCH  13  14
ENDBRANCH  10  13
ENDBRANCH   8   9
TORSDOF 6
ENDMDL
MODEL      186
REMARK 921   NORMALIZED FREE ENERGY PREDICTED BY IDOCK:   -3.79 KCAL/MOL
REMARK 922        TOTAL FREE ENERGY PREDICTED BY IDOCK:   -6.39 KCAL/MOL
REMARK 923 INTER-LIGAND FREE ENERGY PREDICTED BY IDOCK:   -6.19 KCAL/MOL
REMARK 924 INTRA-LIGAND FREE ENERGY PREDICTED BY IDOCK:   -0.20 KCAL/MOL
REMARK 927      BINDING AFFINITY PREDICTED BY RF-SCORE:    0.00 PKD
ROOT
HETATM    1  C   UNL     1     -10.391  14.141  66.706  1.00  0.00    -0.274 C  
HETATM    2  C   UNL     1     -10.596  15.260  67.693  1.00  0.00    -0.270 A  
HETATM    3  C   UNL     1     -10.436  16.572  67.205  1.00  0.00    -0.300 A  
HETATM    4  C   UNL     1     -10.500  17.668  68.056  1.00  0.00    -0.395 A  
HETATM    5  C   UNL     1     -10.696  17.468  69.417  1.00  0.00     0.228 A  
HETATM    6  C   UNL     1     -10.859  16.171  69.941  1.00  0.00    -0.355 A  
HETATM    7  C   UNL     1     -11.081  16.037  71.424  1.00  0.00    -0.070 C  
HETATM    8  C   UNL     1     -10.866  15.058  69.068  1.00  0.00    -0.242 A  
ENDROOT
BRANCH   8   9
HETATM    9  N   UNL     1     -11.116  13.769  69.619  1.00  0.00    -0.450 N  
HETATM   10  C   UNL     1     -12.318  13.412  70.211  1.00  0.00    -0.284 C  
HETATM   11  H   UNL     1     -10.373  13.072  69.576  1.00  0.00     0.000 HD 
HETATM   12  O   UNL     1     -13.291  14.154  70.331  1.00  0.00    -0.043 OA 
BRANCH  10  13
HETATM   13  C   UNL     1     -12.347  12.034  70.886  1.00  0.00    -0.285 C  
BRANCH  13  14
HETATM   14  N   UNL     1     -12.291  10.871  69.964  1.00  0.00    -0.330 NA 
HETATM   15  C   UNL     1     -10.885  10.672  69.515  1.00  0.00    -0.259 C  
HETATM   16  C   UNL     1      -9.915  10.068  70.569  1.00  0.00     0.029 C  
HETATM   17  N   UNL     1     -10.403   8.852  71.250  1.00  0.00    -0.258 NA 
HETATM   18  C   UNL     1     -11.791   9.060  71.699  1.00  0.00    -0.360 C  
HETATM   19  C   UNL     1     -12.737   9.614  70.611  1.00  0.00    -0.029 C  
BRANCH  17  20
HETATM   20  C   UNL     1     -10.264   7.641  70.431  1.00  0.00    -0.203 C  
BRANCH  20  21
HETATM   21  C   UNL     1      -8.818   7.428  69.957  1.00  0.00    -0.141 C  
BRANCH  21  22
HETATM   22  C   UNL     1      -8.639   6.239  68.998  1.00  0.00    -0.123 C  
HETATM   23  C   UNL     1      -9.222   6.458  67.577  1.00  0.00    -0.112 C  
HETATM   24  C   UNL     1      -9.220   5.188  66.723  1.00  0.00    -0.123 A  
HETATM   25  C   UNL     1      -8.533   7.638  66.895  1.00  0.00    -0.126 A  
HETATM   26  C   UNL     1      -7.161   7.598  66.595  1.00  0.00    -0.079 A  
HETATM   27  C   UNL     1     -10.216   5.020  65.742  1.00  0.00    -0.151 A  
HETATM   28  C   UNL     1     -10.277   3.850  64.981  1.00  0.00    -0.144 A  
HETATM   29  C   UNL     1      -6.510   8.725  66.094  1.00  0.00    -0.065 A  
HETATM   30  C   UNL     1      -9.339   2.847  65.189  1.00  0.00    -0.124 A  
HETATM   31  C   UNL     1      -7.228   9.893  65.882  1.00  0.00    -0.108 A  
HETATM   32  F   UNL     1      -6.595  10.982  65.428  1.00  0.00    -0.064 F  
HETATM   33  C   UNL     1      -8.591   9.952  66.146  1.00  0.00    -0.138 A  
HETATM   34  F   UNL     1      -9.407   1.718  64.472  1.00  0.00    -0.119 F  
HETATM   35  C   UNL     1      -8.335   2.996  66.134  1.00  0.00    -0.098 A  
HETATM   36  C   UNL     1      -8.272   4.164  66.894  1.00  0.00    -0.101 A  
HETATM   37  C   UNL     1      -9.246   8.826  66.647  1.00  0.00    -0.223 A  
ENDBRANCH  21  22
ENDBRANCH  20  21
ENDBRANCH  17  20
ENDBRANCH  13  14
ENDBRANCH  10  13
ENDBRANCH   8   9
TORSDOF 6
ENDMDL
MODEL      187
REMARK 921   NORMALIZED FREE ENERGY PREDICTED BY IDOCK:   -3.77 KCAL/MOL
REMARK 922        TOTAL FREE ENERGY PREDICTED BY IDOCK:   -6.37 KCAL/MOL
REMARK 923 INTER-LIGAND FREE ENERGY PREDICTED BY IDOCK:   -5.47 KCAL/MOL
REMARK 924 INTRA-LIGAND FREE ENERGY PREDICTED BY IDOCK:   -0.89 KCAL/MOL
REMARK 927      BINDING AFFINITY PREDICTED BY RF-SCORE:    0.00 PKD
ROOT
HETATM    1  C   UNL     1      -9.929   5.990  70.043  1.00  0.00    -0.227 C  
HETATM    2  C   UNL     1      -8.999   4.902  70.513  1.00  0.00    -0.159 A  
HETATM    3  C   UNL     1      -9.518   3.988  71.453  1.00  0.00    -0.230 A  
HETATM    4  C   UNL     1      -8.711   3.013  72.027  1.00  0.00    -0.110 A  
HETATM    5  C   UNL     1      -7.364   2.955  71.694  1.00  0.00    -0.040 A  
HETATM    6  C   UNL     1      -6.811   3.852  70.760  1.00  0.00    -0.033 A  
HETATM    7  C   UNL     1      -5.345   3.717  70.440  1.00  0.00    -0.008 C  
HETATM    8  C   UNL     1      -7.644   4.800  70.119  1.00  0.00    -0.055 A  
ENDROOT
BRANCH   8   9
HETATM    9  N   UNL     1      -7.071   5.636  69.120  1.00  0.00    -0.063 N  
HETATM   10  C   UNL     1      -7.435   5.589  67.783  1.00  0.00    -0.080 C  
HETATM   11  H   UNL     1      -6.354   6.305  69.402  1.00  0.00     0.000 HD 
HETATM   12  O   UNL     1      -8.278   4.830  67.310  1.00  0.00    -0.105 OA 
BRANCH  10  13
HETATM   13  C   UNL     1      -6.599   6.455  66.831  1.00  0.00    -0.055 C  
BRANCH  13  14
HETATM   14  N   UNL     1      -7.266   7.687  66.338  1.00  0.00    -0.077 NA 
HETATM   15  C   UNL     1      -7.766   8.470  67.503  1.00  0.00    -0.098 C  
HETATM   16  C   UNL     1      -6.685   9.214  68.336  1.00  0.00    -0.059 C  
HETATM   17  N   UNL     1      -5.736  10.029  67.551  1.00  0.00    -0.045 NA 
HETATM   18  C   UNL     1      -5.239   9.246  66.406  1.00  0.00    -0.040 C  
HETATM   19  C   UNL     1      -6.346   8.561  65.573  1.00  0.00    -0.055 C  
BRANCH  17  20
HETATM   20  C   UNL     1      -6.300  11.320  67.132  1.00  0.00    -0.096 C  
BRANCH  20  21
HETATM   21  C   UNL     1      -7.155  11.961  68.235  1.00  0.00    -0.081 C  
BRANCH  21  22
HETATM   22  C   UNL     1      -7.804  13.295  67.833  1.00  0.00    -0.152 C  
HETATM   23  C   UNL     1      -9.096  13.159  66.983  1.00  0.00    -0.231 C  
HETATM   24  C   UNL     1      -9.590  14.493  66.421  1.00  0.00    -0.324 A  
HETATM   25  C   UNL     1     -10.169  12.404  67.764  1.00  0.00    -0.212 A  
HETATM   26  C   UNL     1     -10.708  12.935  68.949  1.00  0.00    -0.195 A  
HETATM   27  C   UNL     1     -10.288  14.506  65.199  1.00  0.00    -0.438 A  
HETATM   28  C   UNL     1     -10.708  15.710  64.629  1.00  0.00    -0.164 A  
HETATM   29  C   UNL     1     -11.589  12.184  69.727  1.00  0.00    -0.334 A  
HETATM   30  C   UNL     1     -10.442  16.907  65.283  1.00  0.00    -0.081 A  
HETATM   31  C   UNL     1     -11.942  10.905  69.321  1.00  0.00    -0.310 A  
HETATM   32  F   UNL     1     -12.765  10.175  70.084  1.00  0.00    -0.275 F  
HETATM   33  C   UNL     1     -11.443  10.366  68.141  1.00  0.00    -0.194 A  
HETATM   34  F   UNL     1     -10.829  18.063  64.729  1.00  0.00    -0.043 F  
HETATM   35  C   UNL     1      -9.775  16.921  66.498  1.00  0.00    -0.295 A  
HETATM   36  C   UNL     1      -9.356  15.719  67.068  1.00  0.00    -0.235 A  
HETATM   37  C   UNL     1     -10.562  11.115  67.359  1.00  0.00    -0.272 A  
ENDBRANCH  21  22
ENDBRANCH  20  21
ENDBRANCH  17  20
ENDBRANCH  13  14
ENDBRANCH  10  13
ENDBRANCH   8   9
TORSDOF 6
ENDMDL
MODEL      188
REMARK 921   NORMALIZED FREE ENERGY PREDICTED BY IDOCK:   -3.76 KCAL/MOL
REMARK 922        TOTAL FREE ENERGY PREDICTED BY IDOCK:   -6.35 KCAL/MOL
REMARK 923 INTER-LIGAND FREE ENERGY PREDICTED BY IDOCK:   -5.78 KCAL/MOL
REMARK 924 INTRA-LIGAND FREE ENERGY PREDICTED BY IDOCK:   -0.57 KCAL/MOL
REMARK 927      BINDING AFFINITY PREDICTED BY RF-SCORE:    0.00 PKD
ROOT
HETATM    1  C   UNL     1      -9.131   6.861  73.942  1.00  0.00    -0.211 C  
HETATM    2  C   UNL     1      -9.142   5.528  73.240  1.00  0.00    -0.129 A  
HETATM    3  C   UNL     1      -8.612   4.433  73.952  1.00  0.00    -0.101 A  
HETATM    4  C   UNL     1      -8.480   3.185  73.356  1.00  0.00    -0.074 A  
HETATM    5  C   UNL     1      -8.848   3.018  72.027  1.00  0.00    -0.120 A  
HETATM    6  C   UNL     1      -9.380   4.090  71.284  1.00  0.00    -0.212 A  
HETATM    7  C   UNL     1      -9.768   3.827  69.853  1.00  0.00    -0.200 C  
HETATM    8  C   UNL     1      -9.583   5.343  71.908  1.00  0.00    -0.154 A  
ENDROOT
BRANCH   8   9
HETATM    9  N   UNL     1     -10.200   6.381  71.154  1.00  0.00    -0.189 N  
HETATM   10  C   UNL     1      -9.489   7.303  70.400  1.00  0.00    -0.165 C  
HETATM   11  H   UNL     1     -11.217   6.451  71.168  1.00  0.00     0.000 HD 
HETATM   12  O   UNL     1      -8.265   7.335  70.299  1.00  0.00    -0.128 OA 
BRANCH  10  13
HETATM   13  C   UNL     1     -10.315   8.440  69.783  1.00  0.00    -0.216 C  
BRANCH  13  14
HETATM   14  N   UNL     1     -10.311   9.717  70.542  1.00  0.00    -0.281 NA 
HETATM   15  C   UNL     1     -10.001  10.837  69.610  1.00  0.00     0.036 C  
HETATM   16  C   UNL     1     -11.144  11.249  68.639  1.00  0.00    -0.232 C  
HETATM   17  N   UNL     1     -12.460  11.470  69.274  1.00  0.00    -0.194 NA 
HETATM   18  C   UNL     1     -12.763  10.354  70.187  1.00  0.00    -0.083 C  
HETATM   19  C   UNL     1     -11.622  10.006  71.169  1.00  0.00    -0.378 C  
BRANCH  17  20
HETATM   20  C   UNL     1     -12.561  12.773  69.943  1.00  0.00     0.215 C  
BRANCH  20  21
HETATM   21  C   UNL     1     -11.204  13.487  70.025  1.00  0.00     0.088 C  
BRANCH  21  22
HETATM   22  C   UNL     1     -11.122  14.780  69.195  1.00  0.00    -0.278 C  
HETATM   23  C   UNL     1      -9.701  15.394  69.089  1.00  0.00    -0.252 C  
HETATM   24  C   UNL     1      -9.693  16.783  68.446  1.00  0.00    -0.247 A  
HETATM   25  C   UNL     1      -8.747  14.415  68.410  1.00  0.00    -0.180 A  
HETATM   26  C   UNL     1      -8.946  14.021  67.076  1.00  0.00    -0.248 A  
HETATM   27  C   UNL     1      -8.700  17.707  68.823  1.00  0.00    -0.207 A  
HETATM   28  C   UNL     1      -8.693  19.001  68.296  1.00  0.00    -0.366 A  
HETATM   29  C   UNL     1      -8.151  13.028  66.502  1.00  0.00     0.514 A  
HETATM   30  C   UNL     1      -9.671  19.375  67.383  1.00  0.00    -0.328 A  
HETATM   31  C   UNL     1      -7.150  12.432  67.256  1.00  0.00    -0.128 A  
HETATM   32  F   UNL     1      -6.408  11.459  66.713  1.00  0.00    -0.096 F  
HETATM   33  C   UNL     1      -6.916  12.821  68.569  1.00  0.00    -0.095 A  
HETATM   34  F   UNL     1      -9.675  20.620  66.890  1.00  0.00    -0.540 F  
HETATM   35  C   UNL     1     -10.647  18.477  66.978  1.00  0.00    -0.421 A  
HETATM   36  C   UNL     1     -10.655  17.185  67.502  1.00  0.00    -0.323 A  
HETATM   37  C   UNL     1      -7.709  13.815  69.146  1.00  0.00     0.145 A  
ENDBRANCH  21  22
ENDBRANCH  20  21
ENDBRANCH  17  20
ENDBRANCH  13  14
ENDBRANCH  10  13
ENDBRANCH   8   9
TORSDOF 6
ENDMDL
MODEL      189
REMARK 921   NORMALIZED FREE ENERGY PREDICTED BY IDOCK:   -3.73 KCAL/MOL
REMARK 922        TOTAL FREE ENERGY PREDICTED BY IDOCK:   -6.31 KCAL/MOL
REMARK 923 INTER-LIGAND FREE ENERGY PREDICTED BY IDOCK:   -6.15 KCAL/MOL
REMARK 924 INTRA-LIGAND FREE ENERGY PREDICTED BY IDOCK:   -0.16 KCAL/MOL
REMARK 927      BINDING AFFINITY PREDICTED BY RF-SCORE:    0.00 PKD
ROOT
HETATM    1  C   UNL     1      -9.728   5.558  74.066  1.00  0.00    -0.166 C  
HETATM    2  C   UNL     1     -10.020   4.256  73.369  1.00  0.00    -0.176 A  
HETATM    3  C   UNL     1     -10.977   3.415  73.972  1.00  0.00    -0.219 A  
HETATM    4  C   UNL     1     -11.241   2.148  73.466  1.00  0.00    -0.310 A  
HETATM    5  C   UNL     1     -10.529   1.688  72.366  1.00  0.00    -0.226 A  
HETATM    6  C   UNL     1      -9.565   2.499  71.738  1.00  0.00    -0.213 A  
HETATM    7  C   UNL     1      -8.845   1.935  70.541  1.00  0.00    -0.125 C  
HETATM    8  C   UNL     1      -9.345   3.817  72.205  1.00  0.00    -0.125 A  
ENDROOT
BRANCH   8   9
HETATM    9  N   UNL     1      -8.424   4.639  71.497  1.00  0.00    -0.109 N  
HETATM   10  C   UNL     1      -8.782   5.435  70.419  1.00  0.00    -0.129 C  
HETATM   11  H   UNL     1      -7.449   4.644  71.797  1.00  0.00     0.000 HD 
HETATM   12  O   UNL     1      -9.917   5.520  69.954  1.00  0.00    -0.179 OA 
BRANCH  10  13
HETATM   13  C   UNL     1      -7.626   6.130  69.687  1.00  0.00    -0.093 C  
BRANCH  13  14
HETATM   14  N   UNL     1      -8.013   7.278  68.829  1.00  0.00    -0.121 NA 
HETATM   15  C   UNL     1      -8.504   8.388  69.692  1.00  0.00    -0.127 C  
HETATM   16  C   UNL     1      -7.415   9.163  70.487  1.00  0.00    -0.116 C  
HETATM   17  N   UNL     1      -6.257   9.617  69.690  1.00  0.00    -0.043 NA 
HETATM   18  C   UNL     1      -5.772   8.512  68.846  1.00  0.00    -0.040 C  
HETATM   19  C   UNL     1      -6.875   7.798  68.034  1.00  0.00    -0.072 C  
BRANCH  17  20
HETATM   20  C   UNL     1      -6.541  10.826  68.906  1.00  0.00    -0.057 C  
BRANCH  20  21
HETATM   21  C   UNL     1      -7.042  10.493  67.493  1.00  0.00    -0.089 C  
BRANCH  21  22
HETATM   22  C   UNL     1      -8.286  11.289  67.063  1.00  0.00    -0.153 C  
HETATM   23  C   UNL     1      -8.911  10.838  65.716  1.00  0.00    -0.203 C  
HETATM   24  C   UNL     1     -10.006  11.783  65.214  1.00  0.00    -0.284 A  
HETATM   25  C   UNL     1      -9.369   9.384  65.801  1.00  0.00    -0.301 A  
HETATM   26  C   UNL     1     -10.389   8.999  66.688  1.00  0.00    -0.289 A  
HETATM   27  C   UNL     1     -10.216  11.915  63.829  1.00  0.00    -0.442 A  
HETATM   28  C   UNL     1     -11.169  12.807  63.333  1.00  0.00    -0.325 A  
HETATM   29  C   UNL     1     -10.712   7.653  66.858  1.00  0.00    -0.271 A  
HETATM   30  C   UNL     1     -11.925  13.564  64.220  1.00  0.00    -0.432 A  
HETATM   31  C   UNL     1     -10.024   6.688  66.137  1.00  0.00     0.200 A  
HETATM   32  F   UNL     1     -10.316   5.394  66.323  1.00  0.00    -0.205 F  
HETATM   33  C   UNL     1      -9.028   7.043  65.235  1.00  0.00     0.266 A  
HETATM   34  F   UNL     1     -12.829  14.432  63.745  1.00  0.00    -0.201 F  
HETATM   35  C   UNL     1     -11.754  13.437  65.589  1.00  0.00    -0.374 A  
HETATM   36  C   UNL     1     -10.802  12.546  66.085  1.00  0.00    -0.304 A  
HETATM   37  C   UNL     1      -8.703   8.389  65.062  1.00  0.00    -0.092 A  
ENDBRANCH  21  22
ENDBRANCH  20  21
ENDBRANCH  17  20
ENDBRANCH  13  14
ENDBRANCH  10  13
ENDBRANCH   8   9
TORSDOF 6
ENDMDL
MODEL      190
REMARK 921   NORMALIZED FREE ENERGY PREDICTED BY IDOCK:   -3.72 KCAL/MOL
REMARK 922        TOTAL FREE ENERGY PREDICTED BY IDOCK:   -6.30 KCAL/MOL
REMARK 923 INTER-LIGAND FREE ENERGY PREDICTED BY IDOCK:   -5.92 KCAL/MOL
REMARK 924 INTRA-LIGAND FREE ENERGY PREDICTED BY IDOCK:   -0.38 KCAL/MOL
REMARK 927      BINDING AFFINITY PREDICTED BY RF-SCORE:    0.00 PKD
ROOT
HETATM    1  C   UNL     1      -9.718   6.120  72.833  1.00  0.00    -0.162 C  
HETATM    2  C   UNL     1     -10.040   4.653  72.714  1.00  0.00    -0.220 A  
HETATM    3  C   UNL     1     -10.726   4.066  73.795  1.00  0.00    -0.317 A  
HETATM    4  C   UNL     1     -10.977   2.699  73.830  1.00  0.00    -0.303 A  
HETATM    5  C   UNL     1     -10.517   1.892  72.796  1.00  0.00    -0.231 A  
HETATM    6  C   UNL     1      -9.827   2.444  71.700  1.00  0.00    -0.216 A  
HETATM    7  C   UNL     1      -9.374   1.506  70.613  1.00  0.00    -0.168 C  
HETATM    8  C   UNL     1      -9.633   3.844  71.626  1.00  0.00    -0.162 A  
ENDROOT
BRANCH   8   9
HETATM    9  N   UNL     1      -9.006   4.378  70.465  1.00  0.00    -0.097 N  
HETATM   10  C   UNL     1      -9.667   5.162  69.531  1.00  0.00    -0.192 C  
HETATM   11  H   UNL     1      -8.018   4.174  70.312  1.00  0.00     0.000 HD 
HETATM   12  O   UNL     1     -10.853   5.479  69.593  1.00  0.00    -0.328 OA 
BRANCH  10  13
HETATM   13  C   UNL     1      -8.867   5.515  68.269  1.00  0.00    -0.104 C  
BRANCH  13  14
HETATM   14  N   UNL     1      -8.571   6.959  68.085  1.00  0.00    -0.124 NA 
HETATM   15  C   UNL     1      -7.187   7.108  67.556  1.00  0.00    -0.090 C  
HETATM   16  C   UNL     1      -6.987   6.728  66.061  1.00  0.00    -0.065 C  
HETATM   17  N   UNL     1      -7.954   7.332  65.123  1.00  0.00    -0.123 NA 
HETATM   18  C   UNL     1      -9.321   7.172  65.650  1.00  0.00     0.338 C  
HETATM   19  C   UNL     1      -9.492   7.606  67.122  1.00  0.00    -0.155 C  
BRANCH  17  20
HETATM   20  C   UNL     1      -7.646   8.733  64.806  1.00  0.00    -0.107 C  
BRANCH  20  21
HETATM   21  C   UNL     1      -8.538   9.711  65.584  1.00  0.00    -0.149 C  
BRANCH  21  22
HETATM   22  C   UNL     1      -7.768  10.842  66.288  1.00  0.00    -0.146 C  
HETATM   23  C   UNL     1      -8.663  11.932  66.934  1.00  0.00    -0.191 C  
HETATM   24  C   UNL     1      -7.872  13.143  67.432  1.00  0.00    -0.169 A  
HETATM   25  C   UNL     1      -9.557  11.320  68.009  1.00  0.00    -0.182 A  
HETATM   26  C   UNL     1      -9.005  10.739  69.163  1.00  0.00    -0.100 A  
HETATM   27  C   UNL     1      -8.488  14.409  67.441  1.00  0.00    -0.216 A  
HETATM   28  C   UNL     1      -7.779  15.545  67.838  1.00  0.00    -0.142 A  
HETATM   29  C   UNL     1      -9.815  10.065  70.077  1.00  0.00    -0.247 A  
HETATM   30  C   UNL     1      -6.454  15.421  68.237  1.00  0.00    -0.116 A  
HETATM   31  C   UNL     1     -11.180   9.976  69.846  1.00  0.00    -0.275 A  
HETATM   32  F   UNL     1     -11.952   9.303  70.710  1.00  0.00    -0.300 F  
HETATM   33  C   UNL     1     -11.756  10.562  68.726  1.00  0.00    -0.190 A  
HETATM   34  F   UNL     1      -5.769  16.512  68.603  1.00  0.00    -0.112 F  
HETATM   35  C   UNL     1      -5.830  14.183  68.259  1.00  0.00    -0.116 A  
HETATM   36  C   UNL     1      -6.537  13.048  67.863  1.00  0.00    -0.131 A  
HETATM   37  C   UNL     1     -10.948  11.239  67.810  1.00  0.00    -0.305 A  
ENDBRANCH  21  22
ENDBRANCH  20  21
ENDBRANCH  17  20
ENDBRANCH  13  14
ENDBRANCH  10  13
ENDBRANCH   8   9
TORSDOF 6
ENDMDL
MODEL      191
REMARK 921   NORMALIZED FREE ENERGY PREDICTED BY IDOCK:   -3.69 KCAL/MOL
REMARK 922        TOTAL FREE ENERGY PREDICTED BY IDOCK:   -6.25 KCAL/MOL
REMARK 923 INTER-LIGAND FREE ENERGY PREDICTED BY IDOCK:   -6.11 KCAL/MOL
REMARK 924 INTRA-LIGAND FREE ENERGY PREDICTED BY IDOCK:   -0.14 KCAL/MOL
REMARK 927      BINDING AFFINITY PREDICTED BY RF-SCORE:    0.00 PKD
ROOT
HETATM    1  C   UNL     1      -6.535  17.182  66.359  1.00  0.00    -0.236 C  
HETATM    2  C   UNL     1      -7.508  18.304  66.609  1.00  0.00    -0.253 A  
HETATM    3  C   UNL     1      -6.968  19.603  66.697  1.00  0.00    -0.216 A  
HETATM    4  C   UNL     1      -7.766  20.691  67.029  1.00  0.00    -0.319 A  
HETATM    5  C   UNL     1      -9.113  20.494  67.308  1.00  0.00    -0.473 A  
HETATM    6  C   UNL     1      -9.686  19.210  67.231  1.00  0.00    -0.386 A  
HETATM    7  C   UNL     1     -11.155  19.080  67.534  1.00  0.00    -0.188 C  
HETATM    8  C   UNL     1      -8.894  18.111  66.823  1.00  0.00    -0.264 A  
ENDROOT
BRANCH   8   9
HETATM    9  N   UNL     1      -9.523  16.843  66.675  1.00  0.00    -0.253 N  
HETATM   10  C   UNL     1      -9.704  15.952  67.723  1.00  0.00    -0.220 C  
HETATM   11  H   UNL     1      -9.859  16.575  65.750  1.00  0.00     0.000 HD 
HETATM   12  O   UNL     1      -9.344  16.148  68.882  1.00  0.00    -0.213 OA 
BRANCH  10  13
HETATM   13  C   UNL     1     -10.261  14.574  67.340  1.00  0.00    -0.240 C  
BRANCH  13  14
HETATM   14  N   UNL     1     -10.305  13.577  68.440  1.00  0.00    -0.244 NA 
HETATM   15  C   UNL     1     -11.721  13.184  68.684  1.00  0.00    -0.326 C  
HETATM   16  C   UNL     1     -12.361  12.252  67.617  1.00  0.00     0.680 C  
HETATM   17  N   UNL     1     -11.562  11.062  67.260  1.00  0.00    -0.474 NA 
HETATM   18  C   UNL     1     -10.166  11.460  67.011  1.00  0.00    -0.213 C  
HETATM   19  C   UNL     1      -9.548  12.345  68.116  1.00  0.00    -0.218 C  
BRANCH  17  20
HETATM   20  C   UNL     1     -11.660   9.986  68.256  1.00  0.00     0.277 C  
BRANCH  20  21
HETATM   21  C   UNL     1     -10.295   9.644  68.871  1.00  0.00    -0.220 C  
BRANCH  21  22
HETATM   22  C   UNL     1      -9.976   8.139  68.897  1.00  0.00    -0.198 C  
HETATM   23  C   UNL     1      -9.685   7.513  67.508  1.00  0.00    -0.190 C  
HETATM   24  C   UNL     1      -9.587   5.986  67.544  1.00  0.00    -0.116 A  
HETATM   25  C   UNL     1      -8.466   8.175  66.870  1.00  0.00    -0.119 A  
HETATM   26  C   UNL     1      -7.195   8.069  67.460  1.00  0.00    -0.088 A  
HETATM   27  C   UNL     1      -9.958   5.248  66.405  1.00  0.00    -0.227 A  
HETATM   28  C   UNL     1      -9.932   3.851  66.420  1.00  0.00    -0.041 A  
HETATM   29  C   UNL     1      -6.112   8.783  66.948  1.00  0.00    -0.058 A  
HETATM   30  C   UNL     1      -9.526   3.186  67.570  1.00  0.00    -0.142 A  
HETATM   31  C   UNL     1      -6.292   9.599  65.840  1.00  0.00    -0.077 A  
HETATM   32  F   UNL     1      -5.258  10.306  65.368  1.00  0.00    -0.045 F  
HETATM   33  C   UNL     1      -7.533   9.703  65.223  1.00  0.00    -0.113 A  
HETATM   34  F   UNL     1      -9.517   1.847  67.590  1.00  0.00    -0.192 F  
HETATM   35  C   UNL     1      -9.135   3.889  68.698  1.00  0.00    -0.193 A  
HETATM   36  C   UNL     1      -9.160   5.283  68.684  1.00  0.00    -0.129 A  
HETATM   37  C   UNL     1      -8.618   8.988  65.732  1.00  0.00    -0.180 A  
ENDBRANCH  21  22
ENDBRANCH  20  21
ENDBRANCH  17  20
ENDBRANCH  13  14
ENDBRANCH  10  13
ENDBRANCH   8   9
TORSDOF 6
ENDMDL
MODEL      192
REMARK 921   NORMALIZED FREE ENERGY PREDICTED BY IDOCK:   -3.63 KCAL/MOL
REMARK 922        TOTAL FREE ENERGY PREDICTED BY IDOCK:   -6.17 KCAL/MOL
REMARK 923 INTER-LIGAND FREE ENERGY PREDICTED BY IDOCK:   -5.76 KCAL/MOL
REMARK 924 INTRA-LIGAND FREE ENERGY PREDICTED BY IDOCK:   -0.41 KCAL/MOL
REMARK 927      BINDING AFFINITY PREDICTED BY RF-SCORE:    0.00 PKD
ROOT
HETATM    1  C   UNL     1      -9.881   9.047  68.731  1.00  0.00    -0.180 C  
HETATM    2  C   UNL     1     -10.659   8.962  70.019  1.00  0.00    -0.234 A  
HETATM    3  C   UNL     1     -11.709   9.887  70.186  1.00  0.00    -0.239 A  
HETATM    4  C   UNL     1     -12.418   9.961  71.379  1.00  0.00    -0.495 A  
HETATM    5  C   UNL     1     -12.067   9.131  72.436  1.00  0.00    -0.224 A  
HETATM    6  C   UNL     1     -11.023   8.196  72.306  1.00  0.00    -0.399 A  
HETATM    7  C   UNL     1     -10.712   7.323  73.493  1.00  0.00    -0.367 C  
HETATM    8  C   UNL     1     -10.346   8.068  71.070  1.00  0.00    -0.201 A  
ENDROOT
BRANCH   8   9
HETATM    9  N   UNL     1      -9.352   7.056  70.946  1.00  0.00    -0.157 N  
HETATM   10  C   UNL     1      -9.615   5.780  70.471  1.00  0.00    -0.173 C  
HETATM   11  H   UNL     1      -8.396   7.281  71.221  1.00  0.00     0.000 HD 
HETATM   12  O   UNL     1     -10.719   5.378  70.110  1.00  0.00    -0.298 OA 
BRANCH  10  13
HETATM   13  C   UNL     1      -8.452   4.782  70.556  1.00  0.00    -0.095 C  
BRANCH  13  14
HETATM   14  N   UNL     1      -7.145   5.283  70.062  1.00  0.00    -0.060 NA 
HETATM   15  C   UNL     1      -6.238   4.125  69.823  1.00  0.00    -0.027 C  
HETATM   16  C   UNL     1      -6.550   3.267  68.564  1.00  0.00    -0.040 C  
HETATM   17  N   UNL     1      -6.734   4.029  67.313  1.00  0.00    -0.046 NA 
HETATM   18  C   UNL     1      -7.638   5.167  67.555  1.00  0.00    -0.088 C  
HETATM   19  C   UNL     1      -7.269   6.025  68.785  1.00  0.00    -0.083 C  
BRANCH  17  20
HETATM   20  C   UNL     1      -5.465   4.453  66.708  1.00  0.00    -0.013 C  
BRANCH  20  21
HETATM   21  C   UNL     1      -5.659   5.007  65.288  1.00  0.00    -0.014 C  
BRANCH  21  22
HETATM   22  C   UNL     1      -6.541   6.265  65.218  1.00  0.00    -0.043 C  
HETATM   23  C   UNL     1      -7.336   6.427  63.896  1.00  0.00    -0.070 C  
HETATM   24  C   UNL     1      -8.028   7.786  63.773  1.00  0.00    -0.101 A  
HETATM   25  C   UNL     1      -8.289   5.251  63.700  1.00  0.00    -0.118 A  
HETATM   26  C   UNL     1      -9.347   5.021  64.597  1.00  0.00     0.087 A  
HETATM   27  C   UNL     1      -8.226   8.342  62.495  1.00  0.00    -0.179 A  
HETATM   28  C   UNL     1      -8.806   9.604  62.347  1.00  0.00    -0.262 A  
HETATM   29  C   UNL     1     -10.132   3.873  64.490  1.00  0.00    -0.224 A  
HETATM   30  C   UNL     1      -9.200  10.313  63.475  1.00  0.00    -0.289 A  
HETATM   31  C   UNL     1      -9.871   2.956  63.482  1.00  0.00    -0.126 A  
HETATM   32  F   UNL     1     -10.607   1.841  63.399  1.00  0.00    -0.126 F  
HETATM   33  C   UNL     1      -8.847   3.171  62.567  1.00  0.00    -0.081 A  
HETATM   34  F   UNL     1      -9.741  11.530  63.336  1.00  0.00    -0.267 F  
HETATM   35  C   UNL     1      -9.037   9.780  64.744  1.00  0.00    -0.290 A  
HETATM   36  C   UNL     1      -8.459   8.519  64.893  1.00  0.00    -0.166 A  
HETATM   37  C   UNL     1      -8.060   4.319  62.670  1.00  0.00    -0.072 A  
ENDBRANCH  21  22
ENDBRANCH  20  21
ENDBRANCH  17  20
ENDBRANCH  13  14
ENDBRANCH  10  13
ENDBRANCH   8   9
TORSDOF 6
ENDMDL
MODEL      193
REMARK 921   NORMALIZED FREE ENERGY PREDICTED BY IDOCK:   -3.63 KCAL/MOL
REMARK 922        TOTAL FREE ENERGY PREDICTED BY IDOCK:   -6.17 KCAL/MOL
REMARK 923 INTER-LIGAND FREE ENERGY PREDICTED BY IDOCK:   -6.12 KCAL/MOL
REMARK 924 INTRA-LIGAND FREE ENERGY PREDICTED BY IDOCK:   -0.04 KCAL/MOL
REMARK 927      BINDING AFFINITY PREDICTED BY RF-SCORE:    0.00 PKD
ROOT
HETATM    1  C   UNL     1     -10.276  16.307  65.870  1.00  0.00    -0.384 C  
HETATM    2  C   UNL     1      -9.645  17.343  66.763  1.00  0.00    -0.283 A  
HETATM    3  C   UNL     1     -10.077  18.674  66.592  1.00  0.00    -0.418 A  
HETATM    4  C   UNL     1      -9.483  19.717  67.292  1.00  0.00    -0.446 A  
HETATM    5  C   UNL     1      -8.425  19.450  68.152  1.00  0.00    -0.367 A  
HETATM    6  C   UNL     1      -7.967  18.133  68.347  1.00  0.00    -0.312 A  
HETATM    7  C   UNL     1      -6.825  17.923  69.306  1.00  0.00    -0.183 C  
HETATM    8  C   UNL     1      -8.616  17.060  67.692  1.00  0.00    -0.210 A  
ENDROOT
BRANCH   8   9
HETATM    9  N   UNL     1      -8.181  15.734  67.974  1.00  0.00    -0.139 N  
HETATM   10  C   UNL     1      -7.100  15.134  67.346  1.00  0.00    -0.187 C  
HETATM   11  H   UNL     1      -8.692  15.197  68.675  1.00  0.00     0.000 HD 
HETATM   12  O   UNL     1      -6.404  15.665  66.484  1.00  0.00     0.214 OA 
BRANCH  10  13
HETATM   13  C   UNL     1      -6.879  13.649  67.669  1.00  0.00    -0.174 C  
BRANCH  13  14
HETATM   14  N   UNL     1      -7.680  13.116  68.800  1.00  0.00    -0.061 NA 
HETATM   15  C   UNL     1      -9.121  13.404  68.556  1.00  0.00    -0.077 C  
HETATM   16  C   UNL     1      -9.812  12.534  67.467  1.00  0.00    -0.198 C  
HETATM   17  N   UNL     1      -9.603  11.078  67.599  1.00  0.00    -0.167 NA 
HETATM   18  C   UNL     1      -8.175  10.802  67.832  1.00  0.00    -0.113 C  
HETATM   19  C   UNL     1      -7.536  11.650  68.953  1.00  0.00    -0.092 C  
BRANCH  17  20
HETATM   20  C   UNL     1     -10.458  10.468  68.626  1.00  0.00    -0.191 C  
BRANCH  20  21
HETATM   21  C   UNL     1     -10.752   8.990  68.329  1.00  0.00    -0.155 C  
BRANCH  21  22
HETATM   22  C   UNL     1     -10.382   8.032  69.474  1.00  0.00    -0.221 C  
HETATM   23  C   UNL     1      -9.787   6.674  69.017  1.00  0.00    -0.149 C  
HETATM   24  C   UNL     1      -9.634   5.669  70.160  1.00  0.00    -0.215 A  
HETATM   25  C   UNL     1      -8.493   6.894  68.238  1.00  0.00    -0.125 A  
HETATM   26  C   UNL     1      -7.365   7.462  68.856  1.00  0.00    -0.091 A  
HETATM   27  C   UNL     1      -9.732   4.292  69.882  1.00  0.00    -0.291 A  
HETATM   28  C   UNL     1      -9.651   3.349  70.908  1.00  0.00    -0.239 A  
HETATM   29  C   UNL     1      -6.232   7.783  68.109  1.00  0.00    -0.045 A  
HETATM   30  C   UNL     1      -9.461   3.775  72.217  1.00  0.00    -0.129 A  
HETATM   31  C   UNL     1      -6.216   7.530  66.745  1.00  0.00    -0.048 A  
HETATM   32  F   UNL     1      -5.138   7.866  66.025  1.00  0.00    -0.023 F  
HETATM   33  C   UNL     1      -7.308   6.947  66.113  1.00  0.00    -0.076 A  
HETATM   34  F   UNL     1      -9.399   2.871  73.204  1.00  0.00    -0.093 F  
HETATM   35  C   UNL     1      -9.338   5.123  72.516  1.00  0.00    -0.152 A  
HETATM   36  C   UNL     1      -9.418   6.066  71.492  1.00  0.00    -0.164 A  
HETATM   37  C   UNL     1      -8.444   6.623  66.857  1.00  0.00    -0.115 A  
ENDBRANCH  21  22
ENDBRANCH  20  21
ENDBRANCH  17  20
ENDBRANCH  13  14
ENDBRANCH  10  13
ENDBRANCH   8   9
TORSDOF 6
ENDMDL
MODEL      194
REMARK 921   NORMALIZED FREE ENERGY PREDICTED BY IDOCK:   -3.62 KCAL/MOL
REMARK 922        TOTAL FREE ENERGY PREDICTED BY IDOCK:   -6.16 KCAL/MOL
REMARK 923 INTER-LIGAND FREE ENERGY PREDICTED BY IDOCK:   -6.35 KCAL/MOL
REMARK 924 INTRA-LIGAND FREE ENERGY PREDICTED BY IDOCK:    0.19 KCAL/MOL
REMARK 927      BINDING AFFINITY PREDICTED BY RF-SCORE:    0.00 PKD
ROOT
HETATM    1  C   UNL     1      -9.911  11.185  62.346  1.00  0.00     0.235 C  
HETATM    2  C   UNL     1     -10.779  11.679  63.473  1.00  0.00    -0.495 A  
HETATM    3  C   UNL     1     -12.161  11.773  63.214  1.00  0.00    -0.400 A  
HETATM    4  C   UNL     1     -13.032  12.315  64.151  1.00  0.00    -0.276 A  
HETATM    5  C   UNL     1     -12.531  12.802  65.352  1.00  0.00    -0.478 A  
HETATM    6  C   UNL     1     -11.156  12.725  65.644  1.00  0.00    -0.311 A  
HETATM    7  C   UNL     1     -10.691  13.261  66.973  1.00  0.00    -0.263 C  
HETATM    8  C   UNL     1     -10.275  12.108  64.724  1.00  0.00    -0.281 A  
ENDROOT
BRANCH   8   9
HETATM    9  N   UNL     1      -8.905  11.973  65.087  1.00  0.00    -0.115 N  
HETATM   10  C   UNL     1      -8.377  10.827  65.661  1.00  0.00    -0.144 C  
HETATM   11  H   UNL     1      -8.280  12.760  64.916  1.00  0.00     0.000 HD 
HETATM   12  O   UNL     1      -9.018   9.811  65.923  1.00  0.00    -0.143 OA 
BRANCH  10  13
HETATM   13  C   UNL     1      -6.917  10.924  66.125  1.00  0.00    -0.099 C  
BRANCH  13  14
HETATM   14  N   UNL     1      -6.448   9.813  66.993  1.00  0.00    -0.065 NA 
HETATM   15  C   UNL     1      -5.170  10.212  67.647  1.00  0.00    -0.037 C  
HETATM   16  C   UNL     1      -5.291  11.252  68.796  1.00  0.00    -0.039 C  
HETATM   17  N   UNL     1      -6.308  10.942  69.821  1.00  0.00    -0.098 NA 
HETATM   18  C   UNL     1      -7.570  10.558  69.167  1.00  0.00    -0.123 C  
HETATM   19  C   UNL     1      -7.417   9.486  68.065  1.00  0.00    -0.083 C  
BRANCH  17  20
HETATM   20  C   UNL     1      -5.857   9.931  70.787  1.00  0.00    -0.086 C  
BRANCH  20  21
HETATM   21  C   UNL     1      -7.034   9.191  71.440  1.00  0.00    -0.031 C  
BRANCH  21  22
HETATM   22  C   UNL     1      -7.349   7.826  70.806  1.00  0.00    -0.065 C  
HETATM   23  C   UNL     1      -8.708   7.210  71.232  1.00  0.00    -0.128 C  
HETATM   24  C   UNL     1      -8.890   5.767  70.757  1.00  0.00    -0.142 A  
HETATM   25  C   UNL     1      -9.859   8.124  70.820  1.00  0.00    -0.201 A  
HETATM   26  C   UNL     1     -10.122   8.389  69.465  1.00  0.00    -0.200 A  
HETATM   27  C   UNL     1      -9.677   4.887  71.524  1.00  0.00    -0.233 A  
HETATM   28  C   UNL     1      -9.821   3.549  71.151  1.00  0.00    -0.185 A  
HETATM   29  C   UNL     1     -11.088   9.326  69.098  1.00  0.00    -0.002 A  
HETATM   30  C   UNL     1      -9.189   3.085  70.004  1.00  0.00    -0.146 A  
HETATM   31  C   UNL     1     -11.801   9.995  70.082  1.00  0.00    -0.173 A  
HETATM   32  F   UNL     1     -12.707  10.915  69.729  1.00  0.00    -0.339 F  
HETATM   33  C   UNL     1     -11.578   9.735  71.429  1.00  0.00    -0.452 A  
HETATM   34  F   UNL     1      -9.314   1.799  69.654  1.00  0.00    -0.140 F  
HETATM   35  C   UNL     1      -8.426   3.936  69.218  1.00  0.00    -0.096 A  
HETATM   36  C   UNL     1      -8.281   5.272  69.590  1.00  0.00    -0.095 A  
HETATM   37  C   UNL     1     -10.613   8.797  71.799  1.00  0.00    -0.417 A  
ENDBRANCH  21  22
ENDBRANCH  20  21
ENDBRANCH  17  20
ENDBRANCH  13  14
ENDBRANCH  10  13
ENDBRANCH   8   9
TORSDOF 6
ENDMDL
MODEL      195
REMARK 921   NORMALIZED FREE ENERGY PREDICTED BY IDOCK:   -3.56 KCAL/MOL
REMARK 922        TOTAL FREE ENERGY PREDICTED BY IDOCK:   -6.07 KCAL/MOL
REMARK 923 INTER-LIGAND FREE ENERGY PREDICTED BY IDOCK:   -6.70 KCAL/MOL
REMARK 924 INTRA-LIGAND FREE ENERGY PREDICTED BY IDOCK:    0.63 KCAL/MOL
REMARK 927      BINDING AFFINITY PREDICTED BY RF-SCORE:    0.00 PKD
ROOT
HETATM    1  C   UNL     1     -10.731   7.394  67.315  1.00  0.00    -0.379 C  
HETATM    2  C   UNL     1      -9.862   6.167  67.410  1.00  0.00    -0.151 A  
HETATM    3  C   UNL     1      -9.937   5.429  68.608  1.00  0.00    -0.232 A  
HETATM    4  C   UNL     1      -9.100   4.343  68.836  1.00  0.00    -0.175 A  
HETATM    5  C   UNL     1      -8.152   3.996  67.881  1.00  0.00    -0.089 A  
HETATM    6  C   UNL     1      -8.048   4.711  66.673  1.00  0.00    -0.103 A  
HETATM    7  C   UNL     1      -7.006   4.265  65.682  1.00  0.00    -0.062 C  
HETATM    8  C   UNL     1      -8.946   5.772  66.406  1.00  0.00    -0.137 A  
ENDROOT
BRANCH   8   9
HETATM    9  N   UNL     1      -8.868   6.420  65.141  1.00  0.00    -0.365 N  
HETATM   10  C   UNL     1      -7.906   7.367  64.825  1.00  0.00    -0.126 C  
HETATM   11  H   UNL     1      -9.557   6.175  64.429  1.00  0.00     0.000 HD 
HETATM   12  O   UNL     1      -7.023   7.754  65.589  1.00  0.00    -0.052 OA 
BRANCH  10  13
HETATM   13  C   UNL     1      -8.076   8.067  63.470  1.00  0.00    -0.097 C  
BRANCH  13  14
HETATM   14  N   UNL     1      -7.727   9.511  63.450  1.00  0.00    -0.113 NA 
HETATM   15  C   UNL     1      -8.454  10.172  62.331  1.00  0.00    -0.171 C  
HETATM   16  C   UNL     1      -9.977  10.394  62.547  1.00  0.00     0.215 C  
HETATM   17  N   UNL     1     -10.345  11.026  63.830  1.00  0.00    -0.362 NA 
HETATM   18  C   UNL     1      -9.630  10.360  64.933  1.00  0.00    -0.289 C  
HETATM   19  C   UNL     1      -8.111  10.202  64.704  1.00  0.00    -0.153 C  
BRANCH  17  20
HETATM   20  C   UNL     1     -10.135  12.479  63.834  1.00  0.00    -0.282 C  
BRANCH  20  21
HETATM   21  C   UNL     1     -10.594  13.125  65.150  1.00  0.00    -0.332 C  
BRANCH  21  22
HETATM   22  C   UNL     1     -10.500  12.197  66.373  1.00  0.00    -0.261 C  
HETATM   23  C   UNL     1      -9.385  12.569  67.386  1.00  0.00    -0.187 C  
HETATM   24  C   UNL     1      -9.180  11.509  68.470  1.00  0.00    -0.167 A  
HETATM   25  C   UNL     1      -9.626  13.965  67.954  1.00  0.00    -0.227 A  
HETATM   26  C   UNL     1     -10.766  14.244  68.728  1.00  0.00    -0.262 A  
HETATM   27  C   UNL     1      -7.901  11.345  69.036  1.00  0.00    -0.043 A  
HETATM   28  C   UNL     1      -7.664  10.352  69.989  1.00  0.00     0.002 A  
HETATM   29  C   UNL     1     -11.048  15.549  69.132  1.00  0.00    -0.272 A  
HETATM   30  C   UNL     1      -8.705   9.524  70.389  1.00  0.00    -0.223 A  
HETATM   31  C   UNL     1     -10.189  16.578  68.773  1.00  0.00    -0.267 A  
HETATM   32  F   UNL     1     -10.478  17.834  69.138  1.00  0.00    -0.362 F  
HETATM   33  C   UNL     1      -9.043  16.326  68.030  1.00  0.00    -0.188 A  
HETATM   34  F   UNL     1      -8.475   8.561  71.291  1.00  0.00    -0.121 F  
HETATM   35  C   UNL     1      -9.979   9.678  69.865  1.00  0.00    -0.273 A  
HETATM   36  C   UNL     1     -10.217  10.669  68.913  1.00  0.00    -0.216 A  
HETATM   37  C   UNL     1      -8.756  15.022  67.625  1.00  0.00    -0.182 A  
ENDBRANCH  21  22
ENDBRANCH  20  21
ENDBRANCH  17  20
ENDBRANCH  13  14
ENDBRANCH  10  13
ENDBRANCH   8   9
TORSDOF 6
ENDMDL
MODEL      196
REMARK 921   NORMALIZED FREE ENERGY PREDICTED BY IDOCK:   -3.55 KCAL/MOL
REMARK 922        TOTAL FREE ENERGY PREDICTED BY IDOCK:   -6.07 KCAL/MOL
REMARK 923 INTER-LIGAND FREE ENERGY PREDICTED BY IDOCK:   -6.86 KCAL/MOL
REMARK 924 INTRA-LIGAND FREE ENERGY PREDICTED BY IDOCK:    0.79 KCAL/MOL
REMARK 927      BINDING AFFINITY PREDICTED BY RF-SCORE:    0.00 PKD
ROOT
HETATM    1  C   UNL     1     -10.341   5.996  73.821  1.00  0.00    -0.277 C  
HETATM    2  C   UNL     1      -8.874   5.731  73.607  1.00  0.00    -0.121 A  
HETATM    3  C   UNL     1      -8.230   4.923  74.564  1.00  0.00    -0.098 A  
HETATM    4  C   UNL     1      -6.859   4.705  74.515  1.00  0.00    -0.067 A  
HETATM    5  C   UNL     1      -6.103   5.318  73.523  1.00  0.00    -0.047 A  
HETATM    6  C   UNL     1      -6.712   6.133  72.550  1.00  0.00    -0.069 A  
HETATM    7  C   UNL     1      -5.828   6.751  71.500  1.00  0.00    -0.036 C  
HETATM    8  C   UNL     1      -8.118   6.299  72.554  1.00  0.00    -0.103 A  
ENDROOT
BRANCH   8   9
HETATM    9  N   UNL     1      -8.710   7.061  71.508  1.00  0.00    -0.121 N  
HETATM   10  C   UNL     1      -8.893   6.579  70.220  1.00  0.00    -0.151 C  
HETATM   11  H   UNL     1      -9.017   8.011  71.716  1.00  0.00     0.000 HD 
HETATM   12  O   UNL     1      -8.567   5.458  69.836  1.00  0.00    -0.104 OA 
BRANCH  10  13
HETATM   13  C   UNL     1      -9.404   7.597  69.192  1.00  0.00    -0.147 C  
BRANCH  13  14
HETATM   14  N   UNL     1      -9.676   8.958  69.722  1.00  0.00    -0.171 NA 
HETATM   15  C   UNL     1      -8.513   9.404  70.538  1.00  0.00    -0.212 C  
HETATM   16  C   UNL     1      -7.241   9.810  69.743  1.00  0.00    -0.105 C  
HETATM   17  N   UNL     1      -7.468  10.755  68.631  1.00  0.00    -0.094 NA 
HETATM   18  C   UNL     1      -8.614  10.302  67.823  1.00  0.00    -0.118 C  
HETATM   19  C   UNL     1      -9.876   9.955  68.644  1.00  0.00    -0.158 C  
BRANCH  17  20
HETATM   20  C   UNL     1      -7.627  12.144  69.083  1.00  0.00     0.175 C  
BRANCH  20  21
HETATM   21  C   UNL     1      -7.321  13.152  67.966  1.00  0.00    -0.125 C  
BRANCH  21  22
HETATM   22  C   UNL     1      -8.198  12.990  66.713  1.00  0.00     0.108 C  
HETATM   23  C   UNL     1      -9.629  13.576  66.843  1.00  0.00    -0.258 C  
HETATM   24  C   UNL     1     -10.539  13.209  65.669  1.00  0.00    -0.289 A  
HETATM   25  C   UNL     1      -9.567  15.079  67.103  1.00  0.00    -0.222 A  
HETATM   26  C   UNL     1      -9.027  15.956  66.147  1.00  0.00    -0.376 A  
HETATM   27  C   UNL     1     -11.924  13.085  65.886  1.00  0.00    -0.491 A  
HETATM   28  C   UNL     1     -12.778  12.699  64.850  1.00  0.00    -0.450 A  
HETATM   29  C   UNL     1      -8.852  17.308  66.442  1.00  0.00    -0.278 A  
HETATM   30  C   UNL     1     -12.254  12.445  63.590  1.00  0.00    -0.557 A  
HETATM   31  C   UNL     1      -9.223  17.791  67.689  1.00  0.00    -0.249 A  
HETATM   32  F   UNL     1      -9.027  19.083  67.981  1.00  0.00    -0.301 F  
HETATM   33  C   UNL     1      -9.783  16.950  68.644  1.00  0.00    -0.267 A  
HETATM   34  F   UNL     1     -13.069  12.059  62.600  1.00  0.00    -0.256 F  
HETATM   35  C   UNL     1     -10.896  12.580  63.342  1.00  0.00    -0.351 A  
HETATM   36  C   UNL     1     -10.043  12.966  64.376  1.00  0.00    -0.265 A  
HETATM   37  C   UNL     1      -9.961  15.597  68.352  1.00  0.00    -0.210 A  
ENDBRANCH  21  22
ENDBRANCH  20  21
ENDBRANCH  17  20
ENDBRANCH  13  14
ENDBRANCH  10  13
ENDBRANCH   8   9
TORSDOF 6
ENDMDL
MODEL      197
REMARK 921   NORMALIZED FREE ENERGY PREDICTED BY IDOCK:   -3.53 KCAL/MOL
REMARK 922        TOTAL FREE ENERGY PREDICTED BY IDOCK:   -6.04 KCAL/MOL
REMARK 923 INTER-LIGAND FREE ENERGY PREDICTED BY IDOCK:   -6.59 KCAL/MOL
REMARK 924 INTRA-LIGAND FREE ENERGY PREDICTED BY IDOCK:    0.55 KCAL/MOL
REMARK 927      BINDING AFFINITY PREDICTED BY RF-SCORE:    0.00 PKD
ROOT
HETATM    1  C   UNL     1      -5.795   6.598  69.738  1.00  0.00    -0.018 C  
HETATM    2  C   UNL     1      -6.380   5.273  69.328  1.00  0.00    -0.034 A  
HETATM    3  C   UNL     1      -5.467   4.234  69.054  1.00  0.00    -0.012 A  
HETATM    4  C   UNL     1      -5.900   3.007  68.567  1.00  0.00    -0.023 A  
HETATM    5  C   UNL     1      -7.252   2.807  68.316  1.00  0.00    -0.049 A  
HETATM    6  C   UNL     1      -8.193   3.822  68.577  1.00  0.00    -0.083 A  
HETATM    7  C   UNL     1      -9.641   3.525  68.292  1.00  0.00    -0.161 C  
HETATM    8  C   UNL     1      -7.765   5.048  69.140  1.00  0.00    -0.076 A  
ENDROOT
BRANCH   8   9
HETATM    9  N   UNL     1      -8.751   6.021  69.468  1.00  0.00    -0.125 N  
HETATM   10  C   UNL     1      -9.377   6.822  68.526  1.00  0.00    -0.126 C  
HETATM   11  H   UNL     1      -9.011   6.134  70.448  1.00  0.00     0.000 HD 
HETATM   12  O   UNL     1      -9.156   6.790  67.317  1.00  0.00    -0.118 OA 
BRANCH  10  13
HETATM   13  C   UNL     1     -10.297   7.917  69.084  1.00  0.00    -0.219 C  
BRANCH  13  14
HETATM   14  N   UNL     1      -9.616   9.169  69.503  1.00  0.00    -0.163 NA 
HETATM   15  C   UNL     1      -9.097   9.869  68.295  1.00  0.00    -0.122 C  
HETATM   16  C   UNL     1     -10.162  10.573  67.408  1.00  0.00    -0.211 C  
HETATM   17  N   UNL     1     -11.105  11.449  68.132  1.00  0.00    -0.227 NA 
HETATM   18  C   UNL     1     -11.620  10.747  69.320  1.00  0.00    -0.305 C  
HETATM   19  C   UNL     1     -10.530  10.102  70.203  1.00  0.00    -0.255 C  
BRANCH  17  20
HETATM   20  C   UNL     1     -10.527  12.756  68.472  1.00  0.00    -0.238 C  
BRANCH  20  21
HETATM   21  C   UNL     1      -9.626  13.298  67.352  1.00  0.00    -0.223 C  
BRANCH  21  22
HETATM   22  C   UNL     1      -8.864  14.581  67.722  1.00  0.00    -0.183 C  
HETATM   23  C   UNL     1      -9.757  15.836  67.909  1.00  0.00    -0.216 C  
HETATM   24  C   UNL     1      -8.953  17.129  68.062  1.00  0.00    -0.233 A  
HETATM   25  C   UNL     1     -10.755  15.615  69.042  1.00  0.00    -0.236 A  
HETATM   26  C   UNL     1     -10.317  15.425  70.364  1.00  0.00    -0.121 A  
HETATM   27  C   UNL     1      -9.513  18.341  67.615  1.00  0.00    -0.275 A  
HETATM   28  C   UNL     1      -8.788  19.533  67.690  1.00  0.00    -0.367 A  
HETATM   29  C   UNL     1     -11.222  15.094  71.372  1.00  0.00    -0.319 A  
HETATM   30  C   UNL     1      -7.504  19.521  68.219  1.00  0.00    -0.315 A  
HETATM   31  C   UNL     1     -12.569  14.958  71.066  1.00  0.00    -0.336 A  
HETATM   32  F   UNL     1     -13.432  14.611  72.029  1.00  0.00    -0.355 F  
HETATM   33  C   UNL     1     -13.032  15.165  69.772  1.00  0.00     0.177 A  
HETATM   34  F   UNL     1      -6.801  20.660  68.276  1.00  0.00    -0.317 F  
HETATM   35  C   UNL     1      -6.937  18.345  68.687  1.00  0.00    -0.281 A  
HETATM   36  C   UNL     1      -7.660  17.155  68.613  1.00  0.00    -0.258 A  
HETATM   37  C   UNL     1     -12.130  15.498  68.761  1.00  0.00    -0.166 A  
ENDBRANCH  21  22
ENDBRANCH  20  21
ENDBRANCH  17  20
ENDBRANCH  13  14
ENDBRANCH  10  13
ENDBRANCH   8   9
TORSDOF 6
ENDMDL
MODEL      198
REMARK 921   NORMALIZED FREE ENERGY PREDICTED BY IDOCK:   -3.51 KCAL/MOL
REMARK 922        TOTAL FREE ENERGY PREDICTED BY IDOCK:   -6.01 KCAL/MOL
REMARK 923 INTER-LIGAND FREE ENERGY PREDICTED BY IDOCK:   -5.30 KCAL/MOL
REMARK 924 INTRA-LIGAND FREE ENERGY PREDICTED BY IDOCK:   -0.71 KCAL/MOL
REMARK 927      BINDING AFFINITY PREDICTED BY RF-SCORE:    0.00 PKD
ROOT
HETATM    1  C   UNL     1      -6.170   6.113  69.392  1.00  0.00    -0.033 C  
HETATM    2  C   UNL     1      -7.428   5.309  69.198  1.00  0.00    -0.069 A  
HETATM    3  C   UNL     1      -7.613   4.206  70.057  1.00  0.00    -0.052 A  
HETATM    4  C   UNL     1      -8.687   3.340  69.891  1.00  0.00    -0.134 A  
HETATM    5  C   UNL     1      -9.577   3.544  68.844  1.00  0.00    -0.140 A  
HETATM    6  C   UNL     1      -9.423   4.635  67.967  1.00  0.00    -0.191 A  
HETATM    7  C   UNL     1     -10.437   4.797  66.866  1.00  0.00    -0.140 C  
HETATM    8  C   UNL     1      -8.373   5.560  68.175  1.00  0.00    -0.099 A  
ENDROOT
BRANCH   8   9
HETATM    9  N   UNL     1      -8.295   6.697  67.321  1.00  0.00    -0.120 N  
HETATM   10  C   UNL     1      -7.417   6.789  66.252  1.00  0.00    -0.077 C  
HETATM   11  H   UNL     1      -8.917   7.484  67.506  1.00  0.00     0.000 HD 
HETATM   12  O   UNL     1      -6.615   5.918  65.923  1.00  0.00    -0.044 OA 
BRANCH  10  13
HETATM   13  C   UNL     1      -7.369   8.150  65.543  1.00  0.00    -0.072 C  
BRANCH  13  14
HETATM   14  N   UNL     1      -6.223   9.020  65.910  1.00  0.00    -0.055 NA 
HETATM   15  C   UNL     1      -6.398  10.354  65.270  1.00  0.00    -0.114 C  
HETATM   16  C   UNL     1      -7.484  11.271  65.899  1.00  0.00     0.193 C  
HETATM   17  N   UNL     1      -7.408  11.423  67.366  1.00  0.00    -0.111 NA 
HETATM   18  C   UNL     1      -7.243  10.099  67.992  1.00  0.00    -0.085 C  
HETATM   19  C   UNL     1      -6.123   9.236  67.373  1.00  0.00    -0.050 C  
BRANCH  17  20
HETATM   20  C   UNL     1      -6.367  12.367  67.791  1.00  0.00    -0.109 C  
BRANCH  20  21
HETATM   21  C   UNL     1      -6.846  13.825  67.722  1.00  0.00    -0.182 C  
BRANCH  21  22
HETATM   22  C   UNL     1      -8.339  14.011  68.043  1.00  0.00    -0.163 C  
HETATM   23  C   UNL     1      -8.648  15.147  69.054  1.00  0.00    -0.219 C  
HETATM   24  C   UNL     1     -10.108  15.163  69.513  1.00  0.00    -0.222 A  
HETATM   25  C   UNL     1      -8.180  16.492  68.504  1.00  0.00    -0.212 A  
HETATM   26  C   UNL     1      -8.752  17.035  67.340  1.00  0.00    -0.211 A  
HETATM   27  C   UNL     1     -10.417  15.639  70.801  1.00  0.00     0.091 A  
HETATM   28  C   UNL     1     -11.731  15.619  71.274  1.00  0.00    -0.478 A  
HETATM   29  C   UNL     1      -8.232  18.196  66.768  1.00  0.00    -0.270 A  
HETATM   30  C   UNL     1     -12.745  15.133  70.458  1.00  0.00    -0.368 A  
HETATM   31  C   UNL     1      -7.145  18.824  67.360  1.00  0.00    -0.206 A  
HETATM   32  F   UNL     1      -6.629  19.922  66.793  1.00  0.00    -0.193 F  
HETATM   33  C   UNL     1      -6.577  18.322  68.525  1.00  0.00    -0.225 A  
HETATM   34  F   UNL     1     -14.003  15.098  70.916  1.00  0.00    -0.432 F  
HETATM   35  C   UNL     1     -12.472  14.679  69.177  1.00  0.00    -0.013 A  
HETATM   36  C   UNL     1     -11.160  14.699  68.704  1.00  0.00    -0.276 A  
HETATM   37  C   UNL     1      -7.096  17.161  69.101  1.00  0.00    -0.213 A  
ENDBRANCH  21  22
ENDBRANCH  20  21
ENDBRANCH  17  20
ENDBRANCH  13  14
ENDBRANCH  10  13
ENDBRANCH   8   9
TORSDOF 6
ENDMDL
MODEL      199
REMARK 921   NORMALIZED FREE ENERGY PREDICTED BY IDOCK:   -3.42 KCAL/MOL
REMARK 922        TOTAL FREE ENERGY PREDICTED BY IDOCK:   -5.89 KCAL/MOL
REMARK 923 INTER-LIGAND FREE ENERGY PREDICTED BY IDOCK:   -6.53 KCAL/MOL
REMARK 924 INTRA-LIGAND FREE ENERGY PREDICTED BY IDOCK:    0.64 KCAL/MOL
REMARK 927      BINDING AFFINITY PREDICTED BY RF-SCORE:    0.00 PKD
ROOT
HETATM    1  C   UNL     1      -8.821   9.216  65.229  1.00  0.00    -0.240 C  
HETATM    2  C   UNL     1      -7.530   9.115  64.460  1.00  0.00    -0.101 A  
HETATM    3  C   UNL     1      -6.904  10.329  64.112  1.00  0.00    -0.055 A  
HETATM    4  C   UNL     1      -5.767  10.348  63.314  1.00  0.00    -0.149 A  
HETATM    5  C   UNL     1      -5.254   9.153  62.825  1.00  0.00    -0.069 A  
HETATM    6  C   UNL     1      -5.853   7.922  63.151  1.00  0.00    -0.063 A  
HETATM    7  C   UNL     1      -5.230   6.669  62.593  1.00  0.00    -0.030 C  
HETATM    8  C   UNL     1      -6.968   7.893  64.021  1.00  0.00    -0.063 A  
ENDROOT
BRANCH   8   9
HETATM    9  N   UNL     1      -7.499   6.626  64.397  1.00  0.00    -0.088 N  
HETATM   10  C   UNL     1      -6.963   5.842  65.407  1.00  0.00    -0.063 C  
HETATM   11  H   UNL     1      -8.316   6.277  63.897  1.00  0.00     0.000 HD 
HETATM   12  O   UNL     1      -5.981   6.141  66.083  1.00  0.00    -0.026 OA 
BRANCH  10  13
HETATM   13  C   UNL     1      -7.574   4.443  65.563  1.00  0.00    -0.085 C  
BRANCH  13  14
HETATM   14  N   UNL     1      -8.231   4.176  66.868  1.00  0.00    -0.101 NA 
HETATM   15  C   UNL     1      -8.252   5.432  67.669  1.00  0.00    -0.100 C  
HETATM   16  C   UNL     1      -9.272   6.513  67.211  1.00  0.00    -0.120 C  
HETATM   17  N   UNL     1     -10.650   6.027  66.998  1.00  0.00    -0.279 NA 
HETATM   18  C   UNL     1     -10.622   4.791  66.198  1.00  0.00    -0.234 C  
HETATM   19  C   UNL     1      -9.633   3.721  66.712  1.00  0.00    -0.180 C  
BRANCH  17  20
HETATM   20  C   UNL     1     -11.397   5.856  68.251  1.00  0.00     0.437 C  
BRANCH  20  21
HETATM   21  C   UNL     1     -10.713   6.561  69.432  1.00  0.00    -0.328 C  
BRANCH  21  22
HETATM   22  C   UNL     1     -10.935   8.082  69.472  1.00  0.00    -0.062 C  
HETATM   23  C   UNL     1     -11.333   8.644  70.863  1.00  0.00    -0.314 C  
HETATM   24  C   UNL     1     -11.755  10.114  70.820  1.00  0.00    -0.446 A  
HETATM   25  C   UNL     1     -10.232   8.368  71.883  1.00  0.00    -0.340 A  
HETATM   26  C   UNL     1      -8.956   8.940  71.742  1.00  0.00    -0.203 A  
HETATM   27  C   UNL     1     -12.697  10.585  71.754  1.00  0.00    -0.508 A  
HETATM   28  C   UNL     1     -13.146  11.907  71.711  1.00  0.00    -0.465 A  
HETATM   29  C   UNL     1      -7.917   8.582  72.601  1.00  0.00    -0.093 A  
HETATM   30  C   UNL     1     -12.648  12.768  70.741  1.00  0.00    -0.225 A  
HETATM   31  C   UNL     1      -8.150   7.657  73.609  1.00  0.00    -0.157 A  
HETATM   32  F   UNL     1      -7.144   7.292  74.414  1.00  0.00    -0.096 F  
HETATM   33  C   UNL     1      -9.409   7.095  73.786  1.00  0.00    -0.272 A  
HETATM   34  F   UNL     1     -13.090  14.032  70.689  1.00  0.00    -0.372 F  
HETATM   35  C   UNL     1     -11.703  12.337  69.823  1.00  0.00    -0.368 A  
HETATM   36  C   UNL     1     -11.254  11.017  69.865  1.00  0.00    -0.327 A  
HETATM   37  C   UNL     1     -10.451   7.452  72.930  1.00  0.00    -0.344 A  
ENDBRANCH  21  22
ENDBRANCH  20  21
ENDBRANCH  17  20
ENDBRANCH  13  14
ENDBRANCH  10  13
ENDBRANCH   8   9
TORSDOF 6
ENDMDL
MODEL      200
REMARK 921   NORMALIZED FREE ENERGY PREDICTED BY IDOCK:   -3.41 KCAL/MOL
REMARK 922        TOTAL FREE ENERGY PREDICTED BY IDOCK:   -5.87 KCAL/MOL
REMARK 923 INTER-LIGAND FREE ENERGY PREDICTED BY IDOCK:   -5.75 KCAL/MOL
REMARK 924 INTRA-LIGAND FREE ENERGY PREDICTED BY IDOCK:   -0.12 KCAL/MOL
REMARK 927      BINDING AFFINITY PREDICTED BY RF-SCORE:    0.00 PKD
ROOT
HETATM    1  C   UNL     1     -10.169   6.702  70.465  1.00  0.00    -0.215 C  
HETATM    2  C   UNL     1     -10.252   5.267  70.915  1.00  0.00    -0.304 A  
HETATM    3  C   UNL     1     -10.777   5.037  72.203  1.00  0.00    -0.227 A  
HETATM    4  C   UNL     1     -10.799   3.761  72.752  1.00  0.00    -0.096 A  
HETATM    5  C   UNL     1     -10.268   2.697  72.034  1.00  0.00    -0.117 A  
HETATM    6  C   UNL     1      -9.735   2.889  70.745  1.00  0.00    -0.121 A  
HETATM    7  C   UNL     1      -9.191   1.684  70.025  1.00  0.00    -0.165 C  
HETATM    8  C   UNL     1      -9.776   4.174  70.153  1.00  0.00    -0.208 A  
ENDROOT
BRANCH   8   9
HETATM    9  N   UNL     1      -9.305   4.318  68.818  1.00  0.00    -0.142 N  
HETATM   10  C   UNL     1      -7.960   4.357  68.482  1.00  0.00    -0.078 C  
HETATM   11  H   UNL     1      -9.992   4.396  68.068  1.00  0.00     0.000 HD 
HETATM   12  O   UNL     1      -7.032   4.277  69.285  1.00  0.00    -0.048 OA 
BRANCH  10  13
HETATM   13  C   UNL     1      -7.646   4.673  67.013  1.00  0.00    -0.086 C  
BRANCH  13  14
HETATM   14  N   UNL     1      -6.583   5.686  66.792  1.00  0.00    -0.054 NA 
HETATM   15  C   UNL     1      -6.952   6.531  65.622  1.00  0.00    -0.057 C  
HETATM   16  C   UNL     1      -8.090   7.564  65.861  1.00  0.00    -0.127 C  
HETATM   17  N   UNL     1      -7.931   8.408  67.063  1.00  0.00    -0.099 NA 
HETATM   18  C   UNL     1      -7.575   7.564  68.217  1.00  0.00    -0.114 C  
HETATM   19  C   UNL     1      -6.408   6.585  67.956  1.00  0.00    -0.040 C  
BRANCH  17  20
HETATM   20  C   UNL     1      -6.976   9.507  66.868  1.00  0.00    -0.081 C  
BRANCH  20  21
HETATM   21  C   UNL     1      -7.158  10.620  67.910  1.00  0.00    -0.086 C  
BRANCH  21  22
HETATM   22  C   UNL     1      -8.477  10.537  68.697  1.00  0.00    -0.138 C  
HETATM   23  C   UNL     1      -9.496  11.663  68.379  1.00  0.00    -0.193 C  
HETATM   24  C   UNL     1     -10.696  11.674  69.328  1.00  0.00    -0.144 A  
HETATM   25  C   UNL     1      -9.898  11.617  66.907  1.00  0.00    -0.218 A  
HETATM   26  C   UNL     1     -10.582  10.509  66.380  1.00  0.00    -0.218 A  
HETATM   27  C   UNL     1     -11.336  12.896  69.610  1.00  0.00    -0.166 A  
HETATM   28  C   UNL     1     -12.400  12.953  70.513  1.00  0.00    -0.362 A  
HETATM   29  C   UNL     1     -10.830  10.413  65.010  1.00  0.00     0.362 A  
HETATM   30  C   UNL     1     -12.838  11.788  71.130  1.00  0.00    -0.267 A  
HETATM   31  C   UNL     1     -10.403  11.426  64.164  1.00  0.00    -0.344 A  
HETATM   32  F   UNL     1     -10.616  11.318  62.847  1.00  0.00    -0.297 F  
HETATM   33  C   UNL     1      -9.746  12.545  64.663  1.00  0.00     0.036 A  
HETATM   34  F   UNL     1     -13.848  11.844  72.007  1.00  0.00    -0.327 F  
HETATM   35  C   UNL     1     -12.241  10.568  70.853  1.00  0.00    -0.490 A  
HETATM   36  C   UNL     1     -11.178  10.510  69.952  1.00  0.00    -0.374 A  
HETATM   37  C   UNL     1      -9.498  12.645  66.033  1.00  0.00    -0.140 A  
ENDBRANCH  21  22
ENDBRANCH  20  21
ENDBRANCH  17  20
ENDBRANCH  13  14
ENDBRANCH  10  13
ENDBRANCH   8   9
TORSDOF 6
ENDMDL
MODEL      201
REMARK 921   NORMALIZED FREE ENERGY PREDICTED BY IDOCK:   -3.37 KCAL/MOL
REMARK 922        TOTAL FREE ENERGY PREDICTED BY IDOCK:   -5.83 KCAL/MOL
REMARK 923 INTER-LIGAND FREE ENERGY PREDICTED BY IDOCK:   -4.70 KCAL/MOL
REMARK 924 INTRA-LIGAND FREE ENERGY PREDICTED BY IDOCK:   -1.13 KCAL/MOL
REMARK 927      BINDING AFFINITY PREDICTED BY RF-SCORE:    0.00 PKD
ROOT
HETATM    1  C   UNL     1      -9.042   5.978  64.344  1.00  0.00     0.674 C  
HETATM    2  C   UNL     1      -8.260   5.137  65.318  1.00  0.00    -0.126 A  
HETATM    3  C   UNL     1      -7.776   3.901  64.843  1.00  0.00    -0.081 A  
HETATM    4  C   UNL     1      -7.135   3.007  65.691  1.00  0.00    -0.061 A  
HETATM    5  C   UNL     1      -6.992   3.321  67.037  1.00  0.00    -0.054 A  
HETATM    6  C   UNL     1      -7.463   4.545  67.547  1.00  0.00    -0.074 A  
HETATM    7  C   UNL     1      -7.259   4.819  69.014  1.00  0.00    -0.053 C  
HETATM    8  C   UNL     1      -8.052   5.490  66.673  1.00  0.00    -0.105 A  
ENDROOT
BRANCH   8   9
HETATM    9  N   UNL     1      -8.442   6.751  67.206  1.00  0.00    -0.120 N  
HETATM   10  C   UNL     1      -9.755   7.082  67.504  1.00  0.00    -0.136 C  
HETATM   11  H   UNL     1      -7.718   7.448  67.377  1.00  0.00     0.000 HD 
HETATM   12  O   UNL     1     -10.722   6.339  67.343  1.00  0.00    -0.249 OA 
BRANCH  10  13
HETATM   13  C   UNL     1     -10.000   8.538  67.922  1.00  0.00    -0.181 C  
BRANCH  13  14
HETATM   14  N   UNL     1     -10.572   9.416  66.870  1.00  0.00    -0.207 NA 
HETATM   15  C   UNL     1     -11.334  10.520  67.518  1.00  0.00    -0.101 C  
HETATM   16  C   UNL     1     -10.479  11.634  68.186  1.00  0.00    -0.195 C  
HETATM   17  N   UNL     1      -9.402  12.191  67.344  1.00  0.00    -0.177 NA 
HETATM   18  C   UNL     1      -8.648  11.093  66.714  1.00  0.00    -0.157 C  
HETATM   19  C   UNL     1      -9.529  10.032  66.018  1.00  0.00    -0.197 C  
BRANCH  17  20
HETATM   20  C   UNL     1      -9.891  13.162  66.357  1.00  0.00    -0.279 C  
BRANCH  20  21
HETATM   21  C   UNL     1     -10.379  14.460  67.016  1.00  0.00    -0.263 C  
BRANCH  21  22
HETATM   22  C   UNL     1      -9.538  15.700  66.665  1.00  0.00    -0.267 C  
HETATM   23  C   UNL     1      -8.680  16.254  67.832  1.00  0.00    -0.175 C  
HETATM   24  C   UNL     1      -8.030  17.602  67.513  1.00  0.00    -0.210 A  
HETATM   25  C   UNL     1      -7.677  15.203  68.302  1.00  0.00    -0.117 A  
HETATM   26  C   UNL     1      -6.662  14.741  67.446  1.00  0.00    -0.060 A  
HETATM   27  C   UNL     1      -7.783  18.510  68.561  1.00  0.00    -0.330 A  
HETATM   28  C   UNL     1      -7.240  19.770  68.301  1.00  0.00    -0.341 A  
HETATM   29  C   UNL     1      -5.832  13.688  67.833  1.00  0.00    -0.131 A  
HETATM   30  C   UNL     1      -6.932  20.127  66.994  1.00  0.00    -0.235 A  
HETATM   31  C   UNL     1      -6.007  13.100  69.077  1.00  0.00    -0.084 A  
HETATM   32  F   UNL     1      -5.229  12.070  69.434  1.00  0.00    -0.061 F  
HETATM   33  C   UNL     1      -6.987  13.554  69.952  1.00  0.00     0.356 A  
HETATM   34  F   UNL     1      -6.427  21.341  66.742  1.00  0.00    -0.333 F  
HETATM   35  C   UNL     1      -7.144  19.244  65.946  1.00  0.00    -0.304 A  
HETATM   36  C   UNL     1      -7.685  17.985  66.205  1.00  0.00    -0.293 A  
HETATM   37  C   UNL     1      -7.818  14.608  69.569  1.00  0.00     0.028 A  
ENDBRANCH  21  22
ENDBRANCH  20  21
ENDBRANCH  17  20
ENDBRANCH  13  14
ENDBRANCH  10  13
ENDBRANCH   8   9
TORSDOF 6
ENDMDL
MODEL      202
REMARK 921   NORMALIZED FREE ENERGY PREDICTED BY IDOCK:   -3.34 KCAL/MOL
REMARK 922        TOTAL FREE ENERGY PREDICTED BY IDOCK:   -5.78 KCAL/MOL
REMARK 923 INTER-LIGAND FREE ENERGY PREDICTED BY IDOCK:   -5.00 KCAL/MOL
REMARK 924 INTRA-LIGAND FREE ENERGY PREDICTED BY IDOCK:   -0.77 KCAL/MOL
REMARK 927      BINDING AFFINITY PREDICTED BY RF-SCORE:    0.00 PKD
ROOT
HETATM    1  C   UNL     1      -9.944  17.639  70.123  1.00  0.00     1.224 C  
HETATM    2  C   UNL     1      -9.899  18.000  68.662  1.00  0.00    -0.383 A  
HETATM    3  C   UNL     1      -9.491  19.311  68.346  1.00  0.00    -0.435 A  
HETATM    4  C   UNL     1      -9.516  19.775  67.036  1.00  0.00    -0.476 A  
HETATM    5  C   UNL     1      -9.978  18.944  66.024  1.00  0.00    -0.309 A  
HETATM    6  C   UNL     1     -10.395  17.628  66.302  1.00  0.00    -0.342 A  
HETATM    7  C   UNL     1     -10.870  16.785  65.149  1.00  0.00    -0.150 C  
HETATM    8  C   UNL     1     -10.303  17.128  67.623  1.00  0.00    -0.344 A  
ENDROOT
BRANCH   8   9
HETATM    9  N   UNL     1     -10.653  15.768  67.855  1.00  0.00    -0.274 N  
HETATM   10  C   UNL     1      -9.724  14.741  67.926  1.00  0.00    -0.211 C  
HETATM   11  H   UNL     1     -11.639  15.536  67.976  1.00  0.00     0.000 HD 
HETATM   12  O   UNL     1      -8.510  14.881  67.796  1.00  0.00    -0.142 OA 
BRANCH  10  13
HETATM   13  C   UNL     1     -10.301  13.323  68.027  1.00  0.00    -0.241 C  
BRANCH  13  14
HETATM   14  N   UNL     1     -10.585  12.655  66.731  1.00  0.00    -0.236 NA 
HETATM   15  C   UNL     1      -9.298  12.388  66.030  1.00  0.00    -0.114 C  
HETATM   16  C   UNL     1      -8.439  11.227  66.606  1.00  0.00    -0.168 C  
HETATM   17  N   UNL     1      -9.163   9.960  66.831  1.00  0.00    -0.145 NA 
HETATM   18  C   UNL     1     -10.430  10.232  67.533  1.00  0.00    -0.244 C  
HETATM   19  C   UNL     1     -11.279  11.358  66.903  1.00  0.00    -0.264 C  
BRANCH  17  20
HETATM   20  C   UNL     1      -9.371   9.191  65.597  1.00  0.00    -0.235 C  
BRANCH  20  21
HETATM   21  C   UNL     1      -8.241   8.181  65.349  1.00  0.00    -0.147 C  
BRANCH  21  22
HETATM   22  C   UNL     1      -7.678   7.541  66.629  1.00  0.00    -0.101 C  
HETATM   23  C   UNL     1      -8.361   6.211  67.045  1.00  0.00    -0.105 C  
HETATM   24  C   UNL     1      -7.928   5.719  68.427  1.00  0.00    -0.104 A  
HETATM   25  C   UNL     1      -8.187   5.158  65.954  1.00  0.00    -0.115 A  
HETATM   26  C   UNL     1      -6.911   4.682  65.607  1.00  0.00    -0.063 A  
HETATM   27  C   UNL     1      -8.832   4.969  69.203  1.00  0.00    -0.114 A  
HETATM   28  C   UNL     1      -8.491   4.548  70.491  1.00  0.00    -0.099 A  
HETATM   29  C   UNL     1      -6.745   3.820  64.523  1.00  0.00    -0.044 A  
HETATM   30  C   UNL     1      -7.240   4.866  71.006  1.00  0.00    -0.060 A  
HETATM   31  C   UNL     1      -7.852   3.425  63.786  1.00  0.00    -0.080 A  
HETATM   32  F   UNL     1      -7.687   2.622  62.728  1.00  0.00    -0.055 F  
HETATM   33  C   UNL     1      -9.128   3.862  64.122  1.00  0.00    -0.137 A  
HETATM   34  F   UNL     1      -6.918   4.477  72.246  1.00  0.00    -0.050 F  
HETATM   35  C   UNL     1      -6.322   5.584  70.255  1.00  0.00    -0.030 A  
HETATM   36  C   UNL     1      -6.662   6.004  68.969  1.00  0.00    -0.060 A  
HETATM   37  C   UNL     1      -9.298   4.723  65.208  1.00  0.00    -0.148 A  
ENDBRANCH  21  22
ENDBRANCH  20  21
ENDBRANCH  17  20
ENDBRANCH  13  14
ENDBRANCH  10  13
ENDBRANCH   8   9
TORSDOF 6
ENDMDL
MODEL      203
REMARK 921   NORMALIZED FREE ENERGY PREDICTED BY IDOCK:   -3.31 KCAL/MOL
REMARK 922        TOTAL FREE ENERGY PREDICTED BY IDOCK:   -5.74 KCAL/MOL
REMARK 923 INTER-LIGAND FREE ENERGY PREDICTED BY IDOCK:   -5.07 KCAL/MOL
REMARK 924 INTRA-LIGAND FREE ENERGY PREDICTED BY IDOCK:   -0.67 KCAL/MOL
REMARK 927      BINDING AFFINITY PREDICTED BY RF-SCORE:    0.00 PKD
ROOT
HETATM    1  C   UNL     1      -8.245   5.375  66.290  1.00  0.00    -0.110 C  
HETATM    2  C   UNL     1      -7.181   4.355  66.597  1.00  0.00    -0.079 A  
HETATM    3  C   UNL     1      -6.672   3.623  65.506  1.00  0.00    -0.048 A  
HETATM    4  C   UNL     1      -5.765   2.587  65.697  1.00  0.00    -0.018 A  
HETATM    5  C   UNL     1      -5.375   2.246  66.986  1.00  0.00    -0.016 A  
HETATM    6  C   UNL     1      -5.864   2.955  68.100  1.00  0.00    -0.023 A  
HETATM    7  C   UNL     1      -5.383   2.535  69.464  1.00  0.00    -0.012 C  
HETATM    8  C   UNL     1      -6.731   4.056  67.906  1.00  0.00    -0.047 A  
ENDROOT
BRANCH   8   9
HETATM    9  N   UNL     1      -7.141   4.803  69.046  1.00  0.00    -0.052 N  
HETATM   10  C   UNL     1      -8.140   4.387  69.913  1.00  0.00    -0.063 C  
HETATM   11  H   UNL     1      -6.675   5.690  69.236  1.00  0.00     0.000 HD 
HETATM   12  O   UNL     1      -8.781   3.345  69.799  1.00  0.00    -0.066 OA 
BRANCH  10  13
HETATM   13  C   UNL     1      -8.549   5.396  70.995  1.00  0.00    -0.124 C  
BRANCH  13  14
HETATM   14  N   UNL     1      -9.910   5.973  70.847  1.00  0.00    -0.180 NA 
HETATM   15  C   UNL     1     -10.051   7.132  71.772  1.00  0.00    -0.183 C  
HETATM   16  C   UNL     1      -9.298   8.428  71.356  1.00  0.00    -0.190 C  
HETATM   17  N   UNL     1      -9.519   8.864  69.963  1.00  0.00    -0.171 NA 
HETATM   18  C   UNL     1      -9.369   7.714  69.054  1.00  0.00    -0.146 C  
HETATM   19  C   UNL     1     -10.170   6.462  69.473  1.00  0.00    -0.189 C  
BRANCH  17  20
HETATM   20  C   UNL     1     -10.803   9.552  69.775  1.00  0.00    -0.243 C  
BRANCH  20  21
HETATM   21  C   UNL     1     -10.649  11.080  69.806  1.00  0.00    -0.055 C  
BRANCH  21  22
HETATM   22  C   UNL     1     -10.581  11.734  68.416  1.00  0.00    -0.239 C  
HETATM   23  C   UNL     1     -11.803  12.620  68.055  1.00  0.00    -0.376 C  
HETATM   24  C   UNL     1     -11.806  13.076  66.594  1.00  0.00    -0.455 A  
HETATM   25  C   UNL     1     -11.931  13.778  69.042  1.00  0.00    -0.399 A  
HETATM   26  C   UNL     1     -10.932  14.761  69.136  1.00  0.00    -0.277 A  
HETATM   27  C   UNL     1     -13.036  13.304  65.949  1.00  0.00     0.180 A  
HETATM   28  C   UNL     1     -13.079  13.669  64.602  1.00  0.00     0.287 A  
HETATM   29  C   UNL     1     -10.989  15.740  70.128  1.00  0.00    -0.361 A  
HETATM   30  C   UNL     1     -11.892  13.817  63.894  1.00  0.00    -0.327 A  
HETATM   31  C   UNL     1     -12.049  15.746  71.024  1.00  0.00    -0.418 A  
HETATM   32  F   UNL     1     -12.087  16.669  71.993  1.00  0.00    -0.463 F  
HETATM   33  C   UNL     1     -13.063  14.800  70.938  1.00  0.00    -0.418 A  
HETATM   34  F   UNL     1     -11.933  14.151  62.598  1.00  0.00     0.499 F  
HETATM   35  C   UNL     1     -10.666  13.620  64.511  1.00  0.00    -0.420 A  
HETATM   36  C   UNL     1     -10.622  13.256  65.856  1.00  0.00    -0.288 A  
HETATM   37  C   UNL     1     -13.009  13.819  69.946  1.00  0.00     0.418 A  
ENDBRANCH  21  22
ENDBRANCH  20  21
ENDBRANCH  17  20
ENDBRANCH  13  14
ENDBRANCH  10  13
ENDBRANCH   8   9
TORSDOF 6
ENDMDL
MODEL      204
REMARK 921   NORMALIZED FREE ENERGY PREDICTED BY IDOCK:   -3.19 KCAL/MOL
REMARK 922        TOTAL FREE ENERGY PREDICTED BY IDOCK:   -5.59 KCAL/MOL
REMARK 923 INTER-LIGAND FREE ENERGY PREDICTED BY IDOCK:   -6.71 KCAL/MOL
REMARK 924 INTRA-LIGAND FREE ENERGY PREDICTED BY IDOCK:    1.12 KCAL/MOL
REMARK 927      BINDING AFFINITY PREDICTED BY RF-SCORE:    0.00 PKD
ROOT
HETATM    1  C   UNL     1      -5.536   4.402  64.579  1.00  0.00    -0.013 C  
HETATM    2  C   UNL     1      -6.850   3.670  64.649  1.00  0.00    -0.049 A  
HETATM    3  C   UNL     1      -6.789   2.277  64.854  1.00  0.00    -0.046 A  
HETATM    4  C   UNL     1      -7.938   1.496  64.828  1.00  0.00    -0.069 A  
HETATM    5  C   UNL     1      -9.165   2.091  64.567  1.00  0.00    -0.132 A  
HETATM    6  C   UNL     1      -9.265   3.480  64.356  1.00  0.00    -0.134 A  
HETATM    7  C   UNL     1     -10.632   4.053  64.093  1.00  0.00    -0.197 C  
HETATM    8  C   UNL     1      -8.108   4.289  64.453  1.00  0.00    -0.095 A  
ENDROOT
BRANCH   8   9
HETATM    9  N   UNL     1      -8.256   5.698  64.317  1.00  0.00    -0.150 N  
HETATM   10  C   UNL     1      -7.722   6.612  65.213  1.00  0.00    -0.099 C  
HETATM   11  H   UNL     1      -8.782   6.055  63.520  1.00  0.00     0.000 HD 
HETATM   12  O   UNL     1      -7.072   6.319  66.214  1.00  0.00    -0.065 OA 
BRANCH  10  13
HETATM   13  C   UNL     1      -8.117   8.078  64.988  1.00  0.00    -0.145 C  
BRANCH  13  14
HETATM   14  N   UNL     1      -9.165   8.604  65.899  1.00  0.00    -0.211 NA 
HETATM   15  C   UNL     1      -8.903   8.109  67.280  1.00  0.00    -0.130 C  
HETATM   16  C   UNL     1      -7.714   8.777  68.026  1.00  0.00    -0.101 C  
HETATM   17  N   UNL     1      -7.710  10.253  68.010  1.00  0.00    -0.088 NA 
HETATM   18  C   UNL     1      -7.961  10.735  66.641  1.00  0.00    -0.139 C  
HETATM   19  C   UNL     1      -9.180  10.084  65.950  1.00  0.00    -0.167 C  
BRANCH  17  20
HETATM   20  C   UNL     1      -8.645  10.838  68.981  1.00  0.00    -0.138 C  
BRANCH  20  21
HETATM   21  C   UNL     1      -8.385  12.336  69.202  1.00  0.00     0.522 C  
BRANCH  21  22
HETATM   22  C   UNL     1      -9.054  13.251  68.163  1.00  0.00    -0.207 C  
HETATM   23  C   UNL     1     -10.543  12.926  67.874  1.00  0.00    -0.232 C  
HETATM   24  C   UNL     1     -11.111  13.709  66.688  1.00  0.00    -0.312 A  
HETATM   25  C   UNL     1     -11.377  13.076  69.143  1.00  0.00    -0.328 A  
HETATM   26  C   UNL     1     -11.515  14.325  69.774  1.00  0.00    -0.317 A  
HETATM   27  C   UNL     1     -12.136  13.133  65.914  1.00  0.00    -0.501 A  
HETATM   28  C   UNL     1     -12.641  13.795  64.792  1.00  0.00    -0.330 A  
HETATM   29  C   UNL     1     -12.167  14.433  71.002  1.00  0.00    -0.422 A  
HETATM   30  C   UNL     1     -12.132  15.040  64.445  1.00  0.00    -0.359 A  
HETATM   31  C   UNL     1     -12.690  13.296  71.602  1.00  0.00    -0.230 A  
HETATM   32  F   UNL     1     -13.289  13.397  72.795  1.00  0.00    -0.592 F  
HETATM   33  C   UNL     1     -12.589  12.053  70.989  1.00  0.00    -0.370 A  
HETATM   34  F   UNL     1     -12.605  15.669  63.360  1.00  0.00     0.184 F  
HETATM   35  C   UNL     1     -11.138  15.640  65.203  1.00  0.00    -0.357 A  
HETATM   36  C   UNL     1     -10.633  14.980  66.323  1.00  0.00    -0.309 A  
HETATM   37  C   UNL     1     -11.939  11.942  69.758  1.00  0.00    -0.377 A  
ENDBRANCH  21  22
ENDBRANCH  20  21
ENDBRANCH  17  20
ENDBRANCH  13  14
ENDBRANCH  10  13
ENDBRANCH   8   9
TORSDOF 6
ENDMDL
MODEL      205
REMARK 921   NORMALIZED FREE ENERGY PREDICTED BY IDOCK:   -3.17 KCAL/MOL
REMARK 922        TOTAL FREE ENERGY PREDICTED BY IDOCK:   -5.55 KCAL/MOL
REMARK 923 INTER-LIGAND FREE ENERGY PREDICTED BY IDOCK:   -6.11 KCAL/MOL
REMARK 924 INTRA-LIGAND FREE ENERGY PREDICTED BY IDOCK:    0.56 KCAL/MOL
REMARK 927      BINDING AFFINITY PREDICTED BY RF-SCORE:    0.00 PKD
ROOT
HETATM    1  C   UNL     1     -12.154  13.713  68.076  1.00  0.00    -0.309 C  
HETATM    2  C   UNL     1     -12.006  14.577  69.300  1.00  0.00    -0.355 A  
HETATM    3  C   UNL     1     -11.412  15.842  69.114  1.00  0.00    -0.377 A  
HETATM    4  C   UNL     1     -11.134  16.671  70.193  1.00  0.00    -0.077 A  
HETATM    5  C   UNL     1     -11.418  16.236  71.482  1.00  0.00    -0.344 A  
HETATM    6  C   UNL     1     -12.011  14.979  71.706  1.00  0.00    -0.442 A  
HETATM    7  C   UNL     1     -12.301  14.585  73.130  1.00  0.00    -0.278 C  
HETATM    8  C   UNL     1     -12.361  14.162  70.605  1.00  0.00    -0.365 A  
ENDROOT
BRANCH   8   9
HETATM    9  N   UNL     1     -13.034  12.934  70.863  1.00  0.00    -0.100 N  
HETATM   10  C   UNL     1     -12.415  11.695  70.794  1.00  0.00    -0.330 C  
HETATM   11  H   UNL     1     -14.023  12.967  71.110  1.00  0.00     0.000 HD 
HETATM   12  O   UNL     1     -11.235  11.513  70.505  1.00  0.00     0.132 OA 
BRANCH  10  13
HETATM   13  C   UNL     1     -13.337  10.478  70.951  1.00  0.00    -0.071 C  
BRANCH  13  14
HETATM   14  N   UNL     1     -13.015   9.576  72.086  1.00  0.00    -0.410 NA 
HETATM   15  C   UNL     1     -13.936   8.405  72.055  1.00  0.00    -0.405 C  
HETATM   16  C   UNL     1     -13.657   7.351  70.947  1.00  0.00     0.133 C  
HETATM   17  N   UNL     1     -12.257   6.892  70.853  1.00  0.00    -0.385 NA 
HETATM   18  C   UNL     1     -11.353   8.055  70.875  1.00  0.00    -0.276 C  
HETATM   19  C   UNL     1     -11.629   9.056  72.019  1.00  0.00    -0.343 C  
BRANCH  17  20
HETATM   20  C   UNL     1     -11.907   5.903  71.880  1.00  0.00    -0.081 C  
BRANCH  20  21
HETATM   21  C   UNL     1     -10.659   5.093  71.501  1.00  0.00    -0.217 C  
BRANCH  21  22
HETATM   22  C   UNL     1      -9.702   5.823  70.544  1.00  0.00    -0.225 C  
HETATM   23  C   UNL     1      -8.594   6.655  71.244  1.00  0.00    -0.126 C  
HETATM   24  C   UNL     1      -7.801   7.535  70.275  1.00  0.00    -0.094 A  
HETATM   25  C   UNL     1      -7.706   5.751  72.094  1.00  0.00    -0.102 A  
HETATM   26  C   UNL     1      -6.923   4.745  71.503  1.00  0.00    -0.044 A  
HETATM   27  C   UNL     1      -7.254   8.746  70.740  1.00  0.00    -0.073 A  
HETATM   28  C   UNL     1      -6.570   9.600  69.872  1.00  0.00    -0.065 A  
HETATM   29  C   UNL     1      -6.216   3.838  72.293  1.00  0.00    -0.013 A  
HETATM   30  C   UNL     1      -6.419   9.244  68.538  1.00  0.00    -0.053 A  
HETATM   31  C   UNL     1      -6.283   3.937  73.676  1.00  0.00    -0.024 A  
HETATM   32  F   UNL     1      -5.628   3.048  74.433  1.00  0.00     0.000 F  
HETATM   33  C   UNL     1      -7.030   4.938  74.286  1.00  0.00    -0.073 A  
HETATM   34  F   UNL     1      -5.777  10.069  67.701  1.00  0.00    -0.042 F  
HETATM   35  C   UNL     1      -6.928   8.046  68.059  1.00  0.00    -0.074 A  
HETATM   36  C   UNL     1      -7.611   7.193  68.925  1.00  0.00    -0.100 A  
HETATM   37  C   UNL     1      -7.737   5.848  73.498  1.00  0.00    -0.101 A  
ENDBRANCH  21  22
ENDBRANCH  20  21
ENDBRANCH  17  20
ENDBRANCH  13  14
ENDBRANCH  10  13
ENDBRANCH   8   9
TORSDOF 6
ENDMDL
MODEL      206
REMARK 921   NORMALIZED FREE ENERGY PREDICTED BY IDOCK:   -3.12 KCAL/MOL
REMARK 922        TOTAL FREE ENERGY PREDICTED BY IDOCK:   -5.49 KCAL/MOL
REMARK 923 INTER-LIGAND FREE ENERGY PREDICTED BY IDOCK:   -7.38 KCAL/MOL
REMARK 924 INTRA-LIGAND FREE ENERGY PREDICTED BY IDOCK:    1.89 KCAL/MOL
REMARK 927      BINDING AFFINITY PREDICTED BY RF-SCORE:    0.00 PKD
ROOT
HETATM    1  C   UNL     1     -11.767  12.571  67.992  1.00  0.00    -0.410 C  
HETATM    2  C   UNL     1     -12.041  13.592  69.064  1.00  0.00    -0.348 A  
HETATM    3  C   UNL     1     -11.844  14.944  68.716  1.00  0.00    -0.328 A  
HETATM    4  C   UNL     1     -11.967  15.954  69.662  1.00  0.00    -0.272 A  
HETATM    5  C   UNL     1     -12.262  15.627  70.980  1.00  0.00    -0.462 A  
HETATM    6  C   UNL     1     -12.465  14.287  71.364  1.00  0.00    -0.437 A  
HETATM    7  C   UNL     1     -12.794  14.014  72.808  1.00  0.00    -0.399 C  
HETATM    8  C   UNL     1     -12.411  13.262  70.390  1.00  0.00    -0.295 A  
ENDROOT
BRANCH   8   9
HETATM    9  N   UNL     1     -12.703  11.929  70.795  1.00  0.00    -0.211 N  
HETATM   10  C   UNL     1     -11.820  10.872  70.636  1.00  0.00    -0.352 C  
HETATM   11  H   UNL     1     -13.608  11.742  71.225  1.00  0.00     0.000 HD 
HETATM   12  O   UNL     1     -10.702  10.958  70.132  1.00  0.00    -0.126 OA 
BRANCH  10  13
HETATM   13  C   UNL     1     -12.370   9.483  70.990  1.00  0.00    -0.282 C  
BRANCH  13  14
HETATM   14  N   UNL     1     -11.397   8.553  71.617  1.00  0.00    -0.275 NA 
HETATM   15  C   UNL     1     -11.929   7.164  71.536  1.00  0.00    -0.326 C  
HETATM   16  C   UNL     1     -11.880   6.499  70.132  1.00  0.00    -0.264 C  
HETATM   17  N   UNL     1     -10.577   6.581  69.442  1.00  0.00    -0.222 NA 
HETATM   18  C   UNL     1     -10.062   7.959  69.519  1.00  0.00    -0.195 C  
HETATM   19  C   UNL     1     -10.080   8.568  70.938  1.00  0.00    -0.201 C  
BRANCH  17  20
HETATM   20  C   UNL     1      -9.603   5.599  69.938  1.00  0.00    -0.161 C  
BRANCH  20  21
HETATM   21  C   UNL     1      -8.428   5.410  68.968  1.00  0.00    -0.100 C  
BRANCH  21  22
HETATM   22  C   UNL     1      -8.312   6.509  67.898  1.00  0.00    -0.115 C  
HETATM   23  C   UNL     1      -7.460   6.123  66.660  1.00  0.00    -0.090 C  
HETATM   24  C   UNL     1      -7.188   7.304  65.725  1.00  0.00    -0.070 A  
HETATM   25  C   UNL     1      -8.075   4.923  65.944  1.00  0.00    -0.108 A  
HETATM   26  C   UNL     1      -9.346   5.009  65.352  1.00  0.00    -0.123 A  
HETATM   27  C   UNL     1      -5.998   7.322  64.973  1.00  0.00    -0.037 A  
HETATM   28  C   UNL     1      -5.691   8.408  64.150  1.00  0.00    -0.064 A  
HETATM   29  C   UNL     1      -9.958   3.876  64.816  1.00  0.00    -0.203 A  
HETATM   30  C   UNL     1      -6.575   9.476  64.066  1.00  0.00    -0.101 A  
HETATM   31  C   UNL     1      -9.299   2.655  64.861  1.00  0.00    -0.127 A  
HETATM   32  F   UNL     1      -9.901   1.563  64.373  1.00  0.00    -0.133 F  
HETATM   33  C   UNL     1      -8.031   2.548  65.419  1.00  0.00    -0.079 A  
HETATM   34  F   UNL     1      -6.274  10.525  63.290  1.00  0.00    -0.140 F  
HETATM   35  C   UNL     1      -7.764   9.473  64.779  1.00  0.00    -0.119 A  
HETATM   36  C   UNL     1      -8.072   8.389  65.601  1.00  0.00    -0.125 A  
HETATM   37  C   UNL     1      -7.415   3.680  65.955  1.00  0.00    -0.077 A  
ENDBRANCH  21  22
ENDBRANCH  20  21
ENDBRANCH  17  20
ENDBRANCH  13  14
ENDBRANCH  10  13
ENDBRANCH   8   9
TORSDOF 6
ENDMDL
MODEL      207
REMARK 921   NORMALIZED FREE ENERGY PREDICTED BY IDOCK:   -3.08 KCAL/MOL
REMARK 922        TOTAL FREE ENERGY PREDICTED BY IDOCK:   -5.42 KCAL/MOL
REMARK 923 INTER-LIGAND FREE ENERGY PREDICTED BY IDOCK:   -6.54 KCAL/MOL
REMARK 924 INTRA-LIGAND FREE ENERGY PREDICTED BY IDOCK:    1.11 KCAL/MOL
REMARK 927      BINDING AFFINITY PREDICTED BY RF-SCORE:    0.00 PKD
ROOT
HETATM    1  C   UNL     1      -5.551   8.813  69.314  1.00  0.00    -0.035 C  
HETATM    2  C   UNL     1      -6.150   7.950  68.234  1.00  0.00    -0.041 A  
HETATM    3  C   UNL     1      -5.246   7.262  67.399  1.00  0.00    -0.020 A  
HETATM    4  C   UNL     1      -5.693   6.525  66.310  1.00  0.00    -0.014 A  
HETATM    5  C   UNL     1      -7.051   6.488  66.019  1.00  0.00    -0.063 A  
HETATM    6  C   UNL     1      -7.983   7.163  66.830  1.00  0.00    -0.115 A  
HETATM    7  C   UNL     1      -9.439   7.063  66.458  1.00  0.00    -0.199 C  
HETATM    8  C   UNL     1      -7.539   7.855  67.982  1.00  0.00    -0.113 A  
ENDROOT
BRANCH   8   9
HETATM    9  N   UNL     1      -8.515   8.457  68.826  1.00  0.00    -0.123 N  
HETATM   10  C   UNL     1      -9.270   7.747  69.747  1.00  0.00    -0.150 C  
HETATM   11  H   UNL     1      -8.666   9.462  68.750  1.00  0.00     0.000 HD 
HETATM   12  O   UNL     1      -9.191   6.535  69.937  1.00  0.00    -0.148 OA 
BRANCH  10  13
HETATM   13  C   UNL     1     -10.378   8.539  70.455  1.00  0.00    -0.202 C  
BRANCH  13  14
HETATM   14  N   UNL     1     -11.428   9.100  69.567  1.00  0.00     0.149 NA 
HETATM   15  C   UNL     1     -12.343   9.955  70.374  1.00  0.00    -0.076 C  
HETATM   16  C   UNL     1     -11.773  11.333  70.814  1.00  0.00    -0.043 C  
HETATM   17  N   UNL     1     -11.156  12.132  69.737  1.00  0.00     0.007 NA 
HETATM   18  C   UNL     1     -10.246  11.283  68.949  1.00  0.00    -0.180 C  
HETATM   19  C   UNL     1     -10.863   9.944  68.488  1.00  0.00    -0.217 C  
BRANCH  17  20
HETATM   20  C   UNL     1     -12.145  12.814  68.891  1.00  0.00    -0.135 C  
BRANCH  20  21
HETATM   21  C   UNL     1     -11.511  13.403  67.622  1.00  0.00    -0.353 C  
BRANCH  21  22
HETATM   22  C   UNL     1     -10.471  14.503  67.891  1.00  0.00    -0.242 C  
HETATM   23  C   UNL     1     -11.054  15.822  68.465  1.00  0.00    -0.335 C  
HETATM   24  C   UNL     1     -10.032  16.959  68.515  1.00  0.00    -0.275 A  
HETATM   25  C   UNL     1     -11.729  15.564  69.809  1.00  0.00    -0.362 A  
HETATM   26  C   UNL     1     -10.987  15.120  70.917  1.00  0.00    -0.239 A  
HETATM   27  C   UNL     1     -10.478  18.288  68.386  1.00  0.00    -0.292 A  
HETATM   28  C   UNL     1      -9.569  19.349  68.374  1.00  0.00    -0.460 A  
HETATM   29  C   UNL     1     -11.627  14.761  72.103  1.00  0.00    -0.142 A  
HETATM   30  C   UNL     1      -8.210  19.087  68.502  1.00  0.00    -0.355 A  
HETATM   31  C   UNL     1     -13.009  14.852  72.190  1.00  0.00    -0.334 A  
HETATM   32  F   UNL     1     -13.624  14.479  73.320  1.00  0.00    -0.502 F  
HETATM   33  C   UNL     1     -13.764  15.312  71.118  1.00  0.00    -0.519 A  
HETATM   34  F   UNL     1      -7.336  20.102  68.474  1.00  0.00    -0.337 F  
HETATM   35  C   UNL     1      -7.746  17.790  68.653  1.00  0.00    -0.283 A  
HETATM   36  C   UNL     1      -8.653  16.731  68.665  1.00  0.00    -0.263 A  
HETATM   37  C   UNL     1     -13.127  15.674  69.931  1.00  0.00     0.478 A  
ENDBRANCH  21  22
ENDBRANCH  20  21
ENDBRANCH  17  20
ENDBRANCH  13  14
ENDBRANCH  10  13
ENDBRANCH   8   9
TORSDOF 6
ENDMDL
MODEL      208
REMARK 921   NORMALIZED FREE ENERGY PREDICTED BY IDOCK:   -3.00 KCAL/MOL
REMARK 922        TOTAL FREE ENERGY PREDICTED BY IDOCK:   -5.32 KCAL/MOL
REMARK 923 INTER-LIGAND FREE ENERGY PREDICTED BY IDOCK:   -6.73 KCAL/MOL
REMARK 924 INTRA-LIGAND FREE ENERGY PREDICTED BY IDOCK:    1.41 KCAL/MOL
REMARK 927      BINDING AFFINITY PREDICTED BY RF-SCORE:    0.00 PKD
ROOT
HETATM    1  C   UNL     1     -12.486  12.351  63.969  1.00  0.00    -0.554 C  
HETATM    2  C   UNL     1     -11.695  13.233  64.899  1.00  0.00    -0.375 A  
HETATM    3  C   UNL     1     -12.275  14.471  65.244  1.00  0.00    -0.321 A  
HETATM    4  C   UNL     1     -11.582  15.400  66.010  1.00  0.00     0.103 A  
HETATM    5  C   UNL     1     -10.284  15.120  66.418  1.00  0.00    -0.291 A  
HETATM    6  C   UNL     1      -9.672  13.894  66.092  1.00  0.00    -0.289 A  
HETATM    7  C   UNL     1      -8.268  13.658  66.583  1.00  0.00     0.358 C  
HETATM    8  C   UNL     1     -10.400  12.916  65.374  1.00  0.00    -0.296 A  
ENDROOT
BRANCH   8   9
HETATM    9  N   UNL     1      -9.782  11.656  65.132  1.00  0.00    -0.269 N  
HETATM   10  C   UNL     1      -9.314  11.262  63.888  1.00  0.00    -0.130 C  
HETATM   11  H   UNL     1      -9.678  11.010  65.915  1.00  0.00     0.000 HD 
HETATM   12  O   UNL     1      -9.379  11.939  62.865  1.00  0.00    -0.331 OA 
BRANCH  10  13
HETATM   13  C   UNL     1      -8.821   9.811  63.789  1.00  0.00    -0.235 C  
BRANCH  13  14
HETATM   14  N   UNL     1      -7.987   9.342  64.925  1.00  0.00    -0.115 NA 
HETATM   15  C   UNL     1      -8.794   9.396  66.176  1.00  0.00    -0.151 C  
HETATM   16  C   UNL     1      -9.882   8.296  66.331  1.00  0.00    -0.213 C  
HETATM   17  N   UNL     1      -9.419   6.915  66.088  1.00  0.00    -0.066 NA 
HETATM   18  C   UNL     1      -8.630   6.868  64.845  1.00  0.00     0.161 C  
HETATM   19  C   UNL     1      -7.526   7.945  64.749  1.00  0.00    -0.095 C  
BRANCH  17  20
HETATM   20  C   UNL     1      -8.686   6.347  67.228  1.00  0.00    -0.106 C  
BRANCH  20  21
HETATM   21  C   UNL     1      -9.327   6.726  68.572  1.00  0.00    -0.126 C  
BRANCH  21  22
HETATM   22  C   UNL     1      -9.658   8.221  68.712  1.00  0.00    -0.150 C  
HETATM   23  C   UNL     1     -10.556   8.577  69.926  1.00  0.00    -0.228 C  
HETATM   24  C   UNL     1     -11.041  10.028  69.912  1.00  0.00    -0.336 A  
HETATM   25  C   UNL     1      -9.863   8.190  71.231  1.00  0.00    -0.207 A  
HETATM   26  C   UNL     1      -8.663   8.808  71.622  1.00  0.00    -0.255 A  
HETATM   27  C   UNL     1     -12.281  10.342  70.499  1.00  0.00    -0.390 A  
HETATM   28  C   UNL     1     -12.781  11.646  70.458  1.00  0.00    -0.157 A  
HETATM   29  C   UNL     1      -7.967   8.361  72.745  1.00  0.00    -0.156 A  
HETATM   30  C   UNL     1     -12.039  12.644  69.840  1.00  0.00    -0.252 A  
HETATM   31  C   UNL     1      -8.470   7.301  73.486  1.00  0.00    -0.138 A  
HETATM   32  F   UNL     1      -7.785   6.854  74.546  1.00  0.00    -0.108 F  
HETATM   33  C   UNL     1      -9.667   6.689  73.135  1.00  0.00    -0.178 A  
HETATM   34  F   UNL     1     -12.524  13.892  69.785  1.00  0.00    -0.362 F  
HETATM   35  C   UNL     1     -10.804  12.367  69.273  1.00  0.00    -0.073 A  
HETATM   36  C   UNL     1     -10.304  11.065  69.314  1.00  0.00    -0.181 A  
HETATM   37  C   UNL     1     -10.368   7.135  72.013  1.00  0.00    -0.214 A  
ENDBRANCH  21  22
ENDBRANCH  20  21
ENDBRANCH  17  20
ENDBRANCH  13  14
ENDBRANCH  10  13
ENDBRANCH   8   9
TORSDOF 6
ENDMDL
MODEL      209
REMARK 921   NORMALIZED FREE ENERGY PREDICTED BY IDOCK:   -2.86 KCAL/MOL
REMARK 922        TOTAL FREE ENERGY PREDICTED BY IDOCK:   -5.14 KCAL/MOL
REMARK 923 INTER-LIGAND FREE ENERGY PREDICTED BY IDOCK:   -5.88 KCAL/MOL
REMARK 924 INTRA-LIGAND FREE ENERGY PREDICTED BY IDOCK:    0.75 KCAL/MOL
REMARK 927      BINDING AFFINITY PREDICTED BY RF-SCORE:    0.00 PKD
ROOT
HETATM    1  C   UNL     1      -7.708   4.439  67.545  1.00  0.00    -0.085 C  
HETATM    2  C   UNL     1      -7.653   5.261  66.285  1.00  0.00    -0.088 A  
HETATM    3  C   UNL     1      -6.910   4.728  65.212  1.00  0.00    -0.060 A  
HETATM    4  C   UNL     1      -6.711   5.455  64.045  1.00  0.00    -0.045 A  
HETATM    5  C   UNL     1      -7.227   6.741  63.942  1.00  0.00    -0.068 A  
HETATM    6  C   UNL     1      -7.974   7.306  64.993  1.00  0.00    -0.129 A  
HETATM    7  C   UNL     1      -8.512   8.699  64.800  1.00  0.00    -0.168 C  
HETATM    8  C   UNL     1      -8.240   6.542  66.154  1.00  0.00    -0.123 A  
ENDROOT
BRANCH   8   9
HETATM    9  N   UNL     1      -9.068   7.113  67.163  1.00  0.00    -0.126 N  
HETATM   10  C   UNL     1      -8.585   7.565  68.381  1.00  0.00    -0.124 C  
HETATM   11  H   UNL     1     -10.068   7.193  66.979  1.00  0.00     0.000 HD 
HETATM   12  O   UNL     1      -7.408   7.525  68.731  1.00  0.00    -0.089 OA 
BRANCH  10  13
HETATM   13  C   UNL     1      -9.647   8.004  69.399  1.00  0.00    -0.160 C  
BRANCH  13  14
HETATM   14  N   UNL     1      -9.342   9.253  70.141  1.00  0.00    -0.209 NA 
HETATM   15  C   UNL     1      -8.537  10.154  69.269  1.00  0.00    -0.174 C  
HETATM   16  C   UNL     1      -9.312  10.855  68.118  1.00  0.00    -0.165 C  
HETATM   17  N   UNL     1     -10.563  11.528  68.520  1.00  0.00    -0.201 NA 
HETATM   18  C   UNL     1     -11.357  10.629  69.375  1.00  0.00    -0.284 C  
HETATM   19  C   UNL     1     -10.565   9.989  70.537  1.00  0.00    -0.246 C  
BRANCH  17  20
HETATM   20  C   UNL     1     -10.333  12.832  69.156  1.00  0.00     0.191 C  
BRANCH  20  21
HETATM   21  C   UNL     1     -11.553  13.757  69.036  1.00  0.00    -0.356 C  
BRANCH  21  22
HETATM   22  C   UNL     1     -11.382  14.897  68.018  1.00  0.00    -0.337 C  
HETATM   23  C   UNL     1     -10.299  15.943  68.392  1.00  0.00    -0.240 C  
HETATM   24  C   UNL     1     -10.305  17.169  67.476  1.00  0.00    -0.341 A  
HETATM   25  C   UNL     1      -8.928  15.279  68.492  1.00  0.00    -0.187 A  
HETATM   26  C   UNL     1      -8.326  14.692  67.366  1.00  0.00    -0.223 A  
HETATM   27  C   UNL     1      -9.896  18.413  67.992  1.00  0.00    -0.359 A  
HETATM   28  C   UNL     1      -9.939  19.563  67.200  1.00  0.00    -0.487 A  
HETATM   29  C   UNL     1      -7.137  13.972  67.490  1.00  0.00    -0.179 A  
HETATM   30  C   UNL     1     -10.381  19.474  65.887  1.00  0.00    -0.470 A  
HETATM   31  C   UNL     1      -6.542  13.843  68.736  1.00  0.00    -0.098 A  
HETATM   32  F   UNL     1      -5.417  13.127  68.858  1.00  0.00    -0.069 F  
HETATM   33  C   UNL     1      -7.103  14.434  69.862  1.00  0.00     0.047 A  
HETATM   34  F   UNL     1     -10.438  20.579  65.132  1.00  0.00    -0.390 F  
HETATM   35  C   UNL     1     -10.768  18.258  65.346  1.00  0.00     0.213 A  
HETATM   36  C   UNL     1     -10.726  17.109  66.136  1.00  0.00    -0.094 A  
HETATM   37  C   UNL     1      -8.291  15.156  69.741  1.00  0.00     0.041 A  
ENDBRANCH  21  22
ENDBRANCH  20  21
ENDBRANCH  17  20
ENDBRANCH  13  14
ENDBRANCH  10  13
ENDBRANCH   8   9
TORSDOF 6
ENDMDL
MODEL      210
REMARK 921   NORMALIZED FREE ENERGY PREDICTED BY IDOCK:   -2.82 KCAL/MOL
REMARK 922        TOTAL FREE ENERGY PREDICTED BY IDOCK:   -5.08 KCAL/MOL
REMARK 923 INTER-LIGAND FREE ENERGY PREDICTED BY IDOCK:   -4.29 KCAL/MOL
REMARK 924 INTRA-LIGAND FREE ENERGY PREDICTED BY IDOCK:   -0.80 KCAL/MOL
REMARK 927      BINDING AFFINITY PREDICTED BY RF-SCORE:    0.00 PKD
ROOT
HETATM    1  C   UNL     1      -5.700   7.332  65.348  1.00  0.00    -0.036 C  
HETATM    2  C   UNL     1      -6.180   6.082  64.660  1.00  0.00    -0.030 A  
HETATM    3  C   UNL     1      -5.437   5.649  63.543  1.00  0.00    -0.014 A  
HETATM    4  C   UNL     1      -5.856   4.569  62.776  1.00  0.00    -0.017 A  
HETATM    5  C   UNL     1      -7.043   3.921  63.096  1.00  0.00    -0.045 A  
HETATM    6  C   UNL     1      -7.811   4.326  64.204  1.00  0.00    -0.085 A  
HETATM    7  C   UNL     1      -9.078   3.565  64.495  1.00  0.00    -0.130 C  
HETATM    8  C   UNL     1      -7.351   5.379  65.030  1.00  0.00    -0.068 A  
ENDROOT
BRANCH   8   9
HETATM    9  N   UNL     1      -8.109   5.709  66.189  1.00  0.00    -0.106 N  
HETATM   10  C   UNL     1      -7.744   5.332  67.473  1.00  0.00    -0.096 C  
HETATM   11  H   UNL     1      -8.966   6.249  66.069  1.00  0.00     0.000 HD 
HETATM   12  O   UNL     1      -6.743   4.679  67.756  1.00  0.00    -0.048 OA 
BRANCH  10  13
HETATM   13  C   UNL     1      -8.765   5.644  68.576  1.00  0.00    -0.110 C  
BRANCH  13  14
HETATM   14  N   UNL     1      -8.525   6.901  69.330  1.00  0.00    -0.129 NA 
HETATM   15  C   UNL     1      -8.547   8.050  68.381  1.00  0.00    -0.127 C  
HETATM   16  C   UNL     1      -9.948   8.465  67.849  1.00  0.00    -0.184 C  
HETATM   17  N   UNL     1     -10.986   8.645  68.884  1.00  0.00     0.024 NA 
HETATM   18  C   UNL     1     -10.963   7.502  69.813  1.00  0.00    -0.184 C  
HETATM   19  C   UNL     1      -9.562   7.150  70.358  1.00  0.00    -0.169 C  
BRANCH  17  20
HETATM   20  C   UNL     1     -10.875   9.930  69.588  1.00  0.00    -0.253 C  
BRANCH  20  21
HETATM   21  C   UNL     1     -10.992  11.125  68.631  1.00  0.00    -0.268 C  
BRANCH  21  22
HETATM   22  C   UNL     1     -10.133  12.337  69.028  1.00  0.00     0.117 C  
HETATM   23  C   UNL     1      -9.334  12.977  67.862  1.00  0.00    -0.212 C  
HETATM   24  C   UNL     1      -8.331  14.034  68.329  1.00  0.00    -0.162 A  
HETATM   25  C   UNL     1     -10.285  13.490  66.784  1.00  0.00    -0.264 A  
HETATM   26  C   UNL     1     -11.196  14.525  67.057  1.00  0.00    -0.342 A  
HETATM   27  C   UNL     1      -7.153  14.237  67.586  1.00  0.00    -0.200 A  
HETATM   28  C   UNL     1      -6.190  15.156  68.011  1.00  0.00    -0.159 A  
HETATM   29  C   UNL     1     -12.150  14.900  66.111  1.00  0.00     0.020 A  
HETATM   30  C   UNL     1      -6.404  15.883  69.175  1.00  0.00    -0.146 A  
HETATM   31  C   UNL     1     -12.194  14.248  64.887  1.00  0.00    -0.440 A  
HETATM   32  F   UNL     1     -13.129  14.589  63.992  1.00  0.00     0.095 F  
HETATM   33  C   UNL     1     -11.289  13.238  64.582  1.00  0.00    -0.372 A  
HETATM   34  F   UNL     1      -5.474  16.752  69.592  1.00  0.00    -0.135 F  
HETATM   35  C   UNL     1      -7.566  15.719  69.914  1.00  0.00     0.204 A  
HETATM   36  C   UNL     1      -8.528  14.802  69.490  1.00  0.00     0.087 A  
HETATM   37  C   UNL     1     -10.332  12.862  65.525  1.00  0.00    -0.304 A  
ENDBRANCH  21  22
ENDBRANCH  20  21
ENDBRANCH  17  20
ENDBRANCH  13  14
ENDBRANCH  10  13
ENDBRANCH   8   9
TORSDOF 6
ENDMDL
MODEL      211
REMARK 921   NORMALIZED FREE ENERGY PREDICTED BY IDOCK:   -2.79 KCAL/MOL
REMARK 922        TOTAL FREE ENERGY PREDICTED BY IDOCK:   -5.04 KCAL/MOL
REMARK 923 INTER-LIGAND FREE ENERGY PREDICTED BY IDOCK:   -5.70 KCAL/MOL
REMARK 924 INTRA-LIGAND FREE ENERGY PREDICTED BY IDOCK:    0.67 KCAL/MOL
REMARK 927      BINDING AFFINITY PREDICTED BY RF-SCORE:    0.00 PKD
ROOT
HETATM    1  C   UNL     1      -6.214  16.029  66.765  1.00  0.00     0.382 C  
HETATM    2  C   UNL     1      -7.606  15.456  66.737  1.00  0.00     0.022 A  
HETATM    3  C   UNL     1      -8.561  16.150  65.966  1.00  0.00    -0.231 A  
HETATM    4  C   UNL     1      -9.896  15.764  65.959  1.00  0.00    -0.366 A  
HETATM    5  C   UNL     1     -10.304  14.695  66.747  1.00  0.00    -0.268 A  
HETATM    6  C   UNL     1      -9.378  13.979  67.529  1.00  0.00    -0.209 A  
HETATM    7  C   UNL     1      -9.895  12.823  68.345  1.00  0.00    -0.196 C  
HETATM    8  C   UNL     1      -8.006  14.323  67.484  1.00  0.00    -0.188 A  
ENDROOT
BRANCH   8   9
HETATM    9  N   UNL     1      -7.085  13.527  68.222  1.00  0.00    -0.097 N  
HETATM   10  C   UNL     1      -6.384  12.464  67.674  1.00  0.00    -0.131 C  
HETATM   11  H   UNL     1      -6.934  13.749  69.206  1.00  0.00     0.000 HD 
HETATM   12  O   UNL     1      -6.475  12.088  66.507  1.00  0.00    -0.013 OA 
BRANCH  10  13
HETATM   13  C   UNL     1      -5.557  11.628  68.661  1.00  0.00    -0.045 C  
BRANCH  13  14
HETATM   14  N   UNL     1      -6.189  11.394  69.984  1.00  0.00    -0.142 NA 
HETATM   15  C   UNL     1      -7.457  10.636  69.791  1.00  0.00    -0.079 C  
HETATM   16  C   UNL     1      -7.300   9.130  69.437  1.00  0.00    -0.076 C  
HETATM   17  N   UNL     1      -6.386   8.370  70.312  1.00  0.00    -0.035 NA 
HETATM   18  C   UNL     1      -5.132   9.122  70.491  1.00  0.00    -0.023 C  
HETATM   19  C   UNL     1      -5.326  10.601  70.890  1.00  0.00    -0.100 C  
BRANCH  17  20
HETATM   20  C   UNL     1      -6.996   8.002  71.597  1.00  0.00    -0.066 C  
BRANCH  20  21
HETATM   21  C   UNL     1      -8.239   7.118  71.413  1.00  0.00    -0.107 C  
BRANCH  21  22
HETATM   22  C   UNL     1      -9.569   7.836  71.695  1.00  0.00    -0.191 C  
HETATM   23  C   UNL     1     -10.061   8.763  70.553  1.00  0.00    -0.233 C  
HETATM   24  C   UNL     1     -11.264   9.622  70.950  1.00  0.00    -0.422 A  
HETATM   25  C   UNL     1     -10.297   7.958  69.278  1.00  0.00    -0.222 A  
HETATM   26  C   UNL     1     -11.284   6.958  69.227  1.00  0.00    -0.188 A  
HETATM   27  C   UNL     1     -11.433  10.885  70.351  1.00  0.00    -0.367 A  
HETATM   28  C   UNL     1     -12.489  11.718  70.728  1.00  0.00    -0.405 A  
HETATM   29  C   UNL     1     -11.407   6.137  68.106  1.00  0.00     0.069 A  
HETATM   30  C   UNL     1     -13.387  11.289  71.698  1.00  0.00    -0.199 A  
HETATM   31  C   UNL     1     -10.551   6.316  67.029  1.00  0.00    -0.318 A  
HETATM   32  F   UNL     1     -10.651   5.508  65.966  1.00  0.00    -0.225 F  
HETATM   33  C   UNL     1      -9.583   7.313  67.043  1.00  0.00    -0.213 A  
HETATM   34  F   UNL     1     -14.390  12.094  72.072  1.00  0.00     0.180 F  
HETATM   35  C   UNL     1     -13.257  10.041  72.287  1.00  0.00    -0.401 A  
HETATM   36  C   UNL     1     -12.203   9.209  71.911  1.00  0.00    -0.449 A  
HETATM   37  C   UNL     1      -9.458   8.137  68.162  1.00  0.00    -0.150 A  
ENDBRANCH  21  22
ENDBRANCH  20  21
ENDBRANCH  17  20
ENDBRANCH  13  14
ENDBRANCH  10  13
ENDBRANCH   8   9
TORSDOF 6
ENDMDL
MODEL      212
REMARK 921   NORMALIZED FREE ENERGY PREDICTED BY IDOCK:   -2.72 KCAL/MOL
REMARK 922        TOTAL FREE ENERGY PREDICTED BY IDOCK:   -4.94 KCAL/MOL
REMARK 923 INTER-LIGAND FREE ENERGY PREDICTED BY IDOCK:   -7.06 KCAL/MOL
REMARK 924 INTRA-LIGAND FREE ENERGY PREDICTED BY IDOCK:    2.11 KCAL/MOL
REMARK 927      BINDING AFFINITY PREDICTED BY RF-SCORE:    0.00 PKD
ROOT
HETATM    1  C   UNL     1     -10.313  12.140  63.204  1.00  0.00    -0.205 C  
HETATM    2  C   UNL     1     -11.008  12.746  64.394  1.00  0.00    -0.393 A  
HETATM    3  C   UNL     1     -12.314  13.233  64.185  1.00  0.00    -0.408 A  
HETATM    4  C   UNL     1     -13.000  13.904  65.190  1.00  0.00    -0.282 A  
HETATM    5  C   UNL     1     -12.379  14.126  66.413  1.00  0.00    -0.431 A  
HETATM    6  C   UNL     1     -11.075  13.654  66.658  1.00  0.00    -0.312 A  
HETATM    7  C   UNL     1     -10.476  13.922  68.013  1.00  0.00    -0.243 C  
HETATM    8  C   UNL     1     -10.400  12.908  65.662  1.00  0.00    -0.282 A  
ENDROOT
BRANCH   8   9
HETATM    9  N   UNL     1      -9.117  12.375  65.972  1.00  0.00    -0.429 N  
HETATM   10  C   UNL     1      -8.779  11.043  65.790  1.00  0.00    -0.174 C  
HETATM   11  H   UNL     1      -8.409  13.006  66.348  1.00  0.00     0.000 HD 
HETATM   12  O   UNL     1      -9.535  10.179  65.351  1.00  0.00    -0.199 OA 
BRANCH  10  13
HETATM   13  C   UNL     1      -7.403  10.623  66.325  1.00  0.00    -0.137 C  
BRANCH  13  14
HETATM   14  N   UNL     1      -7.386   9.378  67.134  1.00  0.00    -0.087 NA 
HETATM   15  C   UNL     1      -6.209   9.405  68.046  1.00  0.00    -0.057 C  
HETATM   16  C   UNL     1      -6.316  10.366  69.263  1.00  0.00    -0.048 C  
HETATM   17  N   UNL     1      -7.560  10.251  70.049  1.00  0.00    -0.149 NA 
HETATM   18  C   UNL     1      -8.720  10.233  69.141  1.00  0.00    -0.172 C  
HETATM   19  C   UNL     1      -8.599   9.231  67.972  1.00  0.00    -0.121 C  
BRANCH  17  20
HETATM   20  C   UNL     1      -7.557   9.100  70.962  1.00  0.00    -0.096 C  
BRANCH  20  21
HETATM   21  C   UNL     1      -8.972   8.557  71.212  1.00  0.00    -0.244 C  
BRANCH  21  22
HETATM   22  C   UNL     1      -9.558   7.761  70.034  1.00  0.00    -0.161 C  
HETATM   23  C   UNL     1      -8.850   6.410  69.747  1.00  0.00    -0.142 C  
HETATM   24  C   UNL     1      -9.314   5.752  68.446  1.00  0.00    -0.130 A  
HETATM   25  C   UNL     1      -8.957   5.485  70.956  1.00  0.00    -0.153 A  
HETATM   26  C   UNL     1     -10.207   5.019  71.401  1.00  0.00    -0.270 A  
HETATM   27  C   UNL     1      -8.414   4.942  67.728  1.00  0.00    -0.104 A  
HETATM   28  C   UNL     1      -8.785   4.368  66.510  1.00  0.00    -0.112 A  
HETATM   29  C   UNL     1     -10.312   4.283  72.581  1.00  0.00    -0.243 A  
HETATM   30  C   UNL     1     -10.060   4.593  66.007  1.00  0.00    -0.264 A  
HETATM   31  C   UNL     1      -9.170   4.003  73.317  1.00  0.00    -0.105 A  
HETATM   32  F   UNL     1      -9.276   3.322  74.465  1.00  0.00    -0.092 F  
HETATM   33  C   UNL     1      -7.919   4.431  72.888  1.00  0.00    -0.091 A  
HETATM   34  F   UNL     1     -10.412   4.056  64.831  1.00  0.00    -0.216 F  
HETATM   35  C   UNL     1     -10.974   5.368  66.704  1.00  0.00    -0.074 A  
HETATM   36  C   UNL     1     -10.604   5.941  67.921  1.00  0.00    -0.322 A  
HETATM   37  C   UNL     1      -7.810   5.166  71.707  1.00  0.00    -0.110 A  
ENDBRANCH  21  22
ENDBRANCH  20  21
ENDBRANCH  17  20
ENDBRANCH  13  14
ENDBRANCH  10  13
ENDBRANCH   8   9
TORSDOF 6
ENDMDL
MODEL      213
REMARK 921   NORMALIZED FREE ENERGY PREDICTED BY IDOCK:   -2.70 KCAL/MOL
REMARK 922        TOTAL FREE ENERGY PREDICTED BY IDOCK:   -4.92 KCAL/MOL
REMARK 923 INTER-LIGAND FREE ENERGY PREDICTED BY IDOCK:   -6.16 KCAL/MOL
REMARK 924 INTRA-LIGAND FREE ENERGY PREDICTED BY IDOCK:    1.25 KCAL/MOL
REMARK 927      BINDING AFFINITY PREDICTED BY RF-SCORE:    0.00 PKD
ROOT
HETATM    1  C   UNL     1     -11.762  12.993  68.487  1.00  0.00    -0.377 C  
HETATM    2  C   UNL     1     -11.990  14.026  69.558  1.00  0.00    -0.390 A  
HETATM    3  C   UNL     1     -11.571  15.341  69.269  1.00  0.00    -0.350 A  
HETATM    4  C   UNL     1     -11.640  16.343  70.229  1.00  0.00    -0.030 A  
HETATM    5  C   UNL     1     -12.102  16.041  71.504  1.00  0.00    -0.513 A  
HETATM    6  C   UNL     1     -12.528  14.739  71.828  1.00  0.00    -0.410 A  
HETATM    7  C   UNL     1     -13.029  14.494  73.227  1.00  0.00    -0.500 C  
HETATM    8  C   UNL     1     -12.527  13.732  70.834  1.00  0.00    -0.377 A  
ENDROOT
BRANCH   8   9
HETATM    9  N   UNL     1     -13.042  12.449  71.172  1.00  0.00    -0.135 N  
HETATM   10  C   UNL     1     -12.269  11.298  71.200  1.00  0.00    -0.246 C  
HETATM   11  H   UNL     1     -14.032  12.371  71.406  1.00  0.00     0.000 HD 
HETATM   12  O   UNL     1     -11.069  11.251  70.938  1.00  0.00     0.656 OA 
BRANCH  10  13
HETATM   13  C   UNL     1     -13.030   9.986  71.435  1.00  0.00    -0.418 C  
BRANCH  13  14
HETATM   14  N   UNL     1     -12.267   8.923  72.137  1.00  0.00    -0.369 NA 
HETATM   15  C   UNL     1     -12.965   7.620  71.952  1.00  0.00    -0.270 C  
HETATM   16  C   UNL     1     -12.843   6.978  70.541  1.00  0.00     0.273 C  
HETATM   17  N   UNL     1     -11.470   6.896  70.004  1.00  0.00    -0.298 NA 
HETATM   18  C   UNL     1     -10.790   8.190  70.183  1.00  0.00    -0.241 C  
HETATM   19  C   UNL     1     -10.891   8.773  71.610  1.00  0.00    -0.329 C  
BRANCH  17  20
HETATM   20  C   UNL     1     -10.698   5.784  70.575  1.00  0.00    -0.291 C  
BRANCH  20  21
HETATM   21  C   UNL     1      -9.502   5.399  69.691  1.00  0.00    -0.194 C  
BRANCH  21  22
HETATM   22  C   UNL     1      -9.337   6.275  68.438  1.00  0.00    -0.113 C  
HETATM   23  C   UNL     1      -7.866   6.544  68.023  1.00  0.00    -0.105 C  
HETATM   24  C   UNL     1      -7.736   7.588  66.911  1.00  0.00    -0.110 A  
HETATM   25  C   UNL     1      -7.156   5.232  67.697  1.00  0.00    -0.067 A  
HETATM   26  C   UNL     1      -7.575   4.433  66.620  1.00  0.00    -0.089 A  
HETATM   27  C   UNL     1      -6.581   8.390  66.856  1.00  0.00    -0.058 A  
HETATM   28  C   UNL     1      -6.451   9.389  65.888  1.00  0.00    -0.075 A  
HETATM   29  C   UNL     1      -7.010   3.175  66.407  1.00  0.00    -0.054 A  
HETATM   30  C   UNL     1      -7.471   9.584  64.964  1.00  0.00    -0.110 A  
HETATM   31  C   UNL     1      -6.020   2.715  67.264  1.00  0.00    -0.023 A  
HETATM   32  F   UNL     1      -5.500   1.496  67.076  1.00  0.00    -0.014 F  
HETATM   33  C   UNL     1      -5.571   3.496  68.323  1.00  0.00    -0.018 A  
HETATM   34  F   UNL     1      -7.355  10.552  64.045  1.00  0.00    -0.120 F  
HETATM   35  C   UNL     1      -8.609   8.793  64.982  1.00  0.00    -0.196 A  
HETATM   36  C   UNL     1      -8.739   7.795  65.948  1.00  0.00    -0.175 A  
HETATM   37  C   UNL     1      -6.133   4.755  68.537  1.00  0.00    -0.030 A  
ENDBRANCH  21  22
ENDBRANCH  20  21
ENDBRANCH  17  20
ENDBRANCH  13  14
ENDBRANCH  10  13
ENDBRANCH   8   9
TORSDOF 6
ENDMDL
MODEL      214
REMARK 921   NORMALIZED FREE ENERGY PREDICTED BY IDOCK:   -2.68 KCAL/MOL
REMARK 922        TOTAL FREE ENERGY PREDICTED BY IDOCK:   -4.89 KCAL/MOL
REMARK 923 INTER-LIGAND FREE ENERGY PREDICTED BY IDOCK:   -7.82 KCAL/MOL
REMARK 924 INTRA-LIGAND FREE ENERGY PREDICTED BY IDOCK:    2.92 KCAL/MOL
REMARK 927      BINDING AFFINITY PREDICTED BY RF-SCORE:    0.00 PKD
ROOT
HETATM    1  C   UNL     1     -10.517  11.152  69.253  1.00  0.00    -0.183 C  
HETATM    2  C   UNL     1     -10.775  12.457  68.546  1.00  0.00    -0.262 A  
HETATM    3  C   UNL     1     -11.640  13.365  69.190  1.00  0.00    -0.365 A  
HETATM    4  C   UNL     1     -12.025  14.549  68.575  1.00  0.00    -0.321 A  
HETATM    5  C   UNL     1     -11.575  14.832  67.291  1.00  0.00    -0.385 A  
HETATM    6  C   UNL     1     -10.712  13.948  66.617  1.00  0.00    -0.281 A  
HETATM    7  C   UNL     1     -10.257  14.331  65.233  1.00  0.00    -0.408 C  
HETATM    8  C   UNL     1     -10.259  12.776  67.268  1.00  0.00    -0.232 A  
ENDROOT
BRANCH   8   9
HETATM    9  N   UNL     1      -9.322  11.946  66.590  1.00  0.00    -0.200 N  
HETATM   10  C   UNL     1      -8.040  11.702  67.058  1.00  0.00    -0.164 C  
HETATM   11  H   UNL     1      -9.608  11.508  65.715  1.00  0.00     0.000 HD 
HETATM   12  O   UNL     1      -7.568  12.168  68.093  1.00  0.00    -0.107 OA 
BRANCH  10  13
HETATM   13  C   UNL     1      -7.123  10.910  66.115  1.00  0.00    -0.097 C  
BRANCH  13  14
HETATM   14  N   UNL     1      -6.888   9.494  66.495  1.00  0.00    -0.082 NA 
HETATM   15  C   UNL     1      -7.825   9.122  67.592  1.00  0.00    -0.096 C  
HETATM   16  C   UNL     1      -9.309   8.916  67.176  1.00  0.00    -0.145 C  
HETATM   17  N   UNL     1      -9.520   8.033  66.012  1.00  0.00    -0.112 NA 
HETATM   18  C   UNL     1      -8.596   8.413  64.929  1.00  0.00    -0.080 C  
HETATM   19  C   UNL     1      -7.123   8.560  65.369  1.00  0.00    -0.082 C  
BRANCH  17  20
HETATM   20  C   UNL     1      -9.418   6.606  66.348  1.00  0.00    -0.123 C  
BRANCH  20  21
HETATM   21  C   UNL     1      -9.066   6.386  67.827  1.00  0.00    -0.111 C  
BRANCH  21  22
HETATM   22  C   UNL     1      -9.875   7.256  68.803  1.00  0.00    -0.161 C  
HETATM   23  C   UNL     1     -10.731   6.462  69.825  1.00  0.00    -0.341 C  
HETATM   24  C   UNL     1     -11.683   7.348  70.631  1.00  0.00    -0.270 A  
HETATM   25  C   UNL     1      -9.838   5.589  70.703  1.00  0.00    -0.252 A  
HETATM   26  C   UNL     1      -8.892   6.165  71.569  1.00  0.00    -0.135 A  
HETATM   27  C   UNL     1     -12.900   6.809  71.089  1.00  0.00    -0.208 A  
HETATM   28  C   UNL     1     -13.816   7.604  71.782  1.00  0.00    -0.432 A  
HETATM   29  C   UNL     1      -7.990   5.365  72.269  1.00  0.00    -0.107 A  
HETATM   30  C   UNL     1     -13.517   8.937  72.030  1.00  0.00    -0.433 A  
HETATM   31  C   UNL     1      -8.035   3.986  72.115  1.00  0.00    -0.084 A  
HETATM   32  F   UNL     1      -7.149   3.222  72.766  1.00  0.00    -0.037 F  
HETATM   33  C   UNL     1      -8.976   3.390  71.285  1.00  0.00    -0.157 A  
HETATM   34  F   UNL     1     -14.402   9.704  72.680  1.00  0.00    -0.315 F  
HETATM   35  C   UNL     1     -12.316   9.488  71.609  1.00  0.00    -0.480 A  
HETATM   36  C   UNL     1     -11.400   8.695  70.918  1.00  0.00    -0.314 A  
HETATM   37  C   UNL     1      -9.881   4.188  70.583  1.00  0.00    -0.249 A  
ENDBRANCH  21  22
ENDBRANCH  20  21
ENDBRANCH  17  20
ENDBRANCH  13  14
ENDBRANCH  10  13
ENDBRANCH   8   9
TORSDOF 6
ENDMDL
MODEL      215
REMARK 921   NORMALIZED FREE ENERGY PREDICTED BY IDOCK:   -2.64 KCAL/MOL
REMARK 922        TOTAL FREE ENERGY PREDICTED BY IDOCK:   -4.83 KCAL/MOL
REMARK 923 INTER-LIGAND FREE ENERGY PREDICTED BY IDOCK:   -4.45 KCAL/MOL
REMARK 924 INTRA-LIGAND FREE ENERGY PREDICTED BY IDOCK:   -0.38 KCAL/MOL
REMARK 927      BINDING AFFINITY PREDICTED BY RF-SCORE:    0.00 PKD
ROOT
HETATM    1  C   UNL     1      -8.468   6.932  66.609  1.00  0.00    -0.121 C  
HETATM    2  C   UNL     1      -8.639   5.438  66.690  1.00  0.00    -0.115 A  
HETATM    3  C   UNL     1      -9.534   4.853  65.772  1.00  0.00    -0.172 A  
HETATM    4  C   UNL     1      -9.841   3.499  65.833  1.00  0.00     0.032 A  
HETATM    5  C   UNL     1      -9.281   2.713  66.833  1.00  0.00    -0.123 A  
HETATM    6  C   UNL     1      -8.384   3.264  67.767  1.00  0.00    -0.095 A  
HETATM    7  C   UNL     1      -7.808   2.345  68.812  1.00  0.00    -0.058 C  
HETATM    8  C   UNL     1      -8.013   4.626  67.665  1.00  0.00    -0.093 A  
ENDROOT
BRANCH   8   9
HETATM    9  N   UNL     1      -7.040   5.131  68.575  1.00  0.00    -0.060 N  
HETATM   10  C   UNL     1      -7.331   5.490  69.882  1.00  0.00    -0.069 C  
HETATM   11  H   UNL     1      -6.080   5.233  68.248  1.00  0.00     0.000 HD 
HETATM   12  O   UNL     1      -8.443   5.420  70.400  1.00  0.00    -0.112 OA 
BRANCH  10  13
HETATM   13  C   UNL     1      -6.189   6.158  70.661  1.00  0.00    -0.038 C  
BRANCH  13  14
HETATM   14  N   UNL     1      -5.599   7.361  70.021  1.00  0.00    -0.023 NA 
HETATM   15  C   UNL     1      -6.633   8.019  69.173  1.00  0.00    -0.040 C  
HETATM   16  C   UNL     1      -7.745   8.792  69.937  1.00  0.00    -0.081 C  
HETATM   17  N   UNL     1      -7.264   9.734  70.967  1.00  0.00    -0.324 NA 
HETATM   18  C   UNL     1      -6.249   9.074  71.806  1.00  0.00    -0.065 C  
HETATM   19  C   UNL     1      -5.133   8.358  71.013  1.00  0.00    -0.025 C  
BRANCH  17  20
HETATM   20  C   UNL     1      -6.775  10.999  70.402  1.00  0.00     0.243 C  
BRANCH  20  21
HETATM   21  C   UNL     1      -7.016  11.087  68.888  1.00  0.00    -0.088 C  
BRANCH  21  22
HETATM   22  C   UNL     1      -7.738  12.369  68.439  1.00  0.00    -0.144 C  
HETATM   23  C   UNL     1      -8.944  12.136  67.491  1.00  0.00    -0.177 C  
HETATM   24  C   UNL     1      -9.500  13.431  66.896  1.00  0.00    -0.253 A  
HETATM   25  C   UNL     1     -10.010  11.291  68.184  1.00  0.00    -0.191 A  
HETATM   26  C   UNL     1     -10.680  11.766  69.324  1.00  0.00    -0.117 A  
HETATM   27  C   UNL     1     -10.100  13.399  65.623  1.00  0.00    -0.285 A  
HETATM   28  C   UNL     1     -10.570  14.570  65.025  1.00  0.00    -0.458 A  
HETATM   29  C   UNL     1     -11.556  10.940  70.029  1.00  0.00    -0.424 A  
HETATM   30  C   UNL     1     -10.453  15.779  65.700  1.00  0.00    -0.383 A  
HETATM   31  C   UNL     1     -11.772   9.640  69.594  1.00  0.00     0.173 A  
HETATM   32  F   UNL     1     -12.590   8.840  70.289  1.00  0.00     0.180 F  
HETATM   33  C   UNL     1     -11.141   9.154  68.455  1.00  0.00     0.117 A  
HETATM   34  F   UNL     1     -10.889  16.905  65.122  1.00  0.00    -0.387 F  
HETATM   35  C   UNL     1      -9.886  15.836  66.965  1.00  0.00    -0.238 A  
HETATM   36  C   UNL     1      -9.417  14.666  67.562  1.00  0.00    -0.198 A  
HETATM   37  C   UNL     1     -10.266   9.978  67.746  1.00  0.00    -0.235 A  
ENDBRANCH  21  22
ENDBRANCH  20  21
ENDBRANCH  17  20
ENDBRANCH  13  14
ENDBRANCH  10  13
ENDBRANCH   8   9
TORSDOF 6
ENDMDL
MODEL      216
REMARK 921   NORMALIZED FREE ENERGY PREDICTED BY IDOCK:   -2.59 KCAL/MOL
REMARK 922        TOTAL FREE ENERGY PREDICTED BY IDOCK:   -4.77 KCAL/MOL
REMARK 923 INTER-LIGAND FREE ENERGY PREDICTED BY IDOCK:   -4.91 KCAL/MOL
REMARK 924 INTRA-LIGAND FREE ENERGY PREDICTED BY IDOCK:    0.14 KCAL/MOL
REMARK 927      BINDING AFFINITY PREDICTED BY RF-SCORE:    0.00 PKD
ROOT
HETATM    1  C   UNL     1     -12.741  12.963  65.104  1.00  0.00    -0.443 C  
HETATM    2  C   UNL     1     -11.926  13.393  66.294  1.00  0.00    -0.460 A  
HETATM    3  C   UNL     1     -12.357  14.551  66.972  1.00  0.00    -0.049 A  
HETATM    4  C   UNL     1     -11.616  15.089  68.017  1.00  0.00    -0.356 A  
HETATM    5  C   UNL     1     -10.414  14.495  68.382  1.00  0.00    -0.246 A  
HETATM    6  C   UNL     1      -9.952  13.338  67.727  1.00  0.00    -0.223 A  
HETATM    7  C   UNL     1      -8.647  12.745  68.189  1.00  0.00    -0.185 C  
HETATM    8  C   UNL     1     -10.738  12.745  66.711  1.00  0.00    -0.260 A  
ENDROOT
BRANCH   8   9
HETATM    9  N   UNL     1     -10.282  11.530  66.126  1.00  0.00    -0.225 N  
HETATM   10  C   UNL     1      -9.674  11.462  64.882  1.00  0.00    -0.247 C  
HETATM   11  H   UNL     1     -10.409  10.664  66.650  1.00  0.00     0.000 HD 
HETATM   12  O   UNL     1      -9.464  12.425  64.148  1.00  0.00     0.080 OA 
BRANCH  10  13
HETATM   13  C   UNL     1      -9.392  10.049  64.352  1.00  0.00    -0.290 C  
BRANCH  13  14
HETATM   14  N   UNL     1      -9.221   9.000  65.391  1.00  0.00    -0.207 NA 
HETATM   15  C   UNL     1      -8.463   7.858  64.809  1.00  0.00     0.007 C  
HETATM   16  C   UNL     1      -6.942   8.094  64.591  1.00  0.00    -0.075 C  
HETATM   17  N   UNL     1      -6.216   8.641  65.754  1.00  0.00    -0.055 NA 
HETATM   18  C   UNL     1      -6.968   9.776  66.318  1.00  0.00    -0.094 C  
HETATM   19  C   UNL     1      -8.465   9.488  66.567  1.00  0.00    -0.126 C  
BRANCH  17  20
HETATM   20  C   UNL     1      -5.910   7.624  66.769  1.00  0.00    -0.039 C  
BRANCH  20  21
HETATM   21  C   UNL     1      -6.051   6.198  66.217  1.00  0.00    -0.029 C  
BRANCH  21  22
HETATM   22  C   UNL     1      -6.061   5.103  67.298  1.00  0.00    -0.030 C  
HETATM   23  C   UNL     1      -7.446   4.846  67.948  1.00  0.00    -0.078 C  
HETATM   24  C   UNL     1      -7.378   3.913  69.159  1.00  0.00    -0.054 A  
HETATM   25  C   UNL     1      -8.452   4.386  66.895  1.00  0.00    -0.104 A  
HETATM   26  C   UNL     1      -8.273   3.174  66.206  1.00  0.00    -0.090 A  
HETATM   27  C   UNL     1      -8.319   4.064  70.195  1.00  0.00    -0.081 A  
HETATM   28  C   UNL     1      -8.256   3.266  71.340  1.00  0.00    -0.074 A  
HETATM   29  C   UNL     1      -9.120   2.823  65.155  1.00  0.00    -0.144 A  
HETATM   30  C   UNL     1      -7.258   2.306  71.451  1.00  0.00    -0.032 A  
HETATM   31  C   UNL     1     -10.153   3.676  64.793  1.00  0.00    -0.133 A  
HETATM   32  F   UNL     1     -10.947   3.351  63.765  1.00  0.00    -0.249 F  
HETATM   33  C   UNL     1     -10.367   4.869  65.474  1.00  0.00    -0.089 A  
HETATM   34  F   UNL     1      -7.186   1.552  72.555  1.00  0.00    -0.021 F  
HETATM   35  C   UNL     1      -6.332   2.121  70.435  1.00  0.00    -0.024 A  
HETATM   36  C   UNL     1      -6.395   2.917  69.292  1.00  0.00    -0.029 A  
HETATM   37  C   UNL     1      -9.522   5.223  66.527  1.00  0.00    -0.155 A  
ENDBRANCH  21  22
ENDBRANCH  20  21
ENDBRANCH  17  20
ENDBRANCH  13  14
ENDBRANCH  10  13
ENDBRANCH   8   9
TORSDOF 6
ENDMDL
MODEL      217
REMARK 921   NORMALIZED FREE ENERGY PREDICTED BY IDOCK:   -2.59 KCAL/MOL
REMARK 922        TOTAL FREE ENERGY PREDICTED BY IDOCK:   -4.77 KCAL/MOL
REMARK 923 INTER-LIGAND FREE ENERGY PREDICTED BY IDOCK:   -5.94 KCAL/MOL
REMARK 924 INTRA-LIGAND FREE ENERGY PREDICTED BY IDOCK:    1.18 KCAL/MOL
REMARK 927      BINDING AFFINITY PREDICTED BY RF-SCORE:    0.00 PKD
ROOT
HETATM    1  C   UNL     1     -10.312  16.721  66.457  1.00  0.00    -0.301 C  
HETATM    2  C   UNL     1      -9.799  17.803  67.370  1.00  0.00    -0.311 A  
HETATM    3  C   UNL     1     -10.620  18.937  67.532  1.00  0.00    -0.524 A  
HETATM    4  C   UNL     1     -10.191  20.035  68.268  1.00  0.00    -0.527 A  
HETATM    5  C   UNL     1      -8.920  20.029  68.830  1.00  0.00     0.010 A  
HETATM    6  C   UNL     1      -8.072  18.914  68.687  1.00  0.00    -0.382 A  
HETATM    7  C   UNL     1      -6.715  18.978  69.337  1.00  0.00    -0.300 C  
HETATM    8  C   UNL     1      -8.532  17.766  68.000  1.00  0.00    -0.253 A  
ENDROOT
BRANCH   8   9
HETATM    9  N   UNL     1      -7.681  16.626  67.946  1.00  0.00    -0.159 N  
HETATM   10  C   UNL     1      -6.492  16.593  67.234  1.00  0.00    -0.180 C  
HETATM   11  H   UNL     1      -7.962  15.789  68.457  1.00  0.00     0.000 HD 
HETATM   12  O   UNL     1      -6.041  17.527  66.575  1.00  0.00    -0.174 OA 
BRANCH  10  13
HETATM   13  C   UNL     1      -5.791  15.229  67.166  1.00  0.00     0.532 C  
BRANCH  13  14
HETATM   14  N   UNL     1      -5.770  14.459  68.436  1.00  0.00    -0.098 NA 
HETATM   15  C   UNL     1      -7.140  14.445  69.020  1.00  0.00    -0.120 C  
HETATM   16  C   UNL     1      -8.172  13.524  68.309  1.00  0.00    -0.157 C  
HETATM   17  N   UNL     1      -7.715  12.142  68.061  1.00  0.00    -0.123 NA 
HETATM   18  C   UNL     1      -6.364  12.165  67.475  1.00  0.00    -0.129 C  
HETATM   19  C   UNL     1      -5.353  13.051  68.237  1.00  0.00    -0.082 C  
BRANCH  17  20
HETATM   20  C   UNL     1      -7.784  11.292  69.257  1.00  0.00     0.015 C  
BRANCH  20  21
HETATM   21  C   UNL     1      -8.596  10.013  69.010  1.00  0.00    -0.153 C  
BRANCH  21  22
HETATM   22  C   UNL     1      -7.982   8.747  69.631  1.00  0.00    -0.096 C  
HETATM   23  C   UNL     1      -8.439   8.449  71.084  1.00  0.00    -0.178 C  
HETATM   24  C   UNL     1      -7.650   7.316  71.743  1.00  0.00    -0.086 A  
HETATM   25  C   UNL     1      -9.950   8.233  71.133  1.00  0.00    -0.230 A  
HETATM   26  C   UNL     1     -10.547   7.154  70.460  1.00  0.00    -0.243 A  
HETATM   27  C   UNL     1      -7.465   7.330  73.138  1.00  0.00    -0.083 A  
HETATM   28  C   UNL     1      -6.705   6.341  73.767  1.00  0.00    -0.075 A  
HETATM   29  C   UNL     1     -11.935   7.036  70.398  1.00  0.00    -0.256 A  
HETATM   30  C   UNL     1      -6.135   5.328  73.007  1.00  0.00    -0.035 A  
HETATM   31  C   UNL     1     -12.732   7.990  71.015  1.00  0.00    -0.032 A  
HETATM   32  F   UNL     1     -14.064   7.891  70.929  1.00  0.00    -0.263 F  
HETATM   33  C   UNL     1     -12.167   9.054  71.708  1.00  0.00    -0.434 A  
HETATM   34  F   UNL     1      -5.393   4.388  73.608  1.00  0.00    -0.006 F  
HETATM   35  C   UNL     1      -6.320   5.277  71.634  1.00  0.00    -0.034 A  
HETATM   36  C   UNL     1      -7.079   6.264  71.005  1.00  0.00    -0.070 A  
HETATM   37  C   UNL     1     -10.778   9.174  71.773  1.00  0.00    -0.405 A  
ENDBRANCH  21  22
ENDBRANCH  20  21
ENDBRANCH  17  20
ENDBRANCH  13  14
ENDBRANCH  10  13
ENDBRANCH   8   9
TORSDOF 6
ENDMDL
MODEL      218
REMARK 921   NORMALIZED FREE ENERGY PREDICTED BY IDOCK:   -2.56 KCAL/MOL
REMARK 922        TOTAL FREE ENERGY PREDICTED BY IDOCK:   -4.72 KCAL/MOL
REMARK 923 INTER-LIGAND FREE ENERGY PREDICTED BY IDOCK:   -5.95 KCAL/MOL
REMARK 924 INTRA-LIGAND FREE ENERGY PREDICTED BY IDOCK:    1.23 KCAL/MOL
REMARK 927      BINDING AFFINITY PREDICTED BY RF-SCORE:    0.00 PKD
ROOT
HETATM    1  C   UNL     1      -9.964  13.356  66.996  1.00  0.00    -0.246 C  
HETATM    2  C   UNL     1      -8.642  13.757  67.597  1.00  0.00    -0.187 A  
HETATM    3  C   UNL     1      -7.484  13.390  66.882  1.00  0.00     0.457 A  
HETATM    4  C   UNL     1      -6.216  13.620  67.402  1.00  0.00     0.104 A  
HETATM    5  C   UNL     1      -6.086  14.193  68.661  1.00  0.00    -0.088 A  
HETATM    6  C   UNL     1      -7.220  14.571  69.405  1.00  0.00    -0.120 A  
HETATM    7  C   UNL     1      -6.996  15.199  70.755  1.00  0.00     0.699 C  
HETATM    8  C   UNL     1      -8.511  14.405  68.848  1.00  0.00    -0.069 A  
ENDROOT
BRANCH   8   9
HETATM    9  N   UNL     1      -9.631  14.873  69.591  1.00  0.00    -0.442 N  
HETATM   10  C   UNL     1     -10.401  15.961  69.207  1.00  0.00    -0.249 C  
HETATM   11  H   UNL     1      -9.881  14.384  70.450  1.00  0.00     0.000 HD 
HETATM   12  O   UNL     1     -10.209  16.639  68.200  1.00  0.00    -0.257 OA 
BRANCH  10  13
HETATM   13  C   UNL     1     -11.470  16.412  70.213  1.00  0.00    -0.114 C  
BRANCH  13  14
HETATM   14  N   UNL     1     -11.513  15.644  71.484  1.00  0.00    -0.400 NA 
HETATM   15  C   UNL     1     -12.917  15.608  71.983  1.00  0.00    -0.452 C  
HETATM   16  C   UNL     1     -13.887  14.668  71.214  1.00  0.00    -0.354 C  
HETATM   17  N   UNL     1     -13.393  13.294  70.997  1.00  0.00     0.007 NA 
HETATM   18  C   UNL     1     -12.008  13.338  70.495  1.00  0.00    -0.240 C  
HETATM   19  C   UNL     1     -11.062  14.244  71.314  1.00  0.00     1.037 C  
BRANCH  17  20
HETATM   20  C   UNL     1     -13.520  12.445  72.190  1.00  0.00    -0.378 C  
BRANCH  20  21
HETATM   21  C   UNL     1     -13.248  10.966  71.877  1.00  0.00    -0.508 C  
BRANCH  21  22
HETATM   22  C   UNL     1     -12.554  10.726  70.526  1.00  0.00    -0.421 C  
HETATM   23  C   UNL     1     -11.148  10.078  70.624  1.00  0.00    -0.408 C  
HETATM   24  C   UNL     1     -10.403  10.052  69.288  1.00  0.00    -0.237 A  
HETATM   25  C   UNL     1     -11.239   8.704  71.283  1.00  0.00    -0.338 A  
HETATM   26  C   UNL     1     -11.952   7.656  70.675  1.00  0.00    -0.122 A  
HETATM   27  C   UNL     1      -8.996  10.114  69.285  1.00  0.00    -0.193 A  
HETATM   28  C   UNL     1      -8.285  10.147  68.084  1.00  0.00    -0.113 A  
HETATM   29  C   UNL     1     -12.143   6.446  71.341  1.00  0.00    -0.257 A  
HETATM   30  C   UNL     1      -8.974  10.108  66.878  1.00  0.00    -0.132 A  
HETATM   31  C   UNL     1     -11.617   6.275  72.614  1.00  0.00    -0.175 A  
HETATM   32  F   UNL     1     -11.827   5.123  73.263  1.00  0.00    -0.360 F  
HETATM   33  C   UNL     1     -10.888   7.285  73.228  1.00  0.00    -0.404 A  
HETATM   34  F   UNL     1      -8.294  10.156  65.725  1.00  0.00    -0.127 F  
HETATM   35  C   UNL     1     -10.358  10.025  66.852  1.00  0.00    -0.297 A  
HETATM   36  C   UNL     1     -11.069   9.992  68.051  1.00  0.00    -0.263 A  
HETATM   37  C   UNL     1     -10.693   8.497  72.564  1.00  0.00    -0.303 A  
ENDBRANCH  21  22
ENDBRANCH  20  21
ENDBRANCH  17  20
ENDBRANCH  13  14
ENDBRANCH  10  13
ENDBRANCH   8   9
TORSDOF 6
ENDMDL
MODEL      219
REMARK 921   NORMALIZED FREE ENERGY PREDICTED BY IDOCK:   -2.53 KCAL/MOL
REMARK 922        TOTAL FREE ENERGY PREDICTED BY IDOCK:   -4.68 KCAL/MOL
REMARK 923 INTER-LIGAND FREE ENERGY PREDICTED BY IDOCK:   -5.37 KCAL/MOL
REMARK 924 INTRA-LIGAND FREE ENERGY PREDICTED BY IDOCK:    0.69 KCAL/MOL
REMARK 927      BINDING AFFINITY PREDICTED BY RF-SCORE:    0.00 PKD
ROOT
HETATM    1  C   UNL     1     -10.370  17.137  69.169  1.00  0.00    -0.297 C  
HETATM    2  C   UNL     1     -10.366  16.920  67.679  1.00  0.00    -0.317 A  
HETATM    3  C   UNL     1     -10.511  18.067  66.872  1.00  0.00    -0.350 A  
HETATM    4  C   UNL     1     -10.625  17.963  65.491  1.00  0.00    -0.016 A  
HETATM    5  C   UNL     1     -10.626  16.708  64.896  1.00  0.00     0.008 A  
HETATM    6  C   UNL     1     -10.484  15.540  65.670  1.00  0.00    -0.393 A  
HETATM    7  C   UNL     1     -10.481  14.218  64.951  1.00  0.00    -0.454 C  
HETATM    8  C   UNL     1     -10.295  15.645  67.069  1.00  0.00    -0.289 A  
ENDROOT
BRANCH   8   9
HETATM    9  N   UNL     1     -10.072  14.451  67.811  1.00  0.00    -0.225 N  
HETATM   10  C   UNL     1     -11.088  13.591  68.199  1.00  0.00    -0.257 C  
HETATM   11  H   UNL     1      -9.114  14.216  68.072  1.00  0.00     0.000 HD 
HETATM   12  O   UNL     1     -12.281  13.756  67.954  1.00  0.00    -0.327 OA 
BRANCH  10  13
HETATM   13  C   UNL     1     -10.672  12.439  69.125  1.00  0.00    -0.034 C  
BRANCH  13  14
HETATM   14  N   UNL     1      -9.612  11.545  68.594  1.00  0.00    -0.182 NA 
HETATM   15  C   UNL     1      -9.575  10.297  69.406  1.00  0.00    -0.218 C  
HETATM   16  C   UNL     1     -10.741   9.296  69.166  1.00  0.00    -0.183 C  
HETATM   17  N   UNL     1     -11.009   8.970  67.751  1.00  0.00    -0.055 NA 
HETATM   18  C   UNL     1     -11.053  10.210  66.957  1.00  0.00     0.009 C  
HETATM   19  C   UNL     1      -9.854  11.156  67.185  1.00  0.00    -0.187 C  
BRANCH  17  20
HETATM   20  C   UNL     1     -10.061   7.994  67.199  1.00  0.00    -0.263 C  
BRANCH  20  21
HETATM   21  C   UNL     1      -8.621   8.264  67.658  1.00  0.00    -0.130 C  
BRANCH  21  22
HETATM   22  C   UNL     1      -8.056   7.203  68.617  1.00  0.00    -0.124 C  
HETATM   23  C   UNL     1      -8.443   5.741  68.268  1.00  0.00    -0.113 C  
HETATM   24  C   UNL     1      -8.050   4.738  69.355  1.00  0.00    -0.070 A  
HETATM   25  C   UNL     1      -7.911   5.365  66.887  1.00  0.00    -0.101 A  
HETATM   26  C   UNL     1      -6.530   5.322  66.632  1.00  0.00    -0.041 A  
HETATM   27  C   UNL     1      -8.825   3.576  69.528  1.00  0.00    -0.148 A  
HETATM   28  C   UNL     1      -8.527   2.665  70.544  1.00  0.00    -0.090 A  
HETATM   29  C   UNL     1      -6.053   5.108  65.339  1.00  0.00    -0.033 A  
HETATM   30  C   UNL     1      -7.448   2.906  71.386  1.00  0.00    -0.040 A  
HETATM   31  C   UNL     1      -6.952   4.927  64.298  1.00  0.00    -0.049 A  
HETATM   32  F   UNL     1      -6.492   4.751  63.053  1.00  0.00    -0.024 F  
HETATM   33  C   UNL     1      -8.323   4.940  64.527  1.00  0.00    -0.132 A  
HETATM   34  F   UNL     1      -7.172   2.041  72.371  1.00  0.00    -0.027 F  
HETATM   35  C   UNL     1      -6.655   4.031  71.223  1.00  0.00    -0.026 A  
HETATM   36  C   UNL     1      -6.951   4.941  70.208  1.00  0.00    -0.048 A  
HETATM   37  C   UNL     1      -8.804   5.153  65.820  1.00  0.00    -0.143 A  
ENDBRANCH  21  22
ENDBRANCH  20  21
ENDBRANCH  17  20
ENDBRANCH  13  14
ENDBRANCH  10  13
ENDBRANCH   8   9
TORSDOF 6
ENDMDL
MODEL      220
REMARK 921   NORMALIZED FREE ENERGY PREDICTED BY IDOCK:   -2.45 KCAL/MOL
REMARK 922        TOTAL FREE ENERGY PREDICTED BY IDOCK:   -4.58 KCAL/MOL
REMARK 923 INTER-LIGAND FREE ENERGY PREDICTED BY IDOCK:   -5.06 KCAL/MOL
REMARK 924 INTRA-LIGAND FREE ENERGY PREDICTED BY IDOCK:    0.49 KCAL/MOL
REMARK 927      BINDING AFFINITY PREDICTED BY RF-SCORE:    0.00 PKD
ROOT
HETATM    1  C   UNL     1      -7.046  15.955  66.919  1.00  0.00    -0.131 C  
HETATM    2  C   UNL     1      -8.315  15.152  66.808  1.00  0.00    -0.225 A  
HETATM    3  C   UNL     1      -9.403  15.775  66.163  1.00  0.00    -0.381 A  
HETATM    4  C   UNL     1     -10.648  15.161  66.102  1.00  0.00    -0.318 A  
HETATM    5  C   UNL     1     -10.835  13.927  66.712  1.00  0.00    -0.286 A  
HETATM    6  C   UNL     1      -9.771  13.276  67.366  1.00  0.00    -0.221 A  
HETATM    7  C   UNL     1     -10.049  11.934  67.990  1.00  0.00    -0.199 C  
HETATM    8  C   UNL     1      -8.484  13.863  67.368  1.00  0.00    -0.199 A  
ENDROOT
BRANCH   8   9
HETATM    9  N   UNL     1      -7.413  13.141  67.966  1.00  0.00    -0.117 N  
HETATM   10  C   UNL     1      -6.781  12.068  67.355  1.00  0.00    -0.131 C  
HETATM   11  H   UNL     1      -7.093  13.427  68.891  1.00  0.00     0.000 HD 
HETATM   12  O   UNL     1      -7.068  11.620  66.247  1.00  0.00     0.048 OA 
BRANCH  10  13
HETATM   13  C   UNL     1      -5.755  11.318  68.216  1.00  0.00    -0.045 C  
BRANCH  13  14
HETATM   14  N   UNL     1      -6.082  11.225  69.662  1.00  0.00    -0.087 NA 
HETATM   15  C   UNL     1      -7.471  10.708  69.815  1.00  0.00    -0.079 C  
HETATM   16  C   UNL     1      -7.667   9.193  69.524  1.00  0.00    -0.080 C  
HETATM   17  N   UNL     1      -6.716   8.293  70.206  1.00  0.00    -0.036 NA 
HETATM   18  C   UNL     1      -5.345   8.806  70.043  1.00  0.00    -0.028 C  
HETATM   19  C   UNL     1      -5.178  10.303  70.388  1.00  0.00    -0.049 C  
BRANCH  17  20
HETATM   20  C   UNL     1      -7.055   8.064  71.617  1.00  0.00    -0.072 C  
BRANCH  20  21
HETATM   21  C   UNL     1      -8.533   7.692  71.803  1.00  0.00    -0.124 C  
BRANCH  21  22
HETATM   22  C   UNL     1      -9.223   7.195  70.521  1.00  0.00    -0.158 C  
HETATM   23  C   UNL     1      -8.862   5.743  70.111  1.00  0.00    -0.144 C  
HETATM   24  C   UNL     1      -9.391   5.359  68.727  1.00  0.00    -0.159 A  
HETATM   25  C   UNL     1      -9.281   4.761  71.203  1.00  0.00    -0.192 A  
HETATM   26  C   UNL     1     -10.634   4.593  71.543  1.00  0.00    -0.013 A  
HETATM   27  C   UNL     1      -8.680   4.419  67.957  1.00  0.00    -0.117 A  
HETATM   28  C   UNL     1      -9.103   4.085  66.669  1.00  0.00    -0.149 A  
HETATM   29  C   UNL     1     -11.000   3.797  72.628  1.00  0.00     0.057 A  
HETATM   30  C   UNL     1     -10.243   4.681  66.146  1.00  0.00    -0.277 A  
HETATM   31  C   UNL     1     -10.018   3.159  73.371  1.00  0.00    -0.112 A  
HETATM   32  F   UNL     1     -10.370   2.418  74.430  1.00  0.00    -0.142 F  
HETATM   33  C   UNL     1      -8.674   3.288  73.042  1.00  0.00    -0.085 A  
HETATM   34  F   UNL     1     -10.641   4.374  64.904  1.00  0.00    -0.236 F  
HETATM   35  C   UNL     1     -10.974   5.594  66.890  1.00  0.00    -0.162 A  
HETATM   36  C   UNL     1     -10.553   5.928  68.177  1.00  0.00    -0.312 A  
HETATM   37  C   UNL     1      -8.304   4.083  71.956  1.00  0.00    -0.101 A  
ENDBRANCH  21  22
ENDBRANCH  20  21
ENDBRANCH  17  20
ENDBRANCH  13  14
ENDBRANCH  10  13
ENDBRANCH   8   9
TORSDOF 6
ENDMDL
MODEL      221
REMARK 921   NORMALIZED FREE ENERGY PREDICTED BY IDOCK:   -2.44 KCAL/MOL
REMARK 922        TOTAL FREE ENERGY PREDICTED BY IDOCK:   -4.56 KCAL/MOL
REMARK 923 INTER-LIGAND FREE ENERGY PREDICTED BY IDOCK:   -6.62 KCAL/MOL
REMARK 924 INTRA-LIGAND FREE ENERGY PREDICTED BY IDOCK:    2.06 KCAL/MOL
REMARK 927      BINDING AFFINITY PREDICTED BY RF-SCORE:    0.00 PKD
ROOT
HETATM    1  C   UNL     1      -8.312   5.762  70.864  1.00  0.00    -0.125 C  
HETATM    2  C   UNL     1      -7.438   5.480  69.670  1.00  0.00    -0.070 A  
HETATM    3  C   UNL     1      -6.431   4.507  69.838  1.00  0.00    -0.032 A  
HETATM    4  C   UNL     1      -5.507   4.250  68.833  1.00  0.00    -0.012 A  
HETATM    5  C   UNL     1      -5.555   4.982  67.654  1.00  0.00    -0.013 A  
HETATM    6  C   UNL     1      -6.546   5.962  67.451  1.00  0.00    -0.056 A  
HETATM    7  C   UNL     1      -6.541   6.704  66.141  1.00  0.00    -0.044 C  
HETATM    8  C   UNL     1      -7.533   6.177  68.443  1.00  0.00    -0.087 A  
ENDROOT
BRANCH   8   9
HETATM    9  N   UNL     1      -8.569   7.116  68.172  1.00  0.00    -0.128 N  
HETATM   10  C   UNL     1      -9.399   7.038  67.064  1.00  0.00    -0.146 C  
HETATM   11  H   UNL     1      -8.707   7.885  68.827  1.00  0.00     0.000 HD 
HETATM   12  O   UNL     1      -9.338   6.168  66.198  1.00  0.00    -0.158 OA 
BRANCH  10  13
HETATM   13  C   UNL     1     -10.352   8.224  66.859  1.00  0.00    -0.320 C  
BRANCH  13  14
HETATM   14  N   UNL     1     -10.239   9.314  67.862  1.00  0.00    -0.201 NA 
HETATM   15  C   UNL     1      -8.807   9.485  68.236  1.00  0.00    -0.124 C  
HETATM   16  C   UNL     1      -7.904  10.172  67.174  1.00  0.00    -0.099 C  
HETATM   17  N   UNL     1      -8.434  11.433  66.618  1.00  0.00    -0.168 NA 
HETATM   18  C   UNL     1      -9.847  11.254  66.242  1.00  0.00    -0.214 C  
HETATM   19  C   UNL     1     -10.724  10.614  67.341  1.00  0.00    -0.276 C  
BRANCH  17  20
HETATM   20  C   UNL     1      -8.244  12.579  67.517  1.00  0.00    -0.175 C  
BRANCH  20  21
HETATM   21  C   UNL     1      -7.007  13.408  67.142  1.00  0.00     0.234 C  
BRANCH  21  22
HETATM   22  C   UNL     1      -7.049  14.863  67.640  1.00  0.00    -0.208 C  
HETATM   23  C   UNL     1      -7.705  15.867  66.656  1.00  0.00    -0.199 C  
HETATM   24  C   UNL     1      -7.537  17.327  67.085  1.00  0.00    -0.217 A  
HETATM   25  C   UNL     1      -9.160  15.485  66.396  1.00  0.00    -0.351 A  
HETATM   26  C   UNL     1     -10.108  15.501  67.433  1.00  0.00    -0.246 A  
HETATM   27  C   UNL     1      -7.476  18.329  66.098  1.00  0.00    -0.291 A  
HETATM   28  C   UNL     1      -7.270  19.665  66.449  1.00  0.00    -0.257 A  
HETATM   29  C   UNL     1     -11.402  15.026  67.221  1.00  0.00    -0.337 A  
HETATM   30  C   UNL     1      -7.133  20.008  67.788  1.00  0.00    -0.281 A  
HETATM   31  C   UNL     1     -11.757  14.541  65.970  1.00  0.00    -0.345 A  
HETATM   32  F   UNL     1     -12.990  14.058  65.776  1.00  0.00    -0.532 F  
HETATM   33  C   UNL     1     -10.846  14.536  64.920  1.00  0.00    -0.436 A  
HETATM   34  F   UNL     1      -6.919  21.286  68.125  1.00  0.00    -0.241 F  
HETATM   35  C   UNL     1      -7.211  19.044  68.782  1.00  0.00    -0.358 A  
HETATM   36  C   UNL     1      -7.417  17.710  68.433  1.00  0.00    -0.253 A  
HETATM   37  C   UNL     1      -9.551  15.012  65.129  1.00  0.00     0.151 A  
ENDBRANCH  21  22
ENDBRANCH  20  21
ENDBRANCH  17  20
ENDBRANCH  13  14
ENDBRANCH  10  13
ENDBRANCH   8   9
TORSDOF 6
ENDMDL
MODEL      222
REMARK 921   NORMALIZED FREE ENERGY PREDICTED BY IDOCK:   -2.37 KCAL/MOL
REMARK 922        TOTAL FREE ENERGY PREDICTED BY IDOCK:   -4.48 KCAL/MOL
REMARK 923 INTER-LIGAND FREE ENERGY PREDICTED BY IDOCK:   -5.99 KCAL/MOL
REMARK 924 INTRA-LIGAND FREE ENERGY PREDICTED BY IDOCK:    1.51 KCAL/MOL
REMARK 927      BINDING AFFINITY PREDICTED BY RF-SCORE:    0.00 PKD
ROOT
HETATM    1  C   UNL     1      -6.389   5.337  72.756  1.00  0.00    -0.047 C  
HETATM    2  C   UNL     1      -6.480   5.151  71.264  1.00  0.00    -0.031 A  
HETATM    3  C   UNL     1      -5.426   4.447  70.648  1.00  0.00    -0.011 A  
HETATM    4  C   UNL     1      -5.362   4.313  69.267  1.00  0.00    -0.011 A  
HETATM    5  C   UNL     1      -6.337   4.907  68.475  1.00  0.00    -0.036 A  
HETATM    6  C   UNL     1      -7.404   5.619  69.055  1.00  0.00    -0.082 A  
HETATM    7  C   UNL     1      -8.429   6.223  68.131  1.00  0.00    -0.114 C  
HETATM    8  C   UNL     1      -7.512   5.697  70.464  1.00  0.00    -0.085 A  
ENDROOT
BRANCH   8   9
HETATM    9  N   UNL     1      -8.647   6.352  71.019  1.00  0.00    -0.131 N  
HETATM   10  C   UNL     1      -9.825   5.696  71.344  1.00  0.00    -0.173 C  
HETATM   11  H   UNL     1      -8.592   7.357  71.186  1.00  0.00     0.000 HD 
HETATM   12  O   UNL     1     -10.025   4.493  71.191  1.00  0.00    -0.190 OA 
BRANCH  10  13
HETATM   13  C   UNL     1     -10.990   6.593  71.785  1.00  0.00    -0.240 C  
BRANCH  13  14
HETATM   14  N   UNL     1     -11.768   7.215  70.684  1.00  0.00    -0.318 NA 
HETATM   15  C   UNL     1     -12.897   7.995  71.265  1.00  0.00    -0.199 C  
HETATM   16  C   UNL     1     -12.514   9.338  71.947  1.00  0.00    -0.382 C  
HETATM   17  N   UNL     1     -11.647  10.226  71.148  1.00  0.00    -0.343 NA 
HETATM   18  C   UNL     1     -10.529   9.450  70.584  1.00  0.00    -0.290 C  
HETATM   19  C   UNL     1     -10.952   8.147  69.871  1.00  0.00    -0.168 C  
BRANCH  17  20
HETATM   20  C   UNL     1     -12.383  10.964  70.112  1.00  0.00    -0.322 C  
BRANCH  20  21
HETATM   21  C   UNL     1     -11.447  11.542  69.041  1.00  0.00    -0.355 C  
BRANCH  21  22
HETATM   22  C   UNL     1     -10.730  10.479  68.191  1.00  0.00    -0.273 C  
HETATM   23  C   UNL     1      -9.769  11.049  67.114  1.00  0.00    -0.198 C  
HETATM   24  C   UNL     1      -9.244   9.981  66.152  1.00  0.00    -0.205 A  
HETATM   25  C   UNL     1      -8.656  11.862  67.770  1.00  0.00    -0.154 A  
HETATM   26  C   UNL     1      -7.728  11.253  68.631  1.00  0.00    -0.136 A  
HETATM   27  C   UNL     1      -8.925  10.346  64.830  1.00  0.00    -0.225 A  
HETATM   28  C   UNL     1      -8.493   9.389  63.909  1.00  0.00    -0.204 A  
HETATM   29  C   UNL     1      -6.796  12.022  69.330  1.00  0.00    -0.066 A  
HETATM   30  C   UNL     1      -8.369   8.064  64.307  1.00  0.00     0.003 A  
HETATM   31  C   UNL     1      -6.783  13.399  69.164  1.00  0.00    -0.099 A  
HETATM   32  F   UNL     1      -5.907  14.138  69.857  1.00  0.00    -0.098 F  
HETATM   33  C   UNL     1      -7.674  14.024  68.299  1.00  0.00    -0.141 A  
HETATM   34  F   UNL     1      -7.971   7.142  63.420  1.00  0.00    -0.118 F  
HETATM   35  C   UNL     1      -8.655   7.681  65.608  1.00  0.00    -0.142 A  
HETATM   36  C   UNL     1      -9.085   8.636  66.529  1.00  0.00    -0.206 A  
HETATM   37  C   UNL     1      -8.606  13.258  67.598  1.00  0.00    -0.196 A  
ENDBRANCH  21  22
ENDBRANCH  20  21
ENDBRANCH  17  20
ENDBRANCH  13  14
ENDBRANCH  10  13
ENDBRANCH   8   9
TORSDOF 6
ENDMDL
MODEL      223
REMARK 921   NORMALIZED FREE ENERGY PREDICTED BY IDOCK:   -2.33 KCAL/MOL
REMARK 922        TOTAL FREE ENERGY PREDICTED BY IDOCK:   -4.41 KCAL/MOL
REMARK 923 INTER-LIGAND FREE ENERGY PREDICTED BY IDOCK:   -7.08 KCAL/MOL
REMARK 924 INTRA-LIGAND FREE ENERGY PREDICTED BY IDOCK:    2.67 KCAL/MOL
REMARK 927      BINDING AFFINITY PREDICTED BY RF-SCORE:    0.00 PKD
ROOT
HETATM    1  C   UNL     1      -5.128  12.138  70.774  1.00  0.00    -0.131 C  
HETATM    2  C   UNL     1      -6.058  11.769  69.649  1.00  0.00    -0.119 A  
HETATM    3  C   UNL     1      -6.193  10.396  69.363  1.00  0.00    -0.049 A  
HETATM    4  C   UNL     1      -6.943   9.958  68.279  1.00  0.00    -0.072 A  
HETATM    5  C   UNL     1      -7.547  10.889  67.443  1.00  0.00    -0.100 A  
HETATM    6  C   UNL     1      -7.434  12.269  67.697  1.00  0.00    -0.134 A  
HETATM    7  C   UNL     1      -8.129  13.215  66.754  1.00  0.00     0.199 C  
HETATM    8  C   UNL     1      -6.731  12.717  68.841  1.00  0.00    -0.098 A  
ENDROOT
BRANCH   8   9
HETATM    9  N   UNL     1      -6.705  14.114  69.114  1.00  0.00    -0.113 N  
HETATM   10  C   UNL     1      -5.918  15.015  68.413  1.00  0.00    -0.107 C  
HETATM   11  H   UNL     1      -7.296  14.470  69.865  1.00  0.00     0.000 HD 
HETATM   12  O   UNL     1      -5.160  14.718  67.492  1.00  0.00    -0.327 OA 
BRANCH  10  13
HETATM   13  C   UNL     1      -5.906  16.452  68.952  1.00  0.00    -0.132 C  
BRANCH  13  14
HETATM   14  N   UNL     1      -7.210  16.955  69.455  1.00  0.00    -0.170 NA 
HETATM   15  C   UNL     1      -7.463  18.307  68.882  1.00  0.00    -0.239 C  
HETATM   16  C   UNL     1      -7.863  18.344  67.380  1.00  0.00    -0.234 C  
HETATM   17  N   UNL     1      -8.949  17.421  66.995  1.00  0.00    -0.235 NA 
HETATM   18  C   UNL     1      -8.687  16.085  67.557  1.00  0.00    -0.182 C  
HETATM   19  C   UNL     1      -8.342  16.083  69.063  1.00  0.00    -0.243 C  
BRANCH  17  20
HETATM   20  C   UNL     1     -10.282  17.920  67.359  1.00  0.00    -0.360 C  
BRANCH  20  21
HETATM   21  C   UNL     1     -10.893  17.134  68.529  1.00  0.00    -0.281 C  
BRANCH  21  22
HETATM   22  C   UNL     1     -11.222  15.669  68.198  1.00  0.00    -0.345 C  
HETATM   23  C   UNL     1     -11.017  14.677  69.374  1.00  0.00    -0.279 C  
HETATM   24  C   UNL     1     -11.144  13.211  68.953  1.00  0.00    -0.310 A  
HETATM   25  C   UNL     1     -11.926  15.043  70.544  1.00  0.00    -0.358 A  
HETATM   26  C   UNL     1     -13.325  14.990  70.417  1.00  0.00    -0.056 A  
HETATM   27  C   UNL     1     -10.408  12.232  69.647  1.00  0.00     0.811 A  
HETATM   28  C   UNL     1     -10.458  10.892  69.257  1.00  0.00    -0.230 A  
HETATM   29  C   UNL     1     -14.150  15.450  71.443  1.00  0.00    -0.539 A  
HETATM   30  C   UNL     1     -11.250  10.521  68.178  1.00  0.00    -0.293 A  
HETATM   31  C   UNL     1     -13.582  15.958  72.603  1.00  0.00    -0.461 A  
HETATM   32  F   UNL     1     -14.375  16.427  73.574  1.00  0.00    -0.339 F  
HETATM   33  C   UNL     1     -12.202  15.999  72.764  1.00  0.00    -0.617 A  
HETATM   34  F   UNL     1     -11.285   9.239  67.793  1.00  0.00    -0.235 F  
HETATM   35  C   UNL     1     -12.002  11.461  67.490  1.00  0.00     0.080 A  
HETATM   36  C   UNL     1     -11.954  12.800  67.879  1.00  0.00    -0.320 A  
HETATM   37  C   UNL     1     -11.374  15.538  71.740  1.00  0.00    -0.463 A  
ENDBRANCH  21  22
ENDBRANCH  20  21
ENDBRANCH  17  20
ENDBRANCH  13  14
ENDBRANCH  10  13
ENDBRANCH   8   9
TORSDOF 6
ENDMDL
MODEL      224
REMARK 921   NORMALIZED FREE ENERGY PREDICTED BY IDOCK:   -2.20 KCAL/MOL
REMARK 922        TOTAL FREE ENERGY PREDICTED BY IDOCK:   -4.25 KCAL/MOL
REMARK 923 INTER-LIGAND FREE ENERGY PREDICTED BY IDOCK:   -3.57 KCAL/MOL
REMARK 924 INTRA-LIGAND FREE ENERGY PREDICTED BY IDOCK:   -0.68 KCAL/MOL
REMARK 927      BINDING AFFINITY PREDICTED BY RF-SCORE:    0.00 PKD
ROOT
HETATM    1  C   UNL     1      -8.581  18.811  69.514  1.00  0.00     0.481 C  
HETATM    2  C   UNL     1      -9.205  19.165  68.190  1.00  0.00    -0.377 A  
HETATM    3  C   UNL     1      -9.330  20.538  67.895  1.00  0.00    -0.251 A  
HETATM    4  C   UNL     1      -9.985  20.970  66.749  1.00  0.00     0.377 A  
HETATM    5  C   UNL     1     -10.554  20.036  65.892  1.00  0.00    -0.459 A  
HETATM    6  C   UNL     1     -10.450  18.657  66.154  1.00  0.00    -0.473 A  
HETATM    7  C   UNL     1     -11.080  17.707  65.170  1.00  0.00     0.580 C  
HETATM    8  C   UNL     1      -9.721  18.210  67.282  1.00  0.00    -0.297 A  
ENDROOT
BRANCH   8   9
HETATM    9  N   UNL     1      -9.564  16.808  67.472  1.00  0.00    -0.238 N  
HETATM   10  C   UNL     1     -10.421  16.042  68.248  1.00  0.00    -0.269 C  
HETATM   11  H   UNL     1      -8.780  16.343  67.015  1.00  0.00     0.000 HD 
HETATM   12  O   UNL     1     -11.399  16.476  68.854  1.00  0.00    -0.300 OA 
BRANCH  10  13
HETATM   13  C   UNL     1     -10.003  14.580  68.461  1.00  0.00    -0.238 C  
BRANCH  13  14
HETATM   14  N   UNL     1      -9.835  13.778  67.223  1.00  0.00    -0.236 NA 
HETATM   15  C   UNL     1      -9.035  12.561  67.537  1.00  0.00    -0.185 C  
HETATM   16  C   UNL     1      -9.775  11.448  68.331  1.00  0.00    -0.203 C  
HETATM   17  N   UNL     1     -11.094  11.060  67.791  1.00  0.00    -0.273 NA 
HETATM   18  C   UNL     1     -11.882  12.268  67.492  1.00  0.00    -0.261 C  
HETATM   19  C   UNL     1     -11.129  13.330  66.659  1.00  0.00    -0.291 C  
BRANCH  17  20
HETATM   20  C   UNL     1     -10.996  10.164  66.631  1.00  0.00     0.077 C  
BRANCH  20  21
HETATM   21  C   UNL     1      -9.600   9.537  66.501  1.00  0.00    -0.259 C  
BRANCH  21  22
HETATM   22  C   UNL     1      -9.592   8.152  65.833  1.00  0.00    -0.011 C  
HETATM   23  C   UNL     1      -9.071   7.000  66.732  1.00  0.00    -0.162 C  
HETATM   24  C   UNL     1      -8.873   5.686  65.972  1.00  0.00    -0.147 A  
HETATM   25  C   UNL     1      -9.953   6.848  67.968  1.00  0.00    -0.175 A  
HETATM   26  C   UNL     1     -11.304   6.478  67.851  1.00  0.00    -0.096 A  
HETATM   27  C   UNL     1      -7.875   4.790  66.401  1.00  0.00    -0.099 A  
HETATM   28  C   UNL     1      -7.630   3.606  65.700  1.00  0.00    -0.078 A  
HETATM   29  C   UNL     1     -12.138   6.469  68.968  1.00  0.00     1.307 A  
HETATM   30  C   UNL     1      -8.387   3.308  64.575  1.00  0.00    -0.093 A  
HETATM   31  C   UNL     1     -11.625   6.822  70.209  1.00  0.00    -0.362 A  
HETATM   32  F   UNL     1     -12.435   6.841  71.275  1.00  0.00    -0.374 F  
HETATM   33  C   UNL     1     -10.288   7.169  70.357  1.00  0.00    -0.216 A  
HETATM   34  F   UNL     1      -8.143   2.181  63.893  1.00  0.00    -0.074 F  
HETATM   35  C   UNL     1      -9.391   4.162  64.144  1.00  0.00    -0.158 A  
HETATM   36  C   UNL     1      -9.636   5.344  64.843  1.00  0.00     0.420 A  
HETATM   37  C   UNL     1      -9.449   7.177  69.241  1.00  0.00    -0.152 A  
ENDBRANCH  21  22
ENDBRANCH  20  21
ENDBRANCH  17  20
ENDBRANCH  13  14
ENDBRANCH  10  13
ENDBRANCH   8   9
TORSDOF 6
ENDMDL
MODEL      225
REMARK 921   NORMALIZED FREE ENERGY PREDICTED BY IDOCK:   -2.17 KCAL/MOL
REMARK 922        TOTAL FREE ENERGY PREDICTED BY IDOCK:   -4.19 KCAL/MOL
REMARK 923 INTER-LIGAND FREE ENERGY PREDICTED BY IDOCK:   -5.80 KCAL/MOL
REMARK 924 INTRA-LIGAND FREE ENERGY PREDICTED BY IDOCK:    1.60 KCAL/MOL
REMARK 927      BINDING AFFINITY PREDICTED BY RF-SCORE:    0.00 PKD
ROOT
HETATM    1  C   UNL     1      -5.138  11.387  71.231  1.00  0.00    -0.092 C  
HETATM    2  C   UNL     1      -6.083  10.286  70.826  1.00  0.00    -0.071 A  
HETATM    3  C   UNL     1      -5.859   9.017  71.395  1.00  0.00    -0.059 A  
HETATM    4  C   UNL     1      -6.608   7.913  71.007  1.00  0.00    -0.037 A  
HETATM    5  C   UNL     1      -7.575   8.054  70.020  1.00  0.00    -0.082 A  
HETATM    6  C   UNL     1      -7.827   9.306  69.428  1.00  0.00    -0.083 A  
HETATM    7  C   UNL     1      -8.901   9.381  68.376  1.00  0.00    -0.128 C  
HETATM    8  C   UNL     1      -7.116  10.447  69.872  1.00  0.00    -0.159 A  
ENDROOT
BRANCH   8   9
HETATM    9  N   UNL     1      -7.453  11.712  69.312  1.00  0.00    -0.330 N  
HETATM   10  C   UNL     1      -6.872  12.215  68.157  1.00  0.00    -0.075 C  
HETATM   11  H   UNL     1      -8.158  12.278  69.784  1.00  0.00     0.000 HD 
HETATM   12  O   UNL     1      -6.011  11.641  67.495  1.00  0.00    -0.059 OA 
BRANCH  10  13
HETATM   13  C   UNL     1      -7.248  13.659  67.795  1.00  0.00    -0.164 C  
BRANCH  13  14
HETATM   14  N   UNL     1      -8.548  14.134  68.333  1.00  0.00    -0.173 NA 
HETATM   15  C   UNL     1      -9.090  15.191  67.435  1.00  0.00    -0.191 C  
HETATM   16  C   UNL     1      -9.667  14.699  66.078  1.00  0.00    -0.312 C  
HETATM   17  N   UNL     1     -10.623  13.577  66.170  1.00  0.00    -0.286 NA 
HETATM   18  C   UNL     1     -10.075  12.532  67.052  1.00  0.00    -0.216 C  
HETATM   19  C   UNL     1      -9.557  13.052  68.411  1.00  0.00    -0.178 C  
BRANCH  17  20
HETATM   20  C   UNL     1     -11.966  14.001  66.585  1.00  0.00    -0.445 C  
BRANCH  20  21
HETATM   21  C   UNL     1     -12.116  14.030  68.113  1.00  0.00    -0.307 C  
BRANCH  21  22
HETATM   22  C   UNL     1     -12.593  12.702  68.724  1.00  0.00     0.806 C  
HETATM   23  C   UNL     1     -12.021  12.393  70.133  1.00  0.00    -0.376 C  
HETATM   24  C   UNL     1     -12.341  10.976  70.614  1.00  0.00    -0.480 A  
HETATM   25  C   UNL     1     -12.442  13.472  71.127  1.00  0.00    -0.424 A  
HETATM   26  C   UNL     1     -13.796  13.669  71.449  1.00  0.00    -0.043 A  
HETATM   27  C   UNL     1     -11.443  10.327  71.483  1.00  0.00     0.045 A  
HETATM   28  C   UNL     1     -11.675   9.015  71.900  1.00  0.00    -0.445 A  
HETATM   29  C   UNL     1     -14.186  14.739  72.254  1.00  0.00    -0.562 A  
HETATM   30  C   UNL     1     -12.811   8.347  71.461  1.00  0.00    -0.303 A  
HETATM   31  C   UNL     1     -13.226  15.610  72.748  1.00  0.00    -0.516 A  
HETATM   32  F   UNL     1     -13.606  16.653  73.497  1.00  0.00    -0.427 F  
HETATM   33  C   UNL     1     -11.878  15.424  72.465  1.00  0.00    -0.564 A  
HETATM   34  F   UNL     1     -13.027   7.083  71.848  1.00  0.00    -0.356 F  
HETATM   35  C   UNL     1     -13.724   8.970  70.623  1.00  0.00     0.501 A  
HETATM   36  C   UNL     1     -13.493  10.281  70.206  1.00  0.00     0.423 A  
HETATM   37  C   UNL     1     -11.484  14.353  71.661  1.00  0.00     0.372 A  
ENDBRANCH  21  22
ENDBRANCH  20  21
ENDBRANCH  17  20
ENDBRANCH  13  14
ENDBRANCH  10  13
ENDBRANCH   8   9
TORSDOF 6
ENDMDL
MODEL      226
REMARK 921   NORMALIZED FREE ENERGY PREDICTED BY IDOCK:   -2.13 KCAL/MOL
REMARK 922        TOTAL FREE ENERGY PREDICTED BY IDOCK:   -4.15 KCAL/MOL
REMARK 923 INTER-LIGAND FREE ENERGY PREDICTED BY IDOCK:   -6.00 KCAL/MOL
REMARK 924 INTRA-LIGAND FREE ENERGY PREDICTED BY IDOCK:    1.85 KCAL/MOL
REMARK 927      BINDING AFFINITY PREDICTED BY RF-SCORE:    0.00 PKD
ROOT
HETATM    1  C   UNL     1      -7.749  15.571  68.625  1.00  0.00    -0.144 C  
HETATM    2  C   UNL     1      -8.089  17.010  68.344  1.00  0.00    -0.245 A  
HETATM    3  C   UNL     1      -7.585  17.968  69.246  1.00  0.00     0.064 A  
HETATM    4  C   UNL     1      -7.929  19.310  69.135  1.00  0.00    -0.222 A  
HETATM    5  C   UNL     1      -8.808  19.712  68.138  1.00  0.00    -0.370 A  
HETATM    6  C   UNL     1      -9.332  18.783  67.219  1.00  0.00    -0.310 A  
HETATM    7  C   UNL     1     -10.267  19.298  66.157  1.00  0.00    -0.549 C  
HETATM    8  C   UNL     1      -8.928  17.428  67.283  1.00  0.00    -0.236 A  
ENDROOT
BRANCH   8   9
HETATM    9  N   UNL     1      -9.412  16.531  66.289  1.00  0.00    -0.292 N  
HETATM   10  C   UNL     1     -10.673  15.956  66.328  1.00  0.00    -0.261 C  
HETATM   11  H   UNL     1      -8.799  16.299  65.508  1.00  0.00     0.000 HD 
HETATM   12  O   UNL     1     -11.506  16.146  67.211  1.00  0.00     0.012 OA 
BRANCH  10  13
HETATM   13  C   UNL     1     -10.958  14.896  65.254  1.00  0.00    -0.380 C  
BRANCH  13  14
HETATM   14  N   UNL     1     -10.326  13.572  65.482  1.00  0.00    -0.292 NA 
HETATM   15  C   UNL     1      -9.475  13.641  66.703  1.00  0.00    -0.277 C  
HETATM   16  C   UNL     1     -10.235  13.674  68.059  1.00  0.00    -0.248 C  
HETATM   17  N   UNL     1     -11.271  12.635  68.225  1.00  0.00    -0.252 NA 
HETATM   18  C   UNL     1     -12.114  12.579  67.017  1.00  0.00    -0.077 C  
HETATM   19  C   UNL     1     -11.324  12.498  65.692  1.00  0.00    -0.335 C  
BRANCH  17  20
HETATM   20  C   UNL     1     -10.715  11.321  68.570  1.00  0.00    -0.201 C  
BRANCH  20  21
HETATM   21  C   UNL     1      -9.228  11.208  68.202  1.00  0.00    -0.166 C  
BRANCH  21  22
HETATM   22  C   UNL     1      -8.876   9.955  67.383  1.00  0.00    -0.137 C  
HETATM   23  C   UNL     1      -7.476   9.357  67.681  1.00  0.00    -0.087 C  
HETATM   24  C   UNL     1      -7.073   8.250  66.704  1.00  0.00    -0.077 A  
HETATM   25  C   UNL     1      -7.381   8.927  69.143  1.00  0.00    -0.072 A  
HETATM   26  C   UNL     1      -8.199   7.903  69.650  1.00  0.00    -0.122 A  
HETATM   27  C   UNL     1      -5.710   8.056  66.411  1.00  0.00    -0.040 A  
HETATM   28  C   UNL     1      -5.310   7.091  65.484  1.00  0.00    -0.027 A  
HETATM   29  C   UNL     1      -8.203   7.604  71.012  1.00  0.00    -0.107 A  
HETATM   30  C   UNL     1      -6.268   6.309  64.852  1.00  0.00    -0.030 A  
HETATM   31  C   UNL     1      -7.383   8.321  71.872  1.00  0.00    -0.096 A  
HETATM   32  F   UNL     1      -7.410   8.053  73.184  1.00  0.00    -0.104 F  
HETATM   33  C   UNL     1      -6.546   9.322  71.394  1.00  0.00    -0.027 A  
HETATM   34  F   UNL     1      -5.886   5.394  63.951  1.00  0.00    -0.019 F  
HETATM   35  C   UNL     1      -7.616   6.464  65.138  1.00  0.00    -0.089 A  
HETATM   36  C   UNL     1      -8.017   7.427  66.064  1.00  0.00    -0.115 A  
HETATM   37  C   UNL     1      -6.539   9.622  70.031  1.00  0.00    -0.072 A  
ENDBRANCH  21  22
ENDBRANCH  20  21
ENDBRANCH  17  20
ENDBRANCH  13  14
ENDBRANCH  10  13
ENDBRANCH   8   9
TORSDOF 6
ENDMDL
MODEL      227
REMARK 921   NORMALIZED FREE ENERGY PREDICTED BY IDOCK:   -2.12 KCAL/MOL
REMARK 922        TOTAL FREE ENERGY PREDICTED BY IDOCK:   -4.14 KCAL/MOL
REMARK 923 INTER-LIGAND FREE ENERGY PREDICTED BY IDOCK:   -5.60 KCAL/MOL
REMARK 924 INTRA-LIGAND FREE ENERGY PREDICTED BY IDOCK:    1.46 KCAL/MOL
REMARK 927      BINDING AFFINITY PREDICTED BY RF-SCORE:    0.00 PKD
ROOT
HETATM    1  C   UNL     1      -6.557  14.973  68.906  1.00  0.00    -0.096 C  
HETATM    2  C   UNL     1      -7.002  16.355  68.507  1.00  0.00    -0.154 A  
HETATM    3  C   UNL     1      -6.524  17.425  69.290  1.00  0.00    -0.245 A  
HETATM    4  C   UNL     1      -6.959  18.726  69.070  1.00  0.00    -0.323 A  
HETATM    5  C   UNL     1      -7.903  18.976  68.081  1.00  0.00    -0.334 A  
HETATM    6  C   UNL     1      -8.403  17.932  67.280  1.00  0.00    -0.232 A  
HETATM    7  C   UNL     1      -9.413  18.284  66.220  1.00  0.00    -0.237 C  
HETATM    8  C   UNL     1      -7.910  16.617  67.452  1.00  0.00    -0.165 A  
ENDROOT
BRANCH   8   9
HETATM    9  N   UNL     1      -8.375  15.600  66.571  1.00  0.00    -0.307 N  
HETATM   10  C   UNL     1      -9.577  14.931  66.743  1.00  0.00    -0.251 C  
HETATM   11  H   UNL     1      -7.793  15.350  65.771  1.00  0.00     0.000 HD 
HETATM   12  O   UNL     1     -10.368  15.131  67.662  1.00  0.00    -0.243 OA 
BRANCH  10  13
HETATM   13  C   UNL     1      -9.835  13.762  65.782  1.00  0.00    -0.221 C  
BRANCH  13  14
HETATM   14  N   UNL     1      -9.152  12.489  66.129  1.00  0.00    -0.082 NA 
HETATM   15  C   UNL     1      -8.605  12.591  67.510  1.00  0.00    -0.183 C  
HETATM   16  C   UNL     1      -9.647  12.514  68.661  1.00  0.00    -0.021 C  
HETATM   17  N   UNL     1     -10.596  11.386  68.576  1.00  0.00    -0.189 NA 
HETATM   18  C   UNL     1     -11.140  11.298  67.210  1.00  0.00    -0.305 C  
HETATM   19  C   UNL     1     -10.071  11.328  66.095  1.00  0.00    -0.236 C  
BRANCH  17  20
HETATM   20  C   UNL     1     -10.014  10.113  69.021  1.00  0.00    -0.208 C  
BRANCH  20  21
HETATM   21  C   UNL     1      -8.583   9.918  68.499  1.00  0.00    -0.117 C  
BRANCH  21  22
HETATM   22  C   UNL     1      -8.039   8.490  68.669  1.00  0.00    -0.121 C  
HETATM   23  C   UNL     1      -8.359   7.529  67.493  1.00  0.00    -0.117 C  
HETATM   24  C   UNL     1      -7.995   6.073  67.791  1.00  0.00    -0.105 A  
HETATM   25  C   UNL     1      -7.738   8.047  66.198  1.00  0.00    -0.087 A  
HETATM   26  C   UNL     1      -6.344   8.155  66.058  1.00  0.00    -0.046 A  
HETATM   27  C   UNL     1      -8.741   5.042  67.187  1.00  0.00    -0.103 A  
HETATM   28  C   UNL     1      -8.472   3.703  67.476  1.00  0.00    -0.104 A  
HETATM   29  C   UNL     1      -5.788   8.751  64.926  1.00  0.00    -0.059 A  
HETATM   30  C   UNL     1      -7.450   3.385  68.362  1.00  0.00    -0.050 A  
HETATM   31  C   UNL     1      -6.621   9.235  63.927  1.00  0.00    -0.092 A  
HETATM   32  F   UNL     1      -6.086   9.833  62.856  1.00  0.00    -0.095 F  
HETATM   33  C   UNL     1      -8.002   9.119  64.030  1.00  0.00    -0.141 A  
HETATM   34  F   UNL     1      -7.202   2.101  68.653  1.00  0.00    -0.042 F  
HETATM   35  C   UNL     1      -6.686   4.379  68.954  1.00  0.00    -0.046 A  
HETATM   36  C   UNL     1      -6.954   5.717  68.666  1.00  0.00    -0.064 A  
HETATM   37  C   UNL     1      -8.562   8.521  65.160  1.00  0.00    -0.179 A  
ENDBRANCH  21  22
ENDBRANCH  20  21
ENDBRANCH  17  20
ENDBRANCH  13  14
ENDBRANCH  10  13
ENDBRANCH   8   9
TORSDOF 6
ENDMDL
MODEL      228
REMARK 921   NORMALIZED FREE ENERGY PREDICTED BY IDOCK:   -2.01 KCAL/MOL
REMARK 922        TOTAL FREE ENERGY PREDICTED BY IDOCK:   -3.99 KCAL/MOL
REMARK 923 INTER-LIGAND FREE ENERGY PREDICTED BY IDOCK:   -3.70 KCAL/MOL
REMARK 924 INTRA-LIGAND FREE ENERGY PREDICTED BY IDOCK:   -0.28 KCAL/MOL
REMARK 927      BINDING AFFINITY PREDICTED BY RF-SCORE:    0.00 PKD
ROOT
HETATM    1  C   UNL     1      -8.677  16.767  69.419  1.00  0.00     0.188 C  
HETATM    2  C   UNL     1      -7.500  15.836  69.300  1.00  0.00    -0.220 A  
HETATM    3  C   UNL     1      -6.327  16.207  69.989  1.00  0.00    -0.077 A  
HETATM    4  C   UNL     1      -5.155  15.472  69.859  1.00  0.00    -0.101 A  
HETATM    5  C   UNL     1      -5.127  14.370  69.013  1.00  0.00    -0.082 A  
HETATM    6  C   UNL     1      -6.279  13.972  68.307  1.00  0.00    -0.116 A  
HETATM    7  C   UNL     1      -6.173  12.759  67.421  1.00  0.00    -0.133 C  
HETATM    8  C   UNL     1      -7.493  14.674  68.493  1.00  0.00    -0.120 A  
ENDROOT
BRANCH   8   9
HETATM    9  N   UNL     1      -8.658  14.194  67.829  1.00  0.00    -0.172 N  
HETATM   10  C   UNL     1      -9.114  14.702  66.622  1.00  0.00    -0.258 C  
HETATM   11  H   UNL     1      -9.186  13.438  68.265  1.00  0.00     0.000 HD 
HETATM   12  O   UNL     1      -8.577  15.613  65.995  1.00  0.00    -0.242 OA 
BRANCH  10  13
HETATM   13  C   UNL     1     -10.469  14.167  66.141  1.00  0.00    -0.296 C  
BRANCH  13  14
HETATM   14  N   UNL     1     -10.423  12.871  65.417  1.00  0.00    -0.287 NA 
HETATM   15  C   UNL     1      -9.365  12.013  66.022  1.00  0.00    -0.190 C  
HETATM   16  C   UNL     1      -9.703  11.394  67.407  1.00  0.00    -0.181 C  
HETATM   17  N   UNL     1     -11.012  10.715  67.490  1.00  0.00    -0.300 NA 
HETATM   18  C   UNL     1     -12.053  11.572  66.899  1.00  0.00     0.797 C  
HETATM   19  C   UNL     1     -11.703  12.130  65.501  1.00  0.00    -0.324 C  
BRANCH  17  20
HETATM   20  C   UNL     1     -11.000   9.372  66.895  1.00  0.00     0.172 C  
BRANCH  20  21
HETATM   21  C   UNL     1     -10.910   8.269  67.960  1.00  0.00    -0.008 C  
BRANCH  21  22
HETATM   22  C   UNL     1     -10.494   6.895  67.410  1.00  0.00    -0.339 C  
HETATM   23  C   UNL     1      -9.026   6.812  66.912  1.00  0.00    -0.133 C  
HETATM   24  C   UNL     1      -8.712   5.507  66.178  1.00  0.00    -0.133 A  
HETATM   25  C   UNL     1      -8.059   7.101  68.057  1.00  0.00    -0.120 A  
HETATM   26  C   UNL     1      -7.988   6.252  69.175  1.00  0.00    -0.110 A  
HETATM   27  C   UNL     1      -7.735   5.509  65.164  1.00  0.00    -0.091 A  
HETATM   28  C   UNL     1      -7.460   4.349  64.436  1.00  0.00    -0.071 A  
HETATM   29  C   UNL     1      -7.201   6.591  70.276  1.00  0.00    -0.080 A  
HETATM   30  C   UNL     1      -8.153   3.179  64.724  1.00  0.00    -0.086 A  
HETATM   31  C   UNL     1      -6.474   7.773  70.261  1.00  0.00    -0.037 A  
HETATM   32  F   UNL     1      -5.742   8.110  71.330  1.00  0.00    -0.033 F  
HETATM   33  C   UNL     1      -6.507   8.618  69.158  1.00  0.00    -0.043 A  
HETATM   34  F   UNL     1      -7.902   2.071  64.015  1.00  0.00    -0.060 F  
HETATM   35  C   UNL     1      -9.104   3.145  65.731  1.00  0.00    -0.149 A  
HETATM   36  C   UNL     1      -9.379   4.302  66.459  1.00  0.00    -0.174 A  
HETATM   37  C   UNL     1      -7.292   8.282  68.054  1.00  0.00    -0.096 A  
ENDBRANCH  21  22
ENDBRANCH  20  21
ENDBRANCH  17  20
ENDBRANCH  13  14
ENDBRANCH  10  13
ENDBRANCH   8   9
TORSDOF 6
ENDMDL
MODEL      229
REMARK 921   NORMALIZED FREE ENERGY PREDICTED BY IDOCK:   -1.90 KCAL/MOL
REMARK 922        TOTAL FREE ENERGY PREDICTED BY IDOCK:   -3.84 KCAL/MOL
REMARK 923 INTER-LIGAND FREE ENERGY PREDICTED BY IDOCK:   -7.70 KCAL/MOL
REMARK 924 INTRA-LIGAND FREE ENERGY PREDICTED BY IDOCK:    3.87 KCAL/MOL
REMARK 927      BINDING AFFINITY PREDICTED BY RF-SCORE:    0.00 PKD
ROOT
HETATM    1  C   UNL     1     -11.901  13.455  68.556  1.00  0.00    -0.401 C  
HETATM    2  C   UNL     1     -12.269  12.553  69.704  1.00  0.00    -0.167 A  
HETATM    3  C   UNL     1     -12.662  13.182  70.903  1.00  0.00    -0.313 A  
HETATM    4  C   UNL     1     -12.919  12.443  72.051  1.00  0.00    -0.376 A  
HETATM    5  C   UNL     1     -12.759  11.063  72.027  1.00  0.00    -0.177 A  
HETATM    6  C   UNL     1     -12.368  10.401  70.848  1.00  0.00    -0.480 A  
HETATM    7  C   UNL     1     -12.229   8.902  70.899  1.00  0.00    -0.177 C  
HETATM    8  C   UNL     1     -12.174  11.142  69.658  1.00  0.00    -0.290 A  
ENDROOT
BRANCH   8   9
HETATM    9  N   UNL     1     -11.860  10.433  68.464  1.00  0.00    -0.467 N  
HETATM   10  C   UNL     1     -10.585  10.375  67.923  1.00  0.00    -0.232 C  
HETATM   11  H   UNL     1     -12.613   9.942  67.982  1.00  0.00     0.000 HD 
HETATM   12  O   UNL     1      -9.593  10.923  68.400  1.00  0.00    -0.163 OA 
BRANCH  10  13
HETATM   13  C   UNL     1     -10.471   9.695  66.552  1.00  0.00    -0.143 C  
BRANCH  13  14
HETATM   14  N   UNL     1      -9.791  10.492  65.499  1.00  0.00    -0.246 NA 
HETATM   15  C   UNL     1     -10.792  10.900  64.474  1.00  0.00    -0.075 C  
HETATM   16  C   UNL     1     -11.776  12.028  64.897  1.00  0.00    -0.258 C  
HETATM   17  N   UNL     1     -11.145  13.224  65.490  1.00  0.00    -0.281 NA 
HETATM   18  C   UNL     1     -10.163  12.812  66.508  1.00  0.00    -0.253 C  
HETATM   19  C   UNL     1      -9.172  11.726  66.036  1.00  0.00    -0.194 C  
BRANCH  17  20
HETATM   20  C   UNL     1     -10.555  14.118  64.485  1.00  0.00    -0.261 C  
BRANCH  20  21
HETATM   21  C   UNL     1      -9.718  15.235  65.126  1.00  0.00    -0.036 C  
BRANCH  21  22
HETATM   22  C   UNL     1      -9.098  14.857  66.482  1.00  0.00    -0.309 C  
HETATM   23  C   UNL     1      -8.058  15.872  67.026  1.00  0.00    -0.265 C  
HETATM   24  C   UNL     1      -7.308  15.364  68.258  1.00  0.00    -0.113 A  
HETATM   25  C   UNL     1      -8.709  17.236  67.243  1.00  0.00    -0.221 A  
HETATM   26  C   UNL     1      -9.735  17.405  68.187  1.00  0.00    -0.291 A  
HETATM   27  C   UNL     1      -5.989  15.799  68.487  1.00  0.00    -0.103 A  
HETATM   28  C   UNL     1      -5.255  15.315  69.572  1.00  0.00    -0.093 A  
HETATM   29  C   UNL     1     -10.415  18.619  68.289  1.00  0.00    -0.315 A  
HETATM   30  C   UNL     1      -5.838  14.400  70.440  1.00  0.00    -0.158 A  
HETATM   31  C   UNL     1     -10.067  19.670  67.454  1.00  0.00    -0.410 A  
HETATM   32  F   UNL     1     -10.741  20.825  67.532  1.00  0.00    -0.129 F  
HETATM   33  C   UNL     1      -9.039  19.538  66.528  1.00  0.00    -0.416 A  
HETATM   34  F   UNL     1      -5.130  13.923  71.472  1.00  0.00    -0.107 F  
HETATM   35  C   UNL     1      -7.143  13.972  70.251  1.00  0.00     0.509 A  
HETATM   36  C   UNL     1      -7.877  14.455  69.168  1.00  0.00    -0.026 A  
HETATM   37  C   UNL     1      -8.356  18.326  66.424  1.00  0.00    -0.267 A  
ENDBRANCH  21  22
ENDBRANCH  20  21
ENDBRANCH  17  20
ENDBRANCH  13  14
ENDBRANCH  10  13
ENDBRANCH   8   9
TORSDOF 6
ENDMDL
MODEL      230
REMARK 921   NORMALIZED FREE ENERGY PREDICTED BY IDOCK:   -1.89 KCAL/MOL
REMARK 922        TOTAL FREE ENERGY PREDICTED BY IDOCK:   -3.82 KCAL/MOL
REMARK 923 INTER-LIGAND FREE ENERGY PREDICTED BY IDOCK:   -6.38 KCAL/MOL
REMARK 924 INTRA-LIGAND FREE ENERGY PREDICTED BY IDOCK:    2.56 KCAL/MOL
REMARK 927      BINDING AFFINITY PREDICTED BY RF-SCORE:    0.00 PKD
ROOT
HETATM    1  C   UNL     1      -8.707   9.536  63.391  1.00  0.00    -0.235 C  
HETATM    2  C   UNL     1      -8.879   9.494  64.886  1.00  0.00    -0.240 A  
HETATM    3  C   UNL     1      -7.974   8.687  65.605  1.00  0.00    -0.105 A  
HETATM    4  C   UNL     1      -8.113   8.497  66.975  1.00  0.00    -0.103 A  
HETATM    5  C   UNL     1      -9.178   9.087  67.644  1.00  0.00    -0.150 A  
HETATM    6  C   UNL     1     -10.102   9.899  66.958  1.00  0.00    -0.275 A  
HETATM    7  C   UNL     1     -11.221  10.514  67.756  1.00  0.00    -0.344 C  
HETATM    8  C   UNL     1      -9.923  10.153  65.578  1.00  0.00    -0.293 A  
ENDROOT
BRANCH   8   9
HETATM    9  N   UNL     1     -10.827  11.044  64.933  1.00  0.00    -0.203 N  
HETATM   10  C   UNL     1     -10.418  12.115  64.152  1.00  0.00    -0.362 C  
HETATM   11  H   UNL     1     -11.828  10.887  65.052  1.00  0.00     0.000 HD 
HETATM   12  O   UNL     1      -9.247  12.417  63.931  1.00  0.00     0.286 OA 
BRANCH  10  13
HETATM   13  C   UNL     1     -11.532  13.053  63.668  1.00  0.00    -0.392 C  
BRANCH  13  14
HETATM   14  N   UNL     1     -12.174  13.878  64.723  1.00  0.00    -0.432 NA 
HETATM   15  C   UNL     1     -11.197  14.107  65.825  1.00  0.00    -0.312 C  
HETATM   16  C   UNL     1     -10.058  15.120  65.522  1.00  0.00    -0.370 C  
HETATM   17  N   UNL     1     -10.498  16.413  64.962  1.00  0.00    -0.649 NA 
HETATM   18  C   UNL     1     -11.456  16.179  63.868  1.00  0.00     0.593 C  
HETATM   19  C   UNL     1     -12.602  15.205  64.221  1.00  0.00     0.127 C  
BRANCH  17  20
HETATM   20  C   UNL     1     -11.035  17.325  65.980  1.00  0.00     0.193 C  
BRANCH  20  21
HETATM   21  C   UNL     1     -10.498  17.006  67.383  1.00  0.00    -0.322 C  
BRANCH  21  22
HETATM   22  C   UNL     1      -9.611  15.751  67.446  1.00  0.00    -0.217 C  
HETATM   23  C   UNL     1      -9.225  15.301  68.880  1.00  0.00    -0.211 C  
HETATM   24  C   UNL     1      -8.174  14.189  68.899  1.00  0.00    -0.014 A  
HETATM   25  C   UNL     1     -10.476  14.955  69.684  1.00  0.00    -0.182 A  
HETATM   26  C   UNL     1     -11.306  13.886  69.305  1.00  0.00    -0.321 A  
HETATM   27  C   UNL     1      -7.282  14.107  69.985  1.00  0.00     0.335 A  
HETATM   28  C   UNL     1      -6.275  13.139  70.011  1.00  0.00    -0.073 A  
HETATM   29  C   UNL     1     -12.514  13.657  69.963  1.00  0.00    -0.267 A  
HETATM   30  C   UNL     1      -6.162  12.241  68.957  1.00  0.00    -0.082 A  
HETATM   31  C   UNL     1     -12.894  14.489  71.007  1.00  0.00    -0.350 A  
HETATM   32  F   UNL     1     -14.068  14.285  71.618  1.00  0.00    -0.424 F  
HETATM   33  C   UNL     1     -12.080  15.537  71.418  1.00  0.00    -0.453 A  
HETATM   34  F   UNL     1      -5.187  11.322  68.973  1.00  0.00    -0.042 F  
HETATM   35  C   UNL     1      -7.041  12.285  67.886  1.00  0.00    -0.105 A  
HETATM   36  C   UNL     1      -8.047  13.251  67.859  1.00  0.00    -0.159 A  
HETATM   37  C   UNL     1     -10.870  15.769  70.763  1.00  0.00    -0.229 A  
ENDBRANCH  21  22
ENDBRANCH  20  21
ENDBRANCH  17  20
ENDBRANCH  13  14
ENDBRANCH  10  13
ENDBRANCH   8   9
TORSDOF 6
ENDMDL
MODEL      231
REMARK 921   NORMALIZED FREE ENERGY PREDICTED BY IDOCK:   -1.86 KCAL/MOL
REMARK 922        TOTAL FREE ENERGY PREDICTED BY IDOCK:   -3.78 KCAL/MOL
REMARK 923 INTER-LIGAND FREE ENERGY PREDICTED BY IDOCK:   -4.19 KCAL/MOL
REMARK 924 INTRA-LIGAND FREE ENERGY PREDICTED BY IDOCK:    0.41 KCAL/MOL
REMARK 927      BINDING AFFINITY PREDICTED BY RF-SCORE:    0.00 PKD
ROOT
HETATM    1  C   UNL     1     -10.114   9.458  71.282  1.00  0.00    -0.309 C  
HETATM    2  C   UNL     1      -9.117   8.397  71.666  1.00  0.00    -0.268 A  
HETATM    3  C   UNL     1      -9.152   7.950  73.003  1.00  0.00    -0.300 A  
HETATM    4  C   UNL     1      -8.208   7.052  73.485  1.00  0.00    -0.132 A  
HETATM    5  C   UNL     1      -7.193   6.608  72.645  1.00  0.00    -0.080 A  
HETATM    6  C   UNL     1      -7.127   7.033  71.305  1.00  0.00    -0.073 A  
HETATM    7  C   UNL     1      -6.006   6.496  70.454  1.00  0.00    -0.023 C  
HETATM    8  C   UNL     1      -8.127   7.891  70.790  1.00  0.00    -0.101 A  
ENDROOT
BRANCH   8   9
HETATM    9  N   UNL     1      -8.077   8.236  69.410  1.00  0.00    -0.113 N  
HETATM   10  C   UNL     1      -7.509   9.408  68.935  1.00  0.00    -0.074 C  
HETATM   11  H   UNL     1      -8.480   7.586  68.734  1.00  0.00     0.000 HD 
HETATM   12  O   UNL     1      -6.993  10.275  69.638  1.00  0.00    -0.082 OA 
BRANCH  10  13
HETATM   13  C   UNL     1      -7.687   9.678  67.435  1.00  0.00    -0.095 C  
BRANCH  13  14
HETATM   14  N   UNL     1      -8.466   8.655  66.691  1.00  0.00    -0.110 NA 
HETATM   15  C   UNL     1      -8.384   8.946  65.232  1.00  0.00    -0.160 C  
HETATM   16  C   UNL     1      -7.026   8.618  64.550  1.00  0.00    -0.081 C  
HETATM   17  N   UNL     1      -6.491   7.269  64.826  1.00  0.00    -0.037 NA 
HETATM   18  C   UNL     1      -6.568   6.993  66.271  1.00  0.00    -0.052 C  
HETATM   19  C   UNL     1      -7.946   7.284  66.904  1.00  0.00    -0.112 C  
BRANCH  17  20
HETATM   20  C   UNL     1      -7.142   6.221  64.029  1.00  0.00    -0.057 C  
BRANCH  20  21
HETATM   21  C   UNL     1      -6.434   4.866  64.169  1.00  0.00    -0.038 C  
BRANCH  21  22
HETATM   22  C   UNL     1      -6.585   4.216  65.555  1.00  0.00    -0.044 C  
HETATM   23  C   UNL     1      -8.022   4.264  66.140  1.00  0.00    -0.098 C  
HETATM   24  C   UNL     1      -8.092   3.807  67.599  1.00  0.00    -0.089 A  
HETATM   25  C   UNL     1      -8.992   3.513  65.232  1.00  0.00    -0.137 A  
HETATM   26  C   UNL     1      -8.858   2.130  65.017  1.00  0.00    -0.120 A  
HETATM   27  C   UNL     1      -9.080   4.351  68.441  1.00  0.00    -0.165 A  
HETATM   28  C   UNL     1      -9.141   3.999  69.791  1.00  0.00    -0.182 A  
HETATM   29  C   UNL     1      -9.663   1.474  64.086  1.00  0.00    -0.117 A  
HETATM   30  C   UNL     1      -8.222   3.093  70.305  1.00  0.00    -0.044 A  
HETATM   31  C   UNL     1     -10.610   2.194  63.372  1.00  0.00    -0.184 A  
HETATM   32  F   UNL     1     -11.361   1.568  62.457  1.00  0.00    -0.134 F  
HETATM   33  C   UNL     1     -10.780   3.557  63.582  1.00  0.00    -0.265 A  
HETATM   34  F   UNL     1      -8.269   2.767  71.603  1.00  0.00    -0.054 F  
HETATM   35  C   UNL     1      -7.252   2.525  69.493  1.00  0.00    -0.044 A  
HETATM   36  C   UNL     1      -7.190   2.876  68.144  1.00  0.00    -0.049 A  
HETATM   37  C   UNL     1      -9.977   4.217  64.514  1.00  0.00    -0.170 A  
ENDBRANCH  21  22
ENDBRANCH  20  21
ENDBRANCH  17  20
ENDBRANCH  13  14
ENDBRANCH  10  13
ENDBRANCH   8   9
TORSDOF 6
ENDMDL
MODEL      232
REMARK 921   NORMALIZED FREE ENERGY PREDICTED BY IDOCK:   -1.82 KCAL/MOL
REMARK 922        TOTAL FREE ENERGY PREDICTED BY IDOCK:   -3.73 KCAL/MOL
REMARK 923 INTER-LIGAND FREE ENERGY PREDICTED BY IDOCK:   -6.60 KCAL/MOL
REMARK 924 INTRA-LIGAND FREE ENERGY PREDICTED BY IDOCK:    2.87 KCAL/MOL
REMARK 927      BINDING AFFINITY PREDICTED BY RF-SCORE:    0.00 PKD
ROOT
HETATM    1  C   UNL     1      -9.843  16.678  66.149  1.00  0.00    -0.340 C  
HETATM    2  C   UNL     1      -9.660  17.839  67.091  1.00  0.00    -0.276 A  
HETATM    3  C   UNL     1     -10.689  18.801  67.119  1.00  0.00    -0.469 A  
HETATM    4  C   UNL     1     -10.568  19.961  67.874  1.00  0.00    -0.424 A  
HETATM    5  C   UNL     1      -9.402  20.192  68.592  1.00  0.00    -0.040 A  
HETATM    6  C   UNL     1      -8.352  19.254  68.587  1.00  0.00    -0.407 A  
HETATM    7  C   UNL     1      -7.125  19.570  69.402  1.00  0.00    -0.329 C  
HETATM    8  C   UNL     1      -8.500  18.039  67.877  1.00  0.00    -0.252 A  
ENDROOT
BRANCH   8   9
HETATM    9  N   UNL     1      -7.455  17.076  67.961  1.00  0.00    -0.178 N  
HETATM   10  C   UNL     1      -6.166  17.306  67.504  1.00  0.00    -0.149 C  
HETATM   11  H   UNL     1      -7.665  16.170  68.379  1.00  0.00     0.000 HD 
HETATM   12  O   UNL     1      -5.782  18.348  66.978  1.00  0.00    -0.144 OA 
BRANCH  10  13
HETATM   13  C   UNL     1      -5.219  16.098  67.537  1.00  0.00    -0.112 C  
BRANCH  13  14
HETATM   14  N   UNL     1      -5.314  15.247  68.751  1.00  0.00    -0.092 NA 
HETATM   15  C   UNL     1      -6.655  15.432  69.372  1.00  0.00    -0.155 C  
HETATM   16  C   UNL     1      -7.846  14.761  68.631  1.00  0.00    -0.140 C  
HETATM   17  N   UNL     1      -7.646  13.341  68.276  1.00  0.00    -0.129 NA 
HETATM   18  C   UNL     1      -6.322  13.168  67.654  1.00  0.00    -0.160 C  
HETATM   19  C   UNL     1      -5.158  13.806  68.444  1.00  0.00    -0.100 C  
BRANCH  17  20
HETATM   20  C   UNL     1      -7.844  12.433  69.413  1.00  0.00     0.699 C  
BRANCH  20  21
HETATM   21  C   UNL     1      -8.713  11.223  69.041  1.00  0.00     0.026 C  
BRANCH  21  22
HETATM   22  C   UNL     1      -9.772  11.516  67.965  1.00  0.00    -0.187 C  
HETATM   23  C   UNL     1      -9.499  10.856  66.587  1.00  0.00    -0.204 C  
HETATM   24  C   UNL     1     -10.447  11.340  65.489  1.00  0.00    -0.323 A  
HETATM   25  C   UNL     1      -9.467   9.335  66.723  1.00  0.00    -0.228 A  
HETATM   26  C   UNL     1     -10.612   8.621  67.115  1.00  0.00    -0.304 A  
HETATM   27  C   UNL     1      -9.994  11.372  64.156  1.00  0.00    -0.335 A  
HETATM   28  C   UNL     1     -10.814  11.858  63.135  1.00  0.00    -0.294 A  
HETATM   29  C   UNL     1     -10.543   7.250  67.365  1.00  0.00    -0.370 A  
HETATM   30  C   UNL     1     -12.094  12.305  63.438  1.00  0.00    -0.516 A  
HETATM   31  C   UNL     1      -9.334   6.587  67.215  1.00  0.00    -0.121 A  
HETATM   32  F   UNL     1      -9.264   5.277  67.483  1.00  0.00    -0.113 F  
HETATM   33  C   UNL     1      -8.193   7.264  66.804  1.00  0.00    -0.121 A  
HETATM   34  F   UNL     1     -12.875  12.786  62.462  1.00  0.00     0.199 F  
HETATM   35  C   UNL     1     -12.573  12.263  64.738  1.00  0.00    -0.312 A  
HETATM   36  C   UNL     1     -11.756  11.778  65.759  1.00  0.00    -0.093 A  
HETATM   37  C   UNL     1      -8.258   8.635  66.552  1.00  0.00    -0.107 A  
ENDBRANCH  21  22
ENDBRANCH  20  21
ENDBRANCH  17  20
ENDBRANCH  13  14
ENDBRANCH  10  13
ENDBRANCH   8   9
TORSDOF 6
ENDMDL
MODEL      233
REMARK 921   NORMALIZED FREE ENERGY PREDICTED BY IDOCK:   -1.56 KCAL/MOL
REMARK 922        TOTAL FREE ENERGY PREDICTED BY IDOCK:   -3.37 KCAL/MOL
REMARK 923 INTER-LIGAND FREE ENERGY PREDICTED BY IDOCK:   -2.91 KCAL/MOL
REMARK 924 INTRA-LIGAND FREE ENERGY PREDICTED BY IDOCK:   -0.46 KCAL/MOL
REMARK 927      BINDING AFFINITY PREDICTED BY RF-SCORE:    0.00 PKD
ROOT
HETATM    1  C   UNL     1     -10.198   5.581  70.469  1.00  0.00    -0.311 C  
HETATM    2  C   UNL     1      -9.438   4.711  69.503  1.00  0.00    -0.236 A  
HETATM    3  C   UNL     1     -10.009   3.460  69.193  1.00  0.00     0.412 A  
HETATM    4  C   UNL     1      -9.337   2.542  68.396  1.00  0.00    -0.259 A  
HETATM    5  C   UNL     1      -8.068   2.847  67.919  1.00  0.00    -0.076 A  
HETATM    6  C   UNL     1      -7.466   4.086  68.209  1.00  0.00    -0.059 A  
HETATM    7  C   UNL     1      -6.095   4.349  67.644  1.00  0.00    -0.031 C  
HETATM    8  C   UNL     1      -8.176   5.053  68.960  1.00  0.00    -0.087 A  
ENDROOT
BRANCH   8   9
HETATM    9  N   UNL     1      -7.573   6.326  69.164  1.00  0.00    -0.097 N  
HETATM   10  C   UNL     1      -6.764   6.622  70.250  1.00  0.00    -0.053 C  
HETATM   11  H   UNL     1      -7.745   7.059  68.476  1.00  0.00     0.000 HD 
HETATM   12  O   UNL     1      -6.479   5.836  71.151  1.00  0.00    -0.038 OA 
BRANCH  10  13
HETATM   13  C   UNL     1      -6.332   8.090  70.381  1.00  0.00    -0.036 C  
BRANCH  13  14
HETATM   14  N   UNL     1      -6.267   8.852  69.108  1.00  0.00    -0.042 NA 
HETATM   15  C   UNL     1      -7.623   9.380  68.787  1.00  0.00    -0.079 C  
HETATM   16  C   UNL     1      -8.106  10.579  69.650  1.00  0.00    -0.043 C  
HETATM   17  N   UNL     1      -7.146  11.695  69.771  1.00  0.00     0.114 NA 
HETATM   18  C   UNL     1      -5.810  11.166  70.097  1.00  0.00    -0.124 C  
HETATM   19  C   UNL     1      -5.344  10.008  69.188  1.00  0.00    -0.035 C  
BRANCH  17  20
HETATM   20  C   UNL     1      -7.121  12.561  68.584  1.00  0.00    -0.100 C  
BRANCH  20  21
HETATM   21  C   UNL     1      -7.681  13.960  68.879  1.00  0.00    -0.041 C  
BRANCH  21  22
HETATM   22  C   UNL     1      -8.596  14.517  67.775  1.00  0.00    -0.176 C  
HETATM   23  C   UNL     1     -10.106  14.222  67.973  1.00  0.00    -0.227 C  
HETATM   24  C   UNL     1     -10.957  14.598  66.758  1.00  0.00    -0.323 A  
HETATM   25  C   UNL     1     -10.606  14.853  69.271  1.00  0.00    -0.248 A  
HETATM   26  C   UNL     1     -10.602  16.247  69.445  1.00  0.00    -0.301 A  
HETATM   27  C   UNL     1     -12.133  13.871  66.493  1.00  0.00    -0.484 A  
HETATM   28  C   UNL     1     -12.906  14.151  65.363  1.00  0.00    -0.393 A  
HETATM   29  C   UNL     1     -10.934  16.810  70.677  1.00  0.00     0.288 A  
HETATM   30  C   UNL     1     -12.513  15.165  64.499  1.00  0.00    -0.086 A  
HETATM   31  C   UNL     1     -11.280  15.984  71.737  1.00  0.00    -0.015 A  
HETATM   32  F   UNL     1     -11.570  16.525  72.926  1.00  0.00    -0.543 F  
HETATM   33  C   UNL     1     -11.316  14.603  71.584  1.00  0.00     0.141 A  
HETATM   34  F   UNL     1     -13.245  15.423  63.407  1.00  0.00     0.895 F  
HETATM   35  C   UNL     1     -11.372  15.911  64.748  1.00  0.00    -0.314 A  
HETATM   36  C   UNL     1     -10.600  15.633  65.876  1.00  0.00    -0.354 A  
HETATM   37  C   UNL     1     -10.986  14.036  70.353  1.00  0.00     0.455 A  
ENDBRANCH  21  22
ENDBRANCH  20  21
ENDBRANCH  17  20
ENDBRANCH  13  14
ENDBRANCH  10  13
ENDBRANCH   8   9
TORSDOF 6
ENDMDL
MODEL      234
REMARK 921   NORMALIZED FREE ENERGY PREDICTED BY IDOCK:   -1.24 KCAL/MOL
REMARK 922        TOTAL FREE ENERGY PREDICTED BY IDOCK:   -2.94 KCAL/MOL
REMARK 923 INTER-LIGAND FREE ENERGY PREDICTED BY IDOCK:   -5.85 KCAL/MOL
REMARK 924 INTRA-LIGAND FREE ENERGY PREDICTED BY IDOCK:    2.91 KCAL/MOL
REMARK 927      BINDING AFFINITY PREDICTED BY RF-SCORE:    0.00 PKD
ROOT
HETATM    1  C   UNL     1     -11.113   6.186  68.244  1.00  0.00    -0.336 C  
HETATM    2  C   UNL     1     -10.924   5.979  69.724  1.00  0.00    -0.471 A  
HETATM    3  C   UNL     1     -11.970   6.414  70.562  1.00  0.00    -0.217 A  
HETATM    4  C   UNL     1     -11.849   6.364  71.946  1.00  0.00    -0.380 A  
HETATM    5  C   UNL     1     -10.668   5.906  72.514  1.00  0.00    -0.274 A  
HETATM    6  C   UNL     1      -9.602   5.463  71.708  1.00  0.00    -0.186 A  
HETATM    7  C   UNL     1      -8.359   4.967  72.399  1.00  0.00    -0.120 C  
HETATM    8  C   UNL     1      -9.747   5.445  70.301  1.00  0.00    -0.192 A  
ENDROOT
BRANCH   8   9
HETATM    9  N   UNL     1      -8.683   4.914  69.518  1.00  0.00    -0.086 N  
HETATM   10  C   UNL     1      -7.949   3.796  69.885  1.00  0.00    -0.050 C  
HETATM   11  H   UNL     1      -8.447   5.380  68.643  1.00  0.00     0.000 HD 
HETATM   12  O   UNL     1      -8.126   3.144  70.912  1.00  0.00    -0.053 OA 
BRANCH  10  13
HETATM   13  C   UNL     1      -6.743   3.466  68.995  1.00  0.00    -0.037 C  
BRANCH  13  14
HETATM   14  N   UNL     1      -5.542   4.313  69.210  1.00  0.00    -0.016 NA 
HETATM   15  C   UNL     1      -5.147   4.936  67.916  1.00  0.00    -0.003 C  
HETATM   16  C   UNL     1      -6.054   6.095  67.416  1.00  0.00    -0.018 C  
HETATM   17  N   UNL     1      -6.341   7.145  68.414  1.00  0.00    -0.035 NA 
HETATM   18  C   UNL     1      -6.739   6.521  69.688  1.00  0.00    -0.050 C  
HETATM   19  C   UNL     1      -5.788   5.408  70.177  1.00  0.00    -0.017 C  
BRANCH  17  20
HETATM   20  C   UNL     1      -5.231   8.091  68.586  1.00  0.00    -0.027 C  
BRANCH  20  21
HETATM   21  C   UNL     1      -5.724   9.500  68.948  1.00  0.00    -0.036 C  
BRANCH  21  22
HETATM   22  C   UNL     1      -7.176   9.549  69.453  1.00  0.00    -0.064 C  
HETATM   23  C   UNL     1      -8.135  10.410  68.589  1.00  0.00    -0.118 C  
HETATM   24  C   UNL     1      -9.508  10.611  69.234  1.00  0.00    -0.152 A  
HETATM   25  C   UNL     1      -8.217   9.854  67.170  1.00  0.00    -0.121 A  
HETATM   26  C   UNL     1      -8.745   8.574  66.925  1.00  0.00    -0.137 A  
HETATM   27  C   UNL     1     -10.225  11.792  68.964  1.00  0.00    -0.044 A  
HETATM   28  C   UNL     1     -11.457  12.035  69.576  1.00  0.00    -0.351 A  
HETATM   29  C   UNL     1      -8.697   8.019  65.646  1.00  0.00    -0.156 A  
HETATM   30  C   UNL     1     -11.983  11.094  70.454  1.00  0.00    -0.378 A  
HETATM   31  C   UNL     1      -8.130   8.741  64.606  1.00  0.00    -0.157 A  
HETATM   32  F   UNL     1      -8.058   8.195  63.386  1.00  0.00    -0.144 F  
HETATM   33  C   UNL     1      -7.622  10.018  64.816  1.00  0.00    -0.143 A  
HETATM   34  F   UNL     1     -13.156  11.333  71.054  1.00  0.00    -0.403 F  
HETATM   35  C   UNL     1     -11.308   9.913  70.720  1.00  0.00    -0.430 A  
HETATM   36  C   UNL     1     -10.078   9.670  70.109  1.00  0.00    -0.311 A  
HETATM   37  C   UNL     1      -7.670  10.578  66.094  1.00  0.00    -0.142 A  
ENDBRANCH  21  22
ENDBRANCH  20  21
ENDBRANCH  17  20
ENDBRANCH  13  14
ENDBRANCH  10  13
ENDBRANCH   8   9
TORSDOF 6
ENDMDL
MODEL      235
REMARK 921   NORMALIZED FREE ENERGY PREDICTED BY IDOCK:   -1.18 KCAL/MOL
REMARK 922        TOTAL FREE ENERGY PREDICTED BY IDOCK:   -2.86 KCAL/MOL
REMARK 923 INTER-LIGAND FREE ENERGY PREDICTED BY IDOCK:   -4.81 KCAL/MOL
REMARK 924 INTRA-LIGAND FREE ENERGY PREDICTED BY IDOCK:    1.95 KCAL/MOL
REMARK 927      BINDING AFFINITY PREDICTED BY RF-SCORE:    0.00 PKD
ROOT
HETATM    1  C   UNL     1     -11.104   7.186  68.829  1.00  0.00    -0.019 C  
HETATM    2  C   UNL     1     -11.047   7.122  70.333  1.00  0.00    -0.309 A  
HETATM    3  C   UNL     1     -12.104   7.739  71.033  1.00  0.00    -0.264 A  
HETATM    4  C   UNL     1     -12.091   7.827  72.420  1.00  0.00    -0.297 A  
HETATM    5  C   UNL     1     -11.006   7.326  73.128  1.00  0.00    -0.384 A  
HETATM    6  C   UNL     1      -9.933   6.705  72.462  1.00  0.00    -0.184 A  
HETATM    7  C   UNL     1      -8.800   6.175  73.301  1.00  0.00    -0.126 C  
HETATM    8  C   UNL     1      -9.975   6.549  71.056  1.00  0.00    -0.183 A  
ENDROOT
BRANCH   8   9
HETATM    9  N   UNL     1      -8.913   5.842  70.423  1.00  0.00    -0.146 N  
HETATM   10  C   UNL     1      -8.689   4.485  70.596  1.00  0.00    -0.095 C  
HETATM   11  H   UNL     1      -8.285   6.362  69.810  1.00  0.00     0.000 HD 
HETATM   12  O   UNL     1      -9.365   3.745  71.307  1.00  0.00    -0.121 OA 
BRANCH  10  13
HETATM   13  C   UNL     1      -7.407   3.933  69.957  1.00  0.00    -0.042 C  
BRANCH  13  14
HETATM   14  N   UNL     1      -6.195   4.775  70.127  1.00  0.00    -0.025 NA 
HETATM   15  C   UNL     1      -5.371   4.698  68.889  1.00  0.00    -0.011 C  
HETATM   16  C   UNL     1      -5.917   5.476  67.659  1.00  0.00    -0.021 C  
HETATM   17  N   UNL     1      -6.303   6.877  67.921  1.00  0.00    -0.040 NA 
HETATM   18  C   UNL     1      -7.125   6.944  69.141  1.00  0.00    -0.084 C  
HETATM   19  C   UNL     1      -6.526   6.201  70.356  1.00  0.00    -0.040 C  
BRANCH  17  20
HETATM   20  C   UNL     1      -5.151   7.786  67.982  1.00  0.00    -0.030 C  
BRANCH  20  21
HETATM   21  C   UNL     1      -5.461   9.154  67.355  1.00  0.00    -0.041 C  
BRANCH  21  22
HETATM   22  C   UNL     1      -6.926   9.596  67.503  1.00  0.00    -0.084 C  
HETATM   23  C   UNL     1      -7.608  10.037  66.181  1.00  0.00    -0.109 C  
HETATM   24  C   UNL     1      -8.984  10.671  66.396  1.00  0.00    -0.176 A  
HETATM   25  C   UNL     1      -7.632   8.882  65.183  1.00  0.00    -0.099 A  
HETATM   26  C   UNL     1      -8.355   7.707  65.454  1.00  0.00    -0.134 A  
HETATM   27  C   UNL     1      -9.438  11.648  65.490  1.00  0.00    -0.215 A  
HETATM   28  C   UNL     1     -10.665  12.287  65.684  1.00  0.00    -0.302 A  
HETATM   29  C   UNL     1      -8.267   6.606  64.603  1.00  0.00    -0.034 A  
HETATM   30  C   UNL     1     -11.449  11.945  66.779  1.00  0.00    -0.316 A  
HETATM   31  C   UNL     1      -7.463   6.676  63.474  1.00  0.00    -0.080 A  
HETATM   32  F   UNL     1      -7.357   5.608  62.674  1.00  0.00    -0.041 F  
HETATM   33  C   UNL     1      -6.757   7.834  63.169  1.00  0.00    -0.071 A  
HETATM   34  F   UNL     1     -12.619  12.568  66.975  1.00  0.00    -0.036 F  
HETATM   35  C   UNL     1     -11.037  10.970  67.674  1.00  0.00    -0.363 A  
HETATM   36  C   UNL     1      -9.812  10.332  67.481  1.00  0.00    -0.204 A  
HETATM   37  C   UNL     1      -6.844   8.938  64.018  1.00  0.00    -0.087 A  
ENDBRANCH  21  22
ENDBRANCH  20  21
ENDBRANCH  17  20
ENDBRANCH  13  14
ENDBRANCH  10  13
ENDBRANCH   8   9
TORSDOF 6
ENDMDL
MODEL      236
REMARK 921   NORMALIZED FREE ENERGY PREDICTED BY IDOCK:   -1.17 KCAL/MOL
REMARK 922        TOTAL FREE ENERGY PREDICTED BY IDOCK:   -2.86 KCAL/MOL
REMARK 923 INTER-LIGAND FREE ENERGY PREDICTED BY IDOCK:   -5.75 KCAL/MOL
REMARK 924 INTRA-LIGAND FREE ENERGY PREDICTED BY IDOCK:    2.90 KCAL/MOL
REMARK 927      BINDING AFFINITY PREDICTED BY RF-SCORE:    0.00 PKD
ROOT
HETATM    1  C   UNL     1     -10.572   8.713  73.138  1.00  0.00     0.850 C  
HETATM    2  C   UNL     1     -10.801   7.927  71.874  1.00  0.00    -0.295 A  
HETATM    3  C   UNL     1     -12.129   7.543  71.599  1.00  0.00    -0.341 A  
HETATM    4  C   UNL     1     -12.430   6.726  70.516  1.00  0.00    -0.051 A  
HETATM    5  C   UNL     1     -11.404   6.256  69.706  1.00  0.00    -0.506 A  
HETATM    6  C   UNL     1     -10.066   6.619  69.951  1.00  0.00    -0.198 A  
HETATM    7  C   UNL     1      -9.012   6.079  69.020  1.00  0.00    -0.124 C  
HETATM    8  C   UNL     1      -9.762   7.507  71.009  1.00  0.00    -0.167 A  
ENDROOT
BRANCH   8   9
HETATM    9  N   UNL     1      -8.410   7.919  71.178  1.00  0.00    -0.108 N  
HETATM   10  C   UNL     1      -7.353   7.032  71.318  1.00  0.00    -0.080 C  
HETATM   11  H   UNL     1      -8.208   8.919  71.198  1.00  0.00     0.000 HD 
HETATM   12  O   UNL     1      -7.457   5.808  71.316  1.00  0.00    -0.089 OA 
BRANCH  10  13
HETATM   13  C   UNL     1      -5.992   7.661  71.645  1.00  0.00    -0.035 C  
BRANCH  13  14
HETATM   14  N   UNL     1      -5.282   8.280  70.497  1.00  0.00    -0.022 NA 
HETATM   15  C   UNL     1      -6.056   8.022  69.250  1.00  0.00    -0.034 C  
HETATM   16  C   UNL     1      -7.360   8.851  69.077  1.00  0.00    -0.073 C  
HETATM   17  N   UNL     1      -7.215  10.305  69.289  1.00  0.00    -0.081 NA 
HETATM   18  C   UNL     1      -6.456  10.551  70.528  1.00  0.00    -0.067 C  
HETATM   19  C   UNL     1      -5.142   9.747  70.642  1.00  0.00    -0.039 C  
BRANCH  17  20
HETATM   20  C   UNL     1      -6.625  10.996  68.135  1.00  0.00    -0.058 C  
BRANCH  20  21
HETATM   21  C   UNL     1      -7.315  12.339  67.852  1.00  0.00    -0.111 C  
BRANCH  21  22
HETATM   22  C   UNL     1      -8.242  12.324  66.625  1.00  0.00     0.022 C  
HETATM   23  C   UNL     1      -9.558  13.127  66.796  1.00  0.00    -0.249 C  
HETATM   24  C   UNL     1     -10.547  12.914  65.648  1.00  0.00    -0.295 A  
HETATM   25  C   UNL     1      -9.253  14.600  67.056  1.00  0.00    -0.252 A  
HETATM   26  C   UNL     1      -8.608  15.386  66.086  1.00  0.00     0.001 A  
HETATM   27  C   UNL     1     -11.928  13.009  65.905  1.00  0.00    -0.491 A  
HETATM   28  C   UNL     1     -12.860  12.768  64.893  1.00  0.00    -0.357 A  
HETATM   29  C   UNL     1      -8.214  16.692  66.377  1.00  0.00    -0.353 A  
HETATM   30  C   UNL     1     -12.418  12.441  63.618  1.00  0.00    -0.508 A  
HETATM   31  C   UNL     1      -8.469  17.220  67.635  1.00  0.00    -0.209 A  
HETATM   32  F   UNL     1      -8.064  18.464  67.922  1.00  0.00    -0.241 F  
HETATM   33  C   UNL     1      -9.127  16.473  68.604  1.00  0.00    -0.239 A  
HETATM   34  F   UNL     1     -13.312  12.194  62.651  1.00  0.00    -0.001 F  
HETATM   35  C   UNL     1     -11.064  12.362  63.332  1.00  0.00    -0.465 A  
HETATM   36  C   UNL     1     -10.132  12.603  64.341  1.00  0.00    -0.281 A  
HETATM   37  C   UNL     1      -9.525  15.167  68.316  1.00  0.00    -0.201 A  
ENDBRANCH  21  22
ENDBRANCH  20  21
ENDBRANCH  17  20
ENDBRANCH  13  14
ENDBRANCH  10  13
ENDBRANCH   8   9
TORSDOF 6
ENDMDL
MODEL      237
REMARK 921   NORMALIZED FREE ENERGY PREDICTED BY IDOCK:   -1.13 KCAL/MOL
REMARK 922        TOTAL FREE ENERGY PREDICTED BY IDOCK:   -2.80 KCAL/MOL
REMARK 923 INTER-LIGAND FREE ENERGY PREDICTED BY IDOCK:   -4.99 KCAL/MOL
REMARK 924 INTRA-LIGAND FREE ENERGY PREDICTED BY IDOCK:    2.19 KCAL/MOL
REMARK 927      BINDING AFFINITY PREDICTED BY RF-SCORE:    0.00 PKD
ROOT
HETATM    1  C   UNL     1     -10.419   7.207  70.544  1.00  0.00    -0.228 C  
HETATM    2  C   UNL     1     -10.517   5.914  71.310  1.00  0.00    -0.289 A  
HETATM    3  C   UNL     1     -10.991   5.997  72.635  1.00  0.00    -0.301 A  
HETATM    4  C   UNL     1     -11.020   4.879  73.459  1.00  0.00    -0.397 A  
HETATM    5  C   UNL     1     -10.546   3.664  72.982  1.00  0.00    -0.252 A  
HETATM    6  C   UNL     1     -10.064   3.543  71.665  1.00  0.00    -0.118 A  
HETATM    7  C   UNL     1      -9.581   2.189  71.216  1.00  0.00    -0.216 C  
HETATM    8  C   UNL     1     -10.100   4.662  70.799  1.00  0.00    -0.194 A  
ENDROOT
BRANCH   8   9
HETATM    9  N   UNL     1      -9.683   4.485  69.449  1.00  0.00    -0.195 N  
HETATM   10  C   UNL     1      -8.498   3.862  69.091  1.00  0.00    -0.076 C  
HETATM   11  H   UNL     1     -10.288   4.835  68.706  1.00  0.00     0.000 HD 
HETATM   12  O   UNL     1      -7.679   3.399  69.883  1.00  0.00    -0.047 OA 
BRANCH  10  13
HETATM   13  C   UNL     1      -8.145   3.903  67.598  1.00  0.00    -0.090 C  
BRANCH  13  14
HETATM   14  N   UNL     1      -6.744   4.281  67.283  1.00  0.00    -0.047 NA 
HETATM   15  C   UNL     1      -6.677   4.784  65.883  1.00  0.00    -0.053 C  
HETATM   16  C   UNL     1      -7.267   6.201  65.641  1.00  0.00    -0.074 C  
HETATM   17  N   UNL     1      -6.799   7.246  66.574  1.00  0.00    -0.060 NA 
HETATM   18  C   UNL     1      -6.876   6.745  67.957  1.00  0.00    -0.078 C  
HETATM   19  C   UNL     1      -6.236   5.355  68.169  1.00  0.00    -0.034 C  
BRANCH  17  20
HETATM   20  C   UNL     1      -5.459   7.750  66.244  1.00  0.00    -0.028 C  
BRANCH  20  21
HETATM   21  C   UNL     1      -5.503   9.175  65.675  1.00  0.00    -0.041 C  
BRANCH  21  22
HETATM   22  C   UNL     1      -5.705  10.271  66.736  1.00  0.00    -0.051 C  
HETATM   23  C   UNL     1      -7.030  11.066  66.603  1.00  0.00    -0.140 C  
HETATM   24  C   UNL     1      -7.099  12.280  67.532  1.00  0.00    -0.142 A  
HETATM   25  C   UNL     1      -8.229  10.132  66.750  1.00  0.00    -0.122 A  
HETATM   26  C   UNL     1      -8.470   9.450  67.955  1.00  0.00    -0.120 A  
HETATM   27  C   UNL     1      -7.846  13.406  67.136  1.00  0.00    -0.035 A  
HETATM   28  C   UNL     1      -7.888  14.552  67.933  1.00  0.00    -0.153 A  
HETATM   29  C   UNL     1      -9.487   8.500  68.043  1.00  0.00    -0.154 A  
HETATM   30  C   UNL     1      -7.192  14.575  69.135  1.00  0.00    -0.138 A  
HETATM   31  C   UNL     1     -10.272   8.232  66.931  1.00  0.00    -0.318 A  
HETATM   32  F   UNL     1     -11.228   7.299  67.008  1.00  0.00    -0.422 F  
HETATM   33  C   UNL     1     -10.071   8.910  65.734  1.00  0.00     0.199 A  
HETATM   34  F   UNL     1      -7.218  15.679  69.893  1.00  0.00    -0.190 F  
HETATM   35  C   UNL     1      -6.467  13.473  69.560  1.00  0.00    -0.089 A  
HETATM   36  C   UNL     1      -6.425  12.328  68.765  1.00  0.00    -0.082 A  
HETATM   37  C   UNL     1      -9.055   9.863  65.643  1.00  0.00    -0.220 A  
ENDBRANCH  21  22
ENDBRANCH  20  21
ENDBRANCH  17  20
ENDBRANCH  13  14
ENDBRANCH  10  13
ENDBRANCH   8   9
TORSDOF 6
ENDMDL
MODEL      238
REMARK 921   NORMALIZED FREE ENERGY PREDICTED BY IDOCK:   -1.12 KCAL/MOL
REMARK 922        TOTAL FREE ENERGY PREDICTED BY IDOCK:   -2.79 KCAL/MOL
REMARK 923 INTER-LIGAND FREE ENERGY PREDICTED BY IDOCK:   -5.42 KCAL/MOL
REMARK 924 INTRA-LIGAND FREE ENERGY PREDICTED BY IDOCK:    2.63 KCAL/MOL
REMARK 927      BINDING AFFINITY PREDICTED BY RF-SCORE:    0.00 PKD
ROOT
HETATM    1  C   UNL     1      -9.686  17.294  68.868  1.00  0.00    -0.251 C  
HETATM    2  C   UNL     1      -9.057  18.312  67.954  1.00  0.00    -0.288 A  
HETATM    3  C   UNL     1      -9.876  19.382  67.539  1.00  0.00    -0.448 A  
HETATM    4  C   UNL     1      -9.424  20.315  66.614  1.00  0.00    -0.487 A  
HETATM    5  C   UNL     1      -8.155  20.177  66.066  1.00  0.00    -0.218 A  
HETATM    6  C   UNL     1      -7.309  19.121  66.457  1.00  0.00    -0.248 A  
HETATM    7  C   UNL     1      -5.943  19.048  65.828  1.00  0.00    -0.221 C  
HETATM    8  C   UNL     1      -7.738  18.210  67.451  1.00  0.00    -0.217 A  
ENDROOT
BRANCH   8   9
HETATM    9  N   UNL     1      -6.828  17.204  67.883  1.00  0.00    -0.154 N  
HETATM   10  C   UNL     1      -7.089  15.846  67.788  1.00  0.00    -0.148 C  
HETATM   11  H   UNL     1      -5.937  17.498  68.283  1.00  0.00     0.000 HD 
HETATM   12  O   UNL     1      -8.121  15.358  67.332  1.00  0.00    -0.150 OA 
BRANCH  10  13
HETATM   13  C   UNL     1      -6.058  14.919  68.447  1.00  0.00    -0.103 C  
BRANCH  13  14
HETATM   14  N   UNL     1      -6.610  13.684  69.059  1.00  0.00    -0.105 NA 
HETATM   15  C   UNL     1      -7.784  13.228  68.263  1.00  0.00    -0.141 C  
HETATM   16  C   UNL     1      -7.460  12.577  66.889  1.00  0.00     0.101 C  
HETATM   17  N   UNL     1      -6.430  11.519  66.921  1.00  0.00    -0.138 NA 
HETATM   18  C   UNL     1      -5.270  11.980  67.702  1.00  0.00    -0.078 C  
HETATM   19  C   UNL     1      -5.627  12.576  69.082  1.00  0.00    -0.072 C  
BRANCH  17  20
HETATM   20  C   UNL     1      -6.946  10.232  67.407  1.00  0.00    -0.082 C  
BRANCH  20  21
HETATM   21  C   UNL     1      -8.431  10.039  67.066  1.00  0.00    -0.125 C  
BRANCH  21  22
HETATM   22  C   UNL     1      -8.811   8.594  66.701  1.00  0.00    -0.155 C  
HETATM   23  C   UNL     1      -7.876   7.508  67.296  1.00  0.00    -0.118 C  
HETATM   24  C   UNL     1      -8.151   6.108  66.742  1.00  0.00    -0.109 A  
HETATM   25  C   UNL     1      -7.901   7.561  68.822  1.00  0.00    -0.121 A  
HETATM   26  C   UNL     1      -9.081   7.290  69.535  1.00  0.00    -0.143 A  
HETATM   27  C   UNL     1      -7.091   5.186  66.651  1.00  0.00    -0.069 A  
HETATM   28  C   UNL     1      -7.293   3.918  66.100  1.00  0.00    -0.072 A  
HETATM   29  C   UNL     1      -9.133   7.469  70.917  1.00  0.00    -0.153 A  
HETATM   30  C   UNL     1      -8.557   3.562  65.647  1.00  0.00    -0.115 A  
HETATM   31  C   UNL     1      -8.005   7.911  71.593  1.00  0.00    -0.101 A  
HETATM   32  F   UNL     1      -8.065   8.110  72.916  1.00  0.00    -0.158 F  
HETATM   33  C   UNL     1      -6.818   8.163  70.916  1.00  0.00    -0.042 A  
HETATM   34  F   UNL     1      -8.748   2.352  65.105  1.00  0.00    -0.096 F  
HETATM   35  C   UNL     1      -9.623   4.442  65.746  1.00  0.00    -0.188 A  
HETATM   36  C   UNL     1      -9.423   5.708  66.295  1.00  0.00    -0.171 A  
HETATM   37  C   UNL     1      -6.762   7.984  69.533  1.00  0.00    -0.038 A  
ENDBRANCH  21  22
ENDBRANCH  20  21
ENDBRANCH  17  20
ENDBRANCH  13  14
ENDBRANCH  10  13
ENDBRANCH   8   9
TORSDOF 6
ENDMDL
MODEL      239
REMARK 921   NORMALIZED FREE ENERGY PREDICTED BY IDOCK:   -1.11 KCAL/MOL
REMARK 922        TOTAL FREE ENERGY PREDICTED BY IDOCK:   -2.77 KCAL/MOL
REMARK 923 INTER-LIGAND FREE ENERGY PREDICTED BY IDOCK:   -5.21 KCAL/MOL
REMARK 924 INTRA-LIGAND FREE ENERGY PREDICTED BY IDOCK:    2.43 KCAL/MOL
REMARK 927      BINDING AFFINITY PREDICTED BY RF-SCORE:    0.00 PKD
ROOT
HETATM    1  C   UNL     1      -9.635   6.606  72.197  1.00  0.00    -0.149 C  
HETATM    2  C   UNL     1      -9.734   5.147  71.841  1.00  0.00    -0.211 A  
HETATM    3  C   UNL     1     -10.201   4.279  72.849  1.00  0.00    -0.227 A  
HETATM    4  C   UNL     1     -10.229   2.903  72.656  1.00  0.00    -0.234 A  
HETATM    5  C   UNL     1      -9.762   2.369  71.461  1.00  0.00    -0.225 A  
HETATM    6  C   UNL     1      -9.289   3.205  70.432  1.00  0.00    -0.232 A  
HETATM    7  C   UNL     1      -8.813   2.552  69.161  1.00  0.00    -0.150 C  
HETATM    8  C   UNL     1      -9.325   4.610  70.597  1.00  0.00    -0.154 A  
ENDROOT
BRANCH   8   9
HETATM    9  N   UNL     1      -8.916   5.429  69.506  1.00  0.00    -0.104 N  
HETATM   10  C   UNL     1      -9.616   5.516  68.312  1.00  0.00    -0.120 C  
HETATM   11  H   UNL     1      -8.064   5.980  69.608  1.00  0.00     0.000 HD 
HETATM   12  O   UNL     1     -10.652   4.905  68.058  1.00  0.00     0.028 OA 
BRANCH  10  13
HETATM   13  C   UNL     1      -8.940   6.327  67.198  1.00  0.00    -0.111 C  
BRANCH  13  14
HETATM   14  N   UNL     1      -8.945   7.800  67.389  1.00  0.00    -0.123 NA 
HETATM   15  C   UNL     1      -7.997   8.153  68.483  1.00  0.00    -0.126 C  
HETATM   16  C   UNL     1      -6.486   8.058  68.129  1.00  0.00    -0.055 C  
HETATM   17  N   UNL     1      -6.089   8.736  66.879  1.00  0.00    -0.057 NA 
HETATM   18  C   UNL     1      -7.025   8.375  65.800  1.00  0.00    -0.067 C  
HETATM   19  C   UNL     1      -8.516   8.529  66.172  1.00  0.00    -0.132 C  
BRANCH  17  20
HETATM   20  C   UNL     1      -5.959  10.191  67.033  1.00  0.00    -0.051 C  
BRANCH  20  21
HETATM   21  C   UNL     1      -7.269  10.841  67.503  1.00  0.00    -0.090 C  
BRANCH  21  22
HETATM   22  C   UNL     1      -8.241  11.192  66.364  1.00  0.00    -0.164 C  
HETATM   23  C   UNL     1      -9.465  12.043  66.795  1.00  0.00    -0.212 C  
HETATM   24  C   UNL     1     -10.515  12.189  65.691  1.00  0.00    -0.290 A  
HETATM   25  C   UNL     1      -9.008  13.383  67.366  1.00  0.00    -0.215 A  
HETATM   26  C   UNL     1      -8.329  14.316  66.564  1.00  0.00     0.355 A  
HETATM   27  C   UNL     1     -11.869  12.339  66.048  1.00  0.00    -0.409 A  
HETATM   28  C   UNL     1     -12.860  12.421  65.067  1.00  0.00     0.019 A  
HETATM   29  C   UNL     1      -7.798  15.479  67.122  1.00  0.00    -0.256 A  
HETATM   30  C   UNL     1     -12.503  12.365  63.726  1.00  0.00    -0.492 A  
HETATM   31  C   UNL     1      -7.951  15.718  68.480  1.00  0.00    -0.141 A  
HETATM   32  F   UNL     1      -7.415  16.821  69.019  1.00  0.00    -0.203 F  
HETATM   33  C   UNL     1      -8.639  14.824  69.291  1.00  0.00    -0.036 A  
HETATM   34  F   UNL     1     -13.455  12.427  62.785  1.00  0.00     0.233 F  
HETATM   35  C   UNL     1     -11.176  12.240  63.347  1.00  0.00    -0.497 A  
HETATM   36  C   UNL     1     -10.185  12.158  64.325  1.00  0.00    -0.351 A  
HETATM   37  C   UNL     1      -9.173  13.660  68.736  1.00  0.00     0.046 A  
ENDBRANCH  21  22
ENDBRANCH  20  21
ENDBRANCH  17  20
ENDBRANCH  13  14
ENDBRANCH  10  13
ENDBRANCH   8   9
TORSDOF 6
ENDMDL
MODEL      240
REMARK 921   NORMALIZED FREE ENERGY PREDICTED BY IDOCK:   -0.70 KCAL/MOL
REMARK 922        TOTAL FREE ENERGY PREDICTED BY IDOCK:   -2.22 KCAL/MOL
REMARK 923 INTER-LIGAND FREE ENERGY PREDICTED BY IDOCK:   -3.37 KCAL/MOL
REMARK 924 INTRA-LIGAND FREE ENERGY PREDICTED BY IDOCK:    1.16 KCAL/MOL
REMARK 927      BINDING AFFINITY PREDICTED BY RF-SCORE:    0.00 PKD
ROOT
HETATM    1  C   UNL     1      -8.770   8.309  65.201  1.00  0.00    -0.089 C  
HETATM    2  C   UNL     1      -7.667   7.584  64.475  1.00  0.00    -0.123 A  
HETATM    3  C   UNL     1      -7.153   8.206  63.320  1.00  0.00    -0.087 A  
HETATM    4  C   UNL     1      -6.210   7.571  62.521  1.00  0.00    -0.066 A  
HETATM    5  C   UNL     1      -5.786   6.289  62.848  1.00  0.00    -0.026 A  
HETATM    6  C   UNL     1      -6.279   5.636  63.994  1.00  0.00    -0.025 A  
HETATM    7  C   UNL     1      -5.761   4.253  64.290  1.00  0.00    -0.014 C  
HETATM    8  C   UNL     1      -7.185   6.307  64.849  1.00  0.00    -0.067 A  
ENDROOT
BRANCH   8   9
HETATM    9  N   UNL     1      -7.599   5.650  66.043  1.00  0.00    -0.085 N  
HETATM   10  C   UNL     1      -6.856   5.655  67.214  1.00  0.00    -0.064 C  
HETATM   11  H   UNL     1      -8.488   5.150  66.036  1.00  0.00     0.000 HD 
HETATM   12  O   UNL     1      -5.771   6.213  67.356  1.00  0.00    -0.015 OA 
BRANCH  10  13
HETATM   13  C   UNL     1      -7.388   4.765  68.346  1.00  0.00    -0.065 C  
BRANCH  13  14
HETATM   14  N   UNL     1      -8.053   5.483  69.463  1.00  0.00    -0.100 NA 
HETATM   15  C   UNL     1      -7.469   6.848  69.581  1.00  0.00    -0.099 C  
HETATM   16  C   UNL     1      -7.893   7.864  68.483  1.00  0.00    -0.119 C  
HETATM   17  N   UNL     1      -9.346   7.957  68.237  1.00  0.00    -0.143 NA 
HETATM   18  C   UNL     1      -9.914   6.603  68.113  1.00  0.00    -0.147 C  
HETATM   19  C   UNL     1      -9.511   5.636  69.248  1.00  0.00    -0.130 C  
BRANCH  17  20
HETATM   20  C   UNL     1     -10.048   8.759  69.248  1.00  0.00    -0.204 C  
BRANCH  20  21
HETATM   21  C   UNL     1      -9.743  10.258  69.108  1.00  0.00    -0.229 C  
BRANCH  21  22
HETATM   22  C   UNL     1     -10.015  10.827  67.705  1.00  0.00    -0.195 C  
HETATM   23  C   UNL     1     -10.313  12.350  67.669  1.00  0.00    -0.223 C  
HETATM   24  C   UNL     1     -10.788  12.837  66.299  1.00  0.00    -0.299 A  
HETATM   25  C   UNL     1      -9.120  13.139  68.204  1.00  0.00    -0.200 A  
HETATM   26  C   UNL     1      -7.881  13.114  67.541  1.00  0.00    -0.173 A  
HETATM   27  C   UNL     1     -11.663  13.937  66.228  1.00  0.00    -0.402 A  
HETATM   28  C   UNL     1     -12.160  14.377  64.999  1.00  0.00    -0.417 A  
HETATM   29  C   UNL     1      -6.762  13.727  68.103  1.00  0.00    -0.124 A  
HETATM   30  C   UNL     1     -11.776  13.726  63.833  1.00  0.00    -0.266 A  
HETATM   31  C   UNL     1      -6.877  14.375  69.325  1.00  0.00    -0.129 A  
HETATM   32  F   UNL     1      -5.795  14.938  69.876  1.00  0.00    -0.100 F  
HETATM   33  C   UNL     1      -8.096  14.435  69.990  1.00  0.00     0.830 A  
HETATM   34  F   UNL     1     -12.264  14.136  62.655  1.00  0.00     0.234 F  
HETATM   35  C   UNL     1     -10.897  12.654  63.872  1.00  0.00    -0.468 A  
HETATM   36  C   UNL     1     -10.401  12.215  65.099  1.00  0.00    -0.311 A  
HETATM   37  C   UNL     1      -9.218  13.824  69.430  1.00  0.00     0.766 A  
ENDBRANCH  21  22
ENDBRANCH  20  21
ENDBRANCH  17  20
ENDBRANCH  13  14
ENDBRANCH  10  13
ENDBRANCH   8   9
TORSDOF 6
ENDMDL
MODEL      241
REMARK 921   NORMALIZED FREE ENERGY PREDICTED BY IDOCK:   -0.41 KCAL/MOL
REMARK 922        TOTAL FREE ENERGY PREDICTED BY IDOCK:   -1.82 KCAL/MOL
REMARK 923 INTER-LIGAND FREE ENERGY PREDICTED BY IDOCK:   -2.84 KCAL/MOL
REMARK 924 INTRA-LIGAND FREE ENERGY PREDICTED BY IDOCK:    1.02 KCAL/MOL
REMARK 927      BINDING AFFINITY PREDICTED BY RF-SCORE:    0.00 PKD
ROOT
HETATM    1  C   UNL     1      -5.274   6.137  62.659  1.00  0.00    -0.021 C  
HETATM    2  C   UNL     1      -6.291   5.485  63.559  1.00  0.00    -0.022 A  
HETATM    3  C   UNL     1      -6.268   4.077  63.625  1.00  0.00    -0.018 A  
HETATM    4  C   UNL     1      -7.230   3.376  64.342  1.00  0.00    -0.058 A  
HETATM    5  C   UNL     1      -8.250   4.071  64.981  1.00  0.00    -0.101 A  
HETATM    6  C   UNL     1      -8.305   5.477  64.936  1.00  0.00    -0.142 A  
HETATM    7  C   UNL     1      -9.433   6.158  65.666  1.00  0.00     0.195 C  
HETATM    8  C   UNL     1      -7.287   6.198  64.268  1.00  0.00    -0.070 A  
ENDROOT
BRANCH   8   9
HETATM    9  N   UNL     1      -7.328   7.621  64.311  1.00  0.00    -0.086 N  
HETATM   10  C   UNL     1      -8.115   8.389  63.467  1.00  0.00    -0.143 C  
HETATM   11  H   UNL     1      -6.747   8.100  64.999  1.00  0.00     0.000 HD 
HETATM   12  O   UNL     1      -8.856   7.941  62.595  1.00  0.00     0.166 OA 
BRANCH  10  13
HETATM   13  C   UNL     1      -7.909   9.907  63.559  1.00  0.00    -0.150 C  
BRANCH  13  14
HETATM   14  N   UNL     1      -7.811  10.456  64.935  1.00  0.00    -0.133 NA 
HETATM   15  C   UNL     1      -8.638  11.692  65.027  1.00  0.00     0.589 C  
HETATM   16  C   UNL     1     -10.177  11.477  65.066  1.00  0.00    -0.280 C  
HETATM   17  N   UNL     1     -10.649  10.480  66.048  1.00  0.00    -0.147 NA 
HETATM   18  C   UNL     1      -9.832   9.258  65.945  1.00  0.00    -0.265 C  
HETATM   19  C   UNL     1      -8.308   9.507  65.959  1.00  0.00    -0.119 C  
BRANCH  17  20
HETATM   20  C   UNL     1     -10.689  11.002  67.420  1.00  0.00    -0.257 C  
BRANCH  20  21
HETATM   21  C   UNL     1     -11.357  10.018  68.393  1.00  0.00    -0.117 C  
BRANCH  21  22
HETATM   22  C   UNL     1     -10.658   8.651  68.483  1.00  0.00    -0.162 C  
HETATM   23  C   UNL     1     -10.052   8.323  69.874  1.00  0.00    -0.195 C  
HETATM   24  C   UNL     1      -9.184   7.063  69.870  1.00  0.00    -0.144 A  
HETATM   25  C   UNL     1     -11.147   8.291  70.938  1.00  0.00    -0.289 A  
HETATM   26  C   UNL     1     -12.177   7.336  70.885  1.00  0.00    -0.308 A  
HETATM   27  C   UNL     1      -8.108   6.968  70.772  1.00  0.00    -0.113 A  
HETATM   28  C   UNL     1      -7.263   5.856  70.761  1.00  0.00    -0.080 A  
HETATM   29  C   UNL     1     -13.245   7.394  71.781  1.00  0.00    -0.371 A  
HETATM   30  C   UNL     1      -7.493   4.830  69.854  1.00  0.00    -0.055 A  
HETATM   31  C   UNL     1     -13.283   8.399  72.737  1.00  0.00     0.047 A  
HETATM   32  F   UNL     1     -14.324   8.469  73.577  1.00  0.00     0.191 F  
HETATM   33  C   UNL     1     -12.265   9.340  72.826  1.00  0.00     0.411 A  
HETATM   34  F   UNL     1      -6.673   3.771  69.831  1.00  0.00    -0.031 F  
HETATM   35  C   UNL     1      -8.559   4.887  68.969  1.00  0.00    -0.093 A  
HETATM   36  C   UNL     1      -9.404   5.996  68.980  1.00  0.00    -0.134 A  
HETATM   37  C   UNL     1     -11.195   9.285  71.933  1.00  0.00    -0.331 A  
ENDBRANCH  21  22
ENDBRANCH  20  21
ENDBRANCH  17  20
ENDBRANCH  13  14
ENDBRANCH  10  13
ENDBRANCH   8   9
TORSDOF 6
ENDMDL
MODEL      242
REMARK 921   NORMALIZED FREE ENERGY PREDICTED BY IDOCK:   -0.29 KCAL/MOL
REMARK 922        TOTAL FREE ENERGY PREDICTED BY IDOCK:   -1.67 KCAL/MOL
REMARK 923 INTER-LIGAND FREE ENERGY PREDICTED BY IDOCK:   -4.26 KCAL/MOL
REMARK 924 INTRA-LIGAND FREE ENERGY PREDICTED BY IDOCK:    2.60 KCAL/MOL
REMARK 927      BINDING AFFINITY PREDICTED BY RF-SCORE:    0.00 PKD
ROOT
HETATM    1  C   UNL     1     -11.876  11.568  67.468  1.00  0.00    -0.157 C  
HETATM    2  C   UNL     1     -12.096  12.756  68.367  1.00  0.00    -0.145 A  
HETATM    3  C   UNL     1     -12.236  14.010  67.738  1.00  0.00    -0.209 A  
HETATM    4  C   UNL     1     -12.337  15.179  68.481  1.00  0.00     0.150 A  
HETATM    5  C   UNL     1     -12.270  15.118  69.867  1.00  0.00    -0.353 A  
HETATM    6  C   UNL     1     -12.131  13.884  70.530  1.00  0.00    -0.426 A  
HETATM    7  C   UNL     1     -12.080  13.898  72.036  1.00  0.00     0.231 C  
HETATM    8  C   UNL     1     -12.100  12.684  69.781  1.00  0.00    -0.233 A  
ENDROOT
BRANCH   8   9
HETATM    9  N   UNL     1     -12.042  11.448  70.486  1.00  0.00    -0.379 N  
HETATM   10  C   UNL     1     -12.931  11.101  71.492  1.00  0.00    -0.437 C  
HETATM   11  H   UNL     1     -11.308  10.784  70.238  1.00  0.00     0.000 HD 
HETATM   12  O   UNL     1     -13.855  11.807  71.889  1.00  0.00     0.036 OA 
BRANCH  10  13
HETATM   13  C   UNL     1     -12.616   9.798  72.241  1.00  0.00    -0.184 C  
BRANCH  13  14
HETATM   14  N   UNL     1     -11.361   9.116  71.835  1.00  0.00    -0.375 NA 
HETATM   15  C   UNL     1     -10.931   8.197  72.926  1.00  0.00    -0.237 C  
HETATM   16  C   UNL     1     -11.761   6.892  73.080  1.00  0.00     0.225 C  
HETATM   17  N   UNL     1     -11.974   6.130  71.833  1.00  0.00    -0.282 NA 
HETATM   18  C   UNL     1     -12.407   7.044  70.762  1.00  0.00    -0.258 C  
HETATM   19  C   UNL     1     -11.529   8.306  70.606  1.00  0.00    -0.225 C  
BRANCH  17  20
HETATM   20  C   UNL     1     -10.802   5.336  71.440  1.00  0.00    -0.082 C  
BRANCH  20  21
HETATM   21  C   UNL     1      -9.491   5.946  71.958  1.00  0.00    -0.164 C  
BRANCH  21  22
HETATM   22  C   UNL     1      -8.899   7.033  71.045  1.00  0.00    -0.146 C  
HETATM   23  C   UNL     1      -7.355   7.168  71.113  1.00  0.00    -0.075 C  
HETATM   24  C   UNL     1      -6.824   8.391  70.364  1.00  0.00    -0.037 A  
HETATM   25  C   UNL     1      -6.687   5.865  70.680  1.00  0.00    -0.053 A  
HETATM   26  C   UNL     1      -6.835   5.379  69.369  1.00  0.00    -0.057 A  
HETATM   27  C   UNL     1      -5.643   9.012  70.814  1.00  0.00    -0.034 A  
HETATM   28  C   UNL     1      -5.158  10.162  70.188  1.00  0.00    -0.038 A  
HETATM   29  C   UNL     1      -6.334   4.126  69.016  1.00  0.00    -0.032 A  
HETATM   30  C   UNL     1      -5.844  10.693  69.103  1.00  0.00    -0.040 A  
HETATM   31  C   UNL     1      -5.677   3.358  69.966  1.00  0.00    -0.017 A  
HETATM   32  F   UNL     1      -5.223   2.143  69.633  1.00  0.00    -0.009 F  
HETATM   33  C   UNL     1      -5.496   3.825  71.262  1.00  0.00    -0.008 A  
HETATM   34  F   UNL     1      -5.389  11.805  68.511  1.00  0.00    -0.046 F  
HETATM   35  C   UNL     1      -6.997  10.089  68.625  1.00  0.00    -0.069 A  
HETATM   36  C   UNL     1      -7.482   8.940  69.250  1.00  0.00    -0.075 A  
HETATM   37  C   UNL     1      -5.994   5.079  71.619  1.00  0.00    -0.020 A  
ENDBRANCH  21  22
ENDBRANCH  20  21
ENDBRANCH  17  20
ENDBRANCH  13  14
ENDBRANCH  10  13
ENDBRANCH   8   9
TORSDOF 6
ENDMDL
MODEL      243
REMARK 921   NORMALIZED FREE ENERGY PREDICTED BY IDOCK:   -0.26 KCAL/MOL
REMARK 922        TOTAL FREE ENERGY PREDICTED BY IDOCK:   -1.62 KCAL/MOL
REMARK 923 INTER-LIGAND FREE ENERGY PREDICTED BY IDOCK:   -4.72 KCAL/MOL
REMARK 924 INTRA-LIGAND FREE ENERGY PREDICTED BY IDOCK:    3.11 KCAL/MOL
REMARK 927      BINDING AFFINITY PREDICTED BY RF-SCORE:    0.00 PKD
ROOT
HETATM    1  C   UNL     1     -13.053  11.491  63.542  1.00  0.00     0.317 C  
HETATM    2  C   UNL     1     -12.174  12.552  64.150  1.00  0.00    -0.552 A  
HETATM    3  C   UNL     1     -12.660  13.875  64.111  1.00  0.00    -0.142 A  
HETATM    4  C   UNL     1     -11.882  14.939  64.549  1.00  0.00    -0.404 A  
HETATM    5  C   UNL     1     -10.591  14.702  65.006  1.00  0.00    -0.461 A  
HETATM    6  C   UNL     1     -10.072  13.394  65.058  1.00  0.00    -0.261 A  
HETATM    7  C   UNL     1      -8.670  13.216  65.579  1.00  0.00     1.470 C  
HETATM    8  C   UNL     1     -10.887  12.300  64.681  1.00  0.00    -0.308 A  
ENDROOT
BRANCH   8   9
HETATM    9  N   UNL     1     -10.360  10.985  64.824  1.00  0.00    -0.313 N  
HETATM   10  C   UNL     1     -10.492  10.231  65.980  1.00  0.00    -0.111 C  
HETATM   11  H   UNL     1      -9.860  10.576  64.035  1.00  0.00     0.000 HD 
HETATM   12  O   UNL     1     -11.066  10.604  67.001  1.00  0.00    -0.254 OA 
BRANCH  10  13
HETATM   13  C   UNL     1      -9.727   8.901  66.002  1.00  0.00    -0.238 C  
BRANCH  13  14
HETATM   14  N   UNL     1      -8.653   8.800  67.023  1.00  0.00    -0.115 NA 
HETATM   15  C   UNL     1      -7.404   9.403  66.479  1.00  0.00    -0.093 C  
HETATM   16  C   UNL     1      -7.380  10.956  66.397  1.00  0.00    -0.141 C  
HETATM   17  N   UNL     1      -7.783  11.658  67.632  1.00  0.00    -0.125 NA 
HETATM   18  C   UNL     1      -9.023  11.061  68.159  1.00  0.00    -0.152 C  
HETATM   19  C   UNL     1      -8.991   9.521  68.272  1.00  0.00    -0.124 C  
BRANCH  17  20
HETATM   20  C   UNL     1      -6.717  11.697  68.642  1.00  0.00    -0.074 C  
BRANCH  20  21
HETATM   21  C   UNL     1      -7.025  12.695  69.768  1.00  0.00     0.385 C  
BRANCH  21  22
HETATM   22  C   UNL     1      -6.774  14.165  69.393  1.00  0.00    -0.116 C  
HETATM   23  C   UNL     1      -7.807  14.768  68.404  1.00  0.00    -0.128 C  
HETATM   24  C   UNL     1      -7.408  16.152  67.888  1.00  0.00    -0.142 A  
HETATM   25  C   UNL     1      -9.207  14.738  69.013  1.00  0.00    -0.145 A  
HETATM   26  C   UNL     1      -9.508  15.480  70.169  1.00  0.00     0.275 A  
HETATM   27  C   UNL     1      -7.822  16.550  66.602  1.00  0.00    -0.321 A  
HETATM   28  C   UNL     1      -7.432  17.784  66.077  1.00  0.00    -0.284 A  
HETATM   29  C   UNL     1     -10.747  15.346  70.795  1.00  0.00    -0.205 A  
HETATM   30  C   UNL     1      -6.635  18.631  66.836  1.00  0.00    -0.188 A  
HETATM   31  C   UNL     1     -11.692  14.479  70.266  1.00  0.00    -0.293 A  
HETATM   32  F   UNL     1     -12.870  14.331  70.886  1.00  0.00    -0.360 F  
HETATM   33  C   UNL     1     -11.429  13.753  69.111  1.00  0.00    -0.346 A  
HETATM   34  F   UNL     1      -6.247  19.807  66.327  1.00  0.00    -0.177 F  
HETATM   35  C   UNL     1      -6.231  18.274  68.114  1.00  0.00    -0.183 A  
HETATM   36  C   UNL     1      -6.620  17.042  68.640  1.00  0.00    -0.177 A  
HETATM   37  C   UNL     1     -10.191  13.885  68.480  1.00  0.00    -0.240 A  
ENDBRANCH  21  22
ENDBRANCH  20  21
ENDBRANCH  17  20
ENDBRANCH  13  14
ENDBRANCH  10  13
ENDBRANCH   8   9
TORSDOF 6
ENDMDL
MODEL      244
REMARK 921   NORMALIZED FREE ENERGY PREDICTED BY IDOCK:   -0.17 KCAL/MOL
REMARK 922        TOTAL FREE ENERGY PREDICTED BY IDOCK:   -1.51 KCAL/MOL
REMARK 923 INTER-LIGAND FREE ENERGY PREDICTED BY IDOCK:   -5.47 KCAL/MOL
REMARK 924 INTRA-LIGAND FREE ENERGY PREDICTED BY IDOCK:    3.96 KCAL/MOL
REMARK 927      BINDING AFFINITY PREDICTED BY RF-SCORE:    0.00 PKD
ROOT
HETATM    1  C   UNL     1      -6.653   5.922  70.468  1.00  0.00    -0.047 C  
HETATM    2  C   UNL     1      -8.076   6.051  69.993  1.00  0.00    -0.114 A  
HETATM    3  C   UNL     1      -9.082   5.973  70.978  1.00  0.00    -0.150 A  
HETATM    4  C   UNL     1     -10.427   5.975  70.632  1.00  0.00    -0.305 A  
HETATM    5  C   UNL     1     -10.790   6.026  69.292  1.00  0.00    -0.428 A  
HETATM    6  C   UNL     1      -9.813   6.104  68.281  1.00  0.00    -0.138 A  
HETATM    7  C   UNL     1     -10.286   6.169  66.852  1.00  0.00    -0.263 C  
HETATM    8  C   UNL     1      -8.444   6.175  68.632  1.00  0.00    -0.114 A  
ENDROOT
BRANCH   8   9
HETATM    9  N   UNL     1      -7.487   6.337  67.590  1.00  0.00    -0.087 N  
HETATM   10  C   UNL     1      -6.232   6.893  67.786  1.00  0.00    -0.041 C  
HETATM   11  H   UNL     1      -7.738   6.028  66.651  1.00  0.00     0.000 HD 
HETATM   12  O   UNL     1      -5.806   7.307  68.862  1.00  0.00    -0.018 OA 
BRANCH  10  13
HETATM   13  C   UNL     1      -5.400   7.128  66.518  1.00  0.00    -0.023 C  
BRANCH  13  14
HETATM   14  N   UNL     1      -5.269   8.545  66.094  1.00  0.00    -0.030 NA 
HETATM   15  C   UNL     1      -6.269   8.829  65.027  1.00  0.00    -0.060 C  
HETATM   16  C   UNL     1      -7.746   8.953  65.496  1.00  0.00    -0.088 C  
HETATM   17  N   UNL     1      -7.968   9.852  66.646  1.00  0.00    -0.112 NA 
HETATM   18  C   UNL     1      -6.981   9.560  67.701  1.00  0.00    -0.080 C  
HETATM   19  C   UNL     1      -5.520   9.493  67.205  1.00  0.00    -0.036 C  
BRANCH  17  20
HETATM   20  C   UNL     1      -7.969  11.272  66.271  1.00  0.00    -0.086 C  
BRANCH  20  21
HETATM   21  C   UNL     1      -8.330  12.182  67.455  1.00  0.00    -0.166 C  
BRANCH  21  22
HETATM   22  C   UNL     1      -7.629  13.550  67.434  1.00  0.00    -0.140 C  
HETATM   23  C   UNL     1      -8.539  14.740  67.027  1.00  0.00    -0.260 C  
HETATM   24  C   UNL     1      -7.766  16.041  66.807  1.00  0.00    -0.270 A  
HETATM   25  C   UNL     1      -9.693  14.890  68.015  1.00  0.00    -0.212 A  
HETATM   26  C   UNL     1      -9.454  15.212  69.362  1.00  0.00    -0.185 A  
HETATM   27  C   UNL     1      -8.253  16.980  65.878  1.00  0.00    -0.004 A  
HETATM   28  C   UNL     1      -7.546  18.155  65.612  1.00  0.00     0.081 A  
HETATM   29  C   UNL     1     -10.497  15.218  70.287  1.00  0.00    -0.217 A  
HETATM   30  C   UNL     1      -6.353  18.402  66.281  1.00  0.00    -0.196 A  
HETATM   31  C   UNL     1     -11.784  14.911  69.870  1.00  0.00    -0.305 A  
HETATM   32  F   UNL     1     -12.780  14.889  70.766  1.00  0.00    -0.330 F  
HETATM   33  C   UNL     1     -12.053  14.613  68.540  1.00  0.00    -0.229 A  
HETATM   34  F   UNL     1      -5.666  19.521  66.015  1.00  0.00    -0.164 F  
HETATM   35  C   UNL     1      -5.862  17.505  67.217  1.00  0.00    -0.156 A  
HETATM   36  C   UNL     1      -6.568  16.332  67.483  1.00  0.00    -0.193 A  
HETATM   37  C   UNL     1     -11.011  14.607  67.611  1.00  0.00    -0.296 A  
ENDBRANCH  21  22
ENDBRANCH  20  21
ENDBRANCH  17  20
ENDBRANCH  13  14
ENDBRANCH  10  13
ENDBRANCH   8   9
TORSDOF 6
ENDMDL
MODEL      245
REMARK 921   NORMALIZED FREE ENERGY PREDICTED BY IDOCK:   -0.16 KCAL/MOL
REMARK 922        TOTAL FREE ENERGY PREDICTED BY IDOCK:   -1.49 KCAL/MOL
REMARK 923 INTER-LIGAND FREE ENERGY PREDICTED BY IDOCK:   -3.33 KCAL/MOL
REMARK 924 INTRA-LIGAND FREE ENERGY PREDICTED BY IDOCK:    1.84 KCAL/MOL
REMARK 927      BINDING AFFINITY PREDICTED BY RF-SCORE:    0.00 PKD
ROOT
HETATM    1  C   UNL     1      -9.818   7.804  69.801  1.00  0.00    -0.178 C  
HETATM    2  C   UNL     1     -10.355   6.793  70.780  1.00  0.00    -0.227 A  
HETATM    3  C   UNL     1     -11.009   7.302  71.920  1.00  0.00    -0.260 A  
HETATM    4  C   UNL     1     -11.447   6.457  72.933  1.00  0.00    -0.107 A  
HETATM    5  C   UNL     1     -11.212   5.091  72.836  1.00  0.00    -0.344 A  
HETATM    6  C   UNL     1     -10.561   4.548  71.712  1.00  0.00    -0.029 A  
HETATM    7  C   UNL     1     -10.354   3.057  71.674  1.00  0.00     0.238 C  
HETATM    8  C   UNL     1     -10.177   5.395  70.646  1.00  0.00    -0.253 A  
ENDROOT
BRANCH   8   9
HETATM    9  N   UNL     1      -9.596   4.804  69.488  1.00  0.00    -0.161 N  
HETATM   10  C   UNL     1      -8.238   4.560  69.355  1.00  0.00    -0.068 C  
HETATM   11  H   UNL     1     -10.212   4.546  68.717  1.00  0.00     0.000 HD 
HETATM   12  O   UNL     1      -7.389   4.825  70.203  1.00  0.00    -0.052 OA 
BRANCH  10  13
HETATM   13  C   UNL     1      -7.780   4.061  67.977  1.00  0.00    -0.067 C  
BRANCH  13  14
HETATM   14  N   UNL     1      -6.532   4.677  67.458  1.00  0.00    -0.044 NA 
HETATM   15  C   UNL     1      -6.805   5.280  66.123  1.00  0.00    -0.058 C  
HETATM   16  C   UNL     1      -7.626   6.600  66.130  1.00  0.00    -0.086 C  
HETATM   17  N   UNL     1      -7.142   7.638  67.063  1.00  0.00    -0.082 NA 
HETATM   18  C   UNL     1      -6.883   7.035  68.382  1.00  0.00    -0.074 C  
HETATM   19  C   UNL     1      -6.023   5.753  68.340  1.00  0.00    -0.020 C  
BRANCH  17  20
HETATM   20  C   UNL     1      -5.974   8.368  66.551  1.00  0.00    -0.049 C  
BRANCH  20  21
HETATM   21  C   UNL     1      -5.671   9.625  67.380  1.00  0.00    -0.040 C  
BRANCH  21  22
HETATM   22  C   UNL     1      -6.922  10.337  67.923  1.00  0.00    -0.083 C  
HETATM   23  C   UNL     1      -7.583  11.332  66.933  1.00  0.00    -0.148 C  
HETATM   24  C   UNL     1      -8.686  12.177  67.575  1.00  0.00    -0.173 A  
HETATM   25  C   UNL     1      -8.046  10.602  65.674  1.00  0.00    -0.146 A  
HETATM   26  C   UNL     1      -9.045   9.616  65.737  1.00  0.00    -0.230 A  
HETATM   27  C   UNL     1      -8.931  13.473  67.084  1.00  0.00    -0.230 A  
HETATM   28  C   UNL     1      -9.892  14.293  67.679  1.00  0.00    -0.224 A  
HETATM   29  C   UNL     1      -9.370   8.861  64.611  1.00  0.00     0.351 A  
HETATM   30  C   UNL     1     -10.621  13.817  68.762  1.00  0.00    -0.239 A  
HETATM   31  C   UNL     1      -8.706   9.094  63.415  1.00  0.00    -0.129 A  
HETATM   32  F   UNL     1      -8.999   8.348  62.342  1.00  0.00    -0.154 F  
HETATM   33  C   UNL     1      -7.731  10.080  63.319  1.00  0.00    -0.147 A  
HETATM   34  F   UNL     1     -11.532  14.608  69.345  1.00  0.00    -0.252 F  
HETATM   35  C   UNL     1     -10.416  12.537  69.252  1.00  0.00     0.187 A  
HETATM   36  C   UNL     1      -9.456  11.718  68.658  1.00  0.00    -0.107 A  
HETATM   37  C   UNL     1      -7.404  10.838  64.444  1.00  0.00     0.354 A  
ENDBRANCH  21  22
ENDBRANCH  20  21
ENDBRANCH  17  20
ENDBRANCH  13  14
ENDBRANCH  10  13
ENDBRANCH   8   9
TORSDOF 6
ENDMDL
MODEL      246
REMARK 921   NORMALIZED FREE ENERGY PREDICTED BY IDOCK:   -0.14 KCAL/MOL
REMARK 922        TOTAL FREE ENERGY PREDICTED BY IDOCK:   -1.46 KCAL/MOL
REMARK 923 INTER-LIGAND FREE ENERGY PREDICTED BY IDOCK:   -6.40 KCAL/MOL
REMARK 924 INTRA-LIGAND FREE ENERGY PREDICTED BY IDOCK:    4.94 KCAL/MOL
REMARK 927      BINDING AFFINITY PREDICTED BY RF-SCORE:    0.00 PKD
ROOT
HETATM    1  C   UNL     1      -8.106  15.148  67.907  1.00  0.00    -0.144 C  
HETATM    2  C   UNL     1      -8.985  16.255  67.386  1.00  0.00    -0.197 A  
HETATM    3  C   UNL     1      -9.137  17.385  68.214  1.00  0.00    -0.272 A  
HETATM    4  C   UNL     1     -10.008  18.412  67.873  1.00  0.00    -0.370 A  
HETATM    5  C   UNL     1     -10.765  18.312  66.713  1.00  0.00    -0.247 A  
HETATM    6  C   UNL     1     -10.640  17.197  65.862  1.00  0.00    -0.219 A  
HETATM    7  C   UNL     1     -11.484  17.168  64.615  1.00  0.00     0.964 C  
HETATM    8  C   UNL     1      -9.701  16.183  66.168  1.00  0.00    -0.323 A  
ENDROOT
BRANCH   8   9
HETATM    9  N   UNL     1      -9.540  15.112  65.245  1.00  0.00    -0.344 N  
HETATM   10  C   UNL     1     -10.598  14.367  64.747  1.00  0.00    -0.393 C  
HETATM   11  H   UNL     1      -8.597  14.879  64.934  1.00  0.00     0.000 HD 
HETATM   12  O   UNL     1     -11.779  14.539  65.040  1.00  0.00    -0.362 OA 
BRANCH  10  13
HETATM   13  C   UNL     1     -10.216  13.155  63.885  1.00  0.00     0.152 C  
BRANCH  13  14
HETATM   14  N   UNL     1     -10.131  11.861  64.608  1.00  0.00    -0.268 NA 
HETATM   15  C   UNL     1      -9.299  12.039  65.831  1.00  0.00    -0.157 C  
HETATM   16  C   UNL     1      -9.968  12.814  67.000  1.00  0.00    -0.231 C  
HETATM   17  N   UNL     1     -11.319  12.348  67.373  1.00  0.00    -0.300 NA 
HETATM   18  C   UNL     1     -12.138  12.182  66.160  1.00  0.00     0.015 C  
HETATM   19  C   UNL     1     -11.459  11.365  65.039  1.00  0.00     0.059 C  
BRANCH  17  20
HETATM   20  C   UNL     1     -11.298  11.130  68.195  1.00  0.00    -0.309 C  
BRANCH  20  21
HETATM   21  C   UNL     1      -9.986  10.348  68.035  1.00  0.00    -0.178 C  
BRANCH  21  22
HETATM   22  C   UNL     1     -10.158   8.948  67.422  1.00  0.00    -0.288 C  
HETATM   23  C   UNL     1      -9.361   7.825  68.135  1.00  0.00    -0.148 C  
HETATM   24  C   UNL     1      -9.382   6.496  67.376  1.00  0.00    -0.125 A  
HETATM   25  C   UNL     1      -9.813   7.691  69.587  1.00  0.00    -0.181 A  
HETATM   26  C   UNL     1     -11.126   7.300  69.902  1.00  0.00    -0.233 A  
HETATM   27  C   UNL     1      -8.284   5.623  67.490  1.00  0.00    -0.101 A  
HETATM   28  C   UNL     1      -8.245   4.427  66.770  1.00  0.00    -0.102 A  
HETATM   29  C   UNL     1     -11.572   7.307  71.223  1.00  0.00    -0.316 A  
HETATM   30  C   UNL     1      -9.308   4.092  65.940  1.00  0.00    -0.163 A  
HETATM   31  C   UNL     1     -10.707   7.695  72.236  1.00  0.00    -0.260 A  
HETATM   32  F   UNL     1     -11.146   7.729  73.500  1.00  0.00    -0.415 F  
HETATM   33  C   UNL     1      -9.396   8.062  71.955  1.00  0.00    -0.237 A  
HETATM   34  F   UNL     1      -9.265   2.953  65.237  1.00  0.00    -0.136 F  
HETATM   35  C   UNL     1     -10.412   4.923  65.827  1.00  0.00    -0.227 A  
HETATM   36  C   UNL     1     -10.452   6.118  66.546  1.00  0.00    -0.195 A  
HETATM   37  C   UNL     1      -8.946   8.055  70.634  1.00  0.00    -0.148 A  
ENDBRANCH  21  22
ENDBRANCH  20  21
ENDBRANCH  17  20
ENDBRANCH  13  14
ENDBRANCH  10  13
ENDBRANCH   8   9
TORSDOF 6
ENDMDL
MODEL      247
REMARK 921   NORMALIZED FREE ENERGY PREDICTED BY IDOCK:   -0.00 KCAL/MOL
REMARK 922        TOTAL FREE ENERGY PREDICTED BY IDOCK:   -1.28 KCAL/MOL
REMARK 923 INTER-LIGAND FREE ENERGY PREDICTED BY IDOCK:   -1.82 KCAL/MOL
REMARK 924 INTRA-LIGAND FREE ENERGY PREDICTED BY IDOCK:    0.55 KCAL/MOL
REMARK 927      BINDING AFFINITY PREDICTED BY RF-SCORE:    0.00 PKD
ROOT
HETATM    1  C   UNL     1      -8.268   3.888  70.904  1.00  0.00    -0.077 C  
HETATM    2  C   UNL     1      -9.191   4.927  71.484  1.00  0.00    -0.185 A  
HETATM    3  C   UNL     1     -10.272   4.454  72.255  1.00  0.00    -0.255 A  
HETATM    4  C   UNL     1     -11.238   5.323  72.746  1.00  0.00    -0.347 A  
HETATM    5  C   UNL     1     -11.157   6.678  72.448  1.00  0.00    -0.294 A  
HETATM    6  C   UNL     1     -10.092   7.185  71.679  1.00  0.00    -0.197 A  
HETATM    7  C   UNL     1     -10.066   8.667  71.410  1.00  0.00    -0.325 C  
HETATM    8  C   UNL     1      -9.067   6.315  71.238  1.00  0.00    -0.146 A  
ENDROOT
BRANCH   8   9
HETATM    9  N   UNL     1      -7.963   6.874  70.535  1.00  0.00    -0.112 N  
HETATM   10  C   UNL     1      -7.834   6.829  69.155  1.00  0.00    -0.111 C  
HETATM   11  H   UNL     1      -7.227   7.331  71.074  1.00  0.00     0.000 HD 
HETATM   12  O   UNL     1      -8.643   6.308  68.390  1.00  0.00    -0.114 OA 
BRANCH  10  13
HETATM   13  C   UNL     1      -6.503   7.346  68.590  1.00  0.00    -0.044 C  
BRANCH  13  14
HETATM   14  N   UNL     1      -6.610   8.497  67.659  1.00  0.00    -0.061 NA 
HETATM   15  C   UNL     1      -8.024   8.965  67.622  1.00  0.00    -0.102 C  
HETATM   16  C   UNL     1      -8.514   9.745  68.873  1.00  0.00    -0.129 C  
HETATM   17  N   UNL     1      -7.632  10.843  69.316  1.00  0.00    -0.131 NA 
HETATM   18  C   UNL     1      -6.237  10.371  69.359  1.00  0.00    -0.049 C  
HETATM   19  C   UNL     1      -5.770   9.644  68.079  1.00  0.00    -0.040 C  
BRANCH  17  20
HETATM   20  C   UNL     1      -7.778  12.058  68.504  1.00  0.00    -0.127 C  
BRANCH  20  21
HETATM   21  C   UNL     1      -8.293  13.246  69.330  1.00  0.00     0.731 C  
BRANCH  21  22
HETATM   22  C   UNL     1      -7.578  14.576  69.034  1.00  0.00    -0.124 C  
HETATM   23  C   UNL     1      -8.303  15.490  68.012  1.00  0.00    -0.142 C  
HETATM   24  C   UNL     1      -7.464  16.695  67.581  1.00  0.00    -0.168 A  
HETATM   25  C   UNL     1      -9.685  15.880  68.533  1.00  0.00    -0.211 A  
HETATM   26  C   UNL     1      -9.826  16.652  69.700  1.00  0.00     0.066 A  
HETATM   27  C   UNL     1      -7.645  17.230  66.292  1.00  0.00    -0.360 A  
HETATM   28  C   UNL     1      -6.859  18.295  65.845  1.00  0.00    -0.325 A  
HETATM   29  C   UNL     1     -11.087  16.893  70.244  1.00  0.00     0.303 A  
HETATM   30  C   UNL     1      -5.897  18.838  66.687  1.00  0.00    -0.150 A  
HETATM   31  C   UNL     1     -12.212  16.372  69.621  1.00  0.00     0.675 A  
HETATM   32  F   UNL     1     -13.420  16.580  70.162  1.00  0.00     1.452 F  
HETATM   33  C   UNL     1     -12.103  15.626  68.454  1.00  0.00     0.063 A  
HETATM   34  F   UNL     1      -5.132  19.849  66.254  1.00  0.00    -0.160 F  
HETATM   35  C   UNL     1      -5.714  18.345  67.970  1.00  0.00    -0.165 A  
HETATM   36  C   UNL     1      -6.498  17.281  68.417  1.00  0.00    -0.164 A  
HETATM   37  C   UNL     1     -10.843  15.384  67.906  1.00  0.00    -0.300 A  
ENDBRANCH  21  22
ENDBRANCH  20  21
ENDBRANCH  17  20
ENDBRANCH  13  14
ENDBRANCH  10  13
ENDBRANCH   8   9
TORSDOF 6
ENDMDL
MODEL      248
REMARK 921   NORMALIZED FREE ENERGY PREDICTED BY IDOCK:    0.21 KCAL/MOL
REMARK 922        TOTAL FREE ENERGY PREDICTED BY IDOCK:   -0.98 KCAL/MOL
REMARK 923 INTER-LIGAND FREE ENERGY PREDICTED BY IDOCK:   -6.13 KCAL/MOL
REMARK 924 INTRA-LIGAND FREE ENERGY PREDICTED BY IDOCK:    5.15 KCAL/MOL
REMARK 927      BINDING AFFINITY PREDICTED BY RF-SCORE:    0.00 PKD
ROOT
HETATM    1  C   UNL     1      -5.178  10.802  71.611  1.00  0.00     0.023 C  
HETATM    2  C   UNL     1      -6.070  10.528  70.429  1.00  0.00    -0.125 A  
HETATM    3  C   UNL     1      -6.470   9.190  70.234  1.00  0.00    -0.050 A  
HETATM    4  C   UNL     1      -7.205   8.816  69.116  1.00  0.00    -0.067 A  
HETATM    5  C   UNL     1      -7.527   9.769  68.157  1.00  0.00    -0.081 A  
HETATM    6  C   UNL     1      -7.144  11.114  68.318  1.00  0.00    -0.073 A  
HETATM    7  C   UNL     1      -7.543  12.090  67.243  1.00  0.00    -0.157 C  
HETATM    8  C   UNL     1      -6.458  11.513  69.490  1.00  0.00    -0.124 A  
ENDROOT
BRANCH   8   9
HETATM    9  N   UNL     1      -6.159  12.895  69.660  1.00  0.00    -0.117 N  
HETATM   10  C   UNL     1      -5.552  13.671  68.684  1.00  0.00    -0.084 C  
HETATM   11  H   UNL     1      -6.403  13.337  70.546  1.00  0.00     0.000 HD 
HETATM   12  O   UNL     1      -5.204  13.264  67.577  1.00  0.00    -0.285 OA 
BRANCH  10  13
HETATM   13  C   UNL     1      -5.169  15.096  69.106  1.00  0.00    -0.094 C  
BRANCH  13  14
HETATM   14  N   UNL     1      -6.296  16.058  69.202  1.00  0.00    -0.141 NA 
HETATM   15  C   UNL     1      -6.520  16.681  67.868  1.00  0.00    -0.136 C  
HETATM   16  C   UNL     1      -7.194  15.775  66.799  1.00  0.00     0.033 C  
HETATM   17  N   UNL     1      -8.419  15.082  67.244  1.00  0.00    -0.184 NA 
HETATM   18  C   UNL     1      -8.187  14.460  68.559  1.00  0.00    -0.151 C  
HETATM   19  C   UNL     1      -7.563  15.405  69.609  1.00  0.00    -0.165 C  
BRANCH  17  20
HETATM   20  C   UNL     1      -9.602  15.953  67.246  1.00  0.00    -0.217 C  
BRANCH  20  21
HETATM   21  C   UNL     1     -10.532  15.661  68.433  1.00  0.00    -0.242 C  
BRANCH  21  22
HETATM   22  C   UNL     1     -10.447  14.218  68.958  1.00  0.00    -0.212 C  
HETATM   23  C   UNL     1     -11.666  13.325  68.605  1.00  0.00    -0.376 C  
HETATM   24  C   UNL     1     -11.649  11.973  69.322  1.00  0.00    -0.380 A  
HETATM   25  C   UNL     1     -11.812  13.198  67.091  1.00  0.00    -0.424 A  
HETATM   26  C   UNL     1     -10.818  12.573  66.319  1.00  0.00    -0.299 A  
HETATM   27  C   UNL     1     -12.871  11.347  69.634  1.00  0.00     0.374 A  
HETATM   28  C   UNL     1     -12.895  10.139  70.334  1.00  0.00    -0.155 A  
HETATM   29  C   UNL     1     -10.893  12.576  64.927  1.00  0.00    -0.327 A  
HETATM   30  C   UNL     1     -11.699   9.545  70.717  1.00  0.00    -0.298 A  
HETATM   31  C   UNL     1     -11.965  13.195  64.300  1.00  0.00    -0.411 A  
HETATM   32  F   UNL     1     -12.020  13.222  62.962  1.00  0.00    -0.576 F  
HETATM   33  C   UNL     1     -12.974  13.798  65.040  1.00  0.00    -0.213 A  
HETATM   34  F   UNL     1     -11.722   8.394  71.403  1.00  0.00    -0.276 F  
HETATM   35  C   UNL     1     -10.482  10.128  70.403  1.00  0.00    -0.237 A  
HETATM   36  C   UNL     1     -10.456  11.335  69.703  1.00  0.00     0.081 A  
HETATM   37  C   UNL     1     -12.903  13.796  66.434  1.00  0.00     0.034 A  
ENDBRANCH  21  22
ENDBRANCH  20  21
ENDBRANCH  17  20
ENDBRANCH  13  14
ENDBRANCH  10  13
ENDBRANCH   8   9
TORSDOF 6
ENDMDL
MODEL      249
REMARK 921   NORMALIZED FREE ENERGY PREDICTED BY IDOCK:    0.30 KCAL/MOL
REMARK 922        TOTAL FREE ENERGY PREDICTED BY IDOCK:   -0.87 KCAL/MOL
REMARK 923 INTER-LIGAND FREE ENERGY PREDICTED BY IDOCK:   -4.47 KCAL/MOL
REMARK 924 INTRA-LIGAND FREE ENERGY PREDICTED BY IDOCK:    3.60 KCAL/MOL
REMARK 927      BINDING AFFINITY PREDICTED BY RF-SCORE:    0.00 PKD
ROOT
HETATM    1  C   UNL     1     -11.944  11.414  64.526  1.00  0.00     0.221 C  
HETATM    2  C   UNL     1     -10.513  11.156  64.915  1.00  0.00    -0.372 A  
HETATM    3  C   UNL     1      -9.593  10.974  63.862  1.00  0.00    -0.309 A  
HETATM    4  C   UNL     1      -8.272  10.628  64.115  1.00  0.00     0.020 A  
HETATM    5  C   UNL     1      -7.854  10.427  65.424  1.00  0.00    -0.143 A  
HETATM    6  C   UNL     1      -8.745  10.598  66.501  1.00  0.00    -0.151 A  
HETATM    7  C   UNL     1      -8.214  10.376  67.893  1.00  0.00    -0.106 C  
HETATM    8  C   UNL     1     -10.072  11.021  66.253  1.00  0.00    -0.235 A  
ENDROOT
BRANCH   8   9
HETATM    9  N   UNL     1     -10.923  11.266  67.369  1.00  0.00    -0.264 N  
HETATM   10  C   UNL     1     -11.158  10.334  68.368  1.00  0.00    -0.247 C  
HETATM   11  H   UNL     1     -11.383  12.173  67.436  1.00  0.00     0.000 HD 
HETATM   12  O   UNL     1     -10.672   9.206  68.407  1.00  0.00    -0.194 OA 
BRANCH  10  13
HETATM   13  C   UNL     1     -12.223  10.720  69.404  1.00  0.00    -0.171 C  
BRANCH  13  14
HETATM   14  N   UNL     1     -12.014  10.171  70.768  1.00  0.00    -0.322 NA 
HETATM   15  C   UNL     1     -13.326  10.099  71.471  1.00  0.00    -0.341 C  
HETATM   16  C   UNL     1     -14.284   8.966  71.005  1.00  0.00     0.119 C  
HETATM   17  N   UNL     1     -13.678   7.622  70.927  1.00  0.00     0.030 NA 
HETATM   18  C   UNL     1     -12.386   7.700  70.223  1.00  0.00     0.468 C  
HETATM   19  C   UNL     1     -11.441   8.805  70.746  1.00  0.00    -0.270 C  
BRANCH  17  20
HETATM   20  C   UNL     1     -13.553   6.973  72.239  1.00  0.00     0.218 C  
BRANCH  20  21
HETATM   21  C   UNL     1     -12.360   6.007  72.294  1.00  0.00    -0.042 C  
BRANCH  21  22
HETATM   22  C   UNL     1     -10.995   6.700  72.438  1.00  0.00    -0.277 C  
HETATM   23  C   UNL     1      -9.835   5.766  72.874  1.00  0.00    -0.174 C  
HETATM   24  C   UNL     1      -8.549   6.522  73.215  1.00  0.00    -0.127 A  
HETATM   25  C   UNL     1      -9.623   4.662  71.841  1.00  0.00    -0.210 A  
HETATM   26  C   UNL     1      -9.215   4.968  70.531  1.00  0.00    -0.195 A  
HETATM   27  C   UNL     1      -7.672   5.985  74.177  1.00  0.00    -0.097 A  
HETATM   28  C   UNL     1      -6.516   6.673  74.552  1.00  0.00    -0.080 A  
HETATM   29  C   UNL     1      -9.150   3.972  69.557  1.00  0.00    -0.190 A  
HETATM   30  C   UNL     1      -6.226   7.897  73.962  1.00  0.00    -0.091 A  
HETATM   31  C   UNL     1      -9.485   2.667  69.888  1.00  0.00    -0.081 A  
HETATM   32  F   UNL     1      -9.451   1.718  68.944  1.00  0.00    -0.173 F  
HETATM   33  C   UNL     1      -9.868   2.333  71.182  1.00  0.00    -0.106 A  
HETATM   34  F   UNL     1      -5.126   8.565  74.333  1.00  0.00    -0.068 F  
HETATM   35  C   UNL     1      -7.060   8.438  72.996  1.00  0.00    -0.111 A  
HETATM   36  C   UNL     1      -8.215   7.751  72.620  1.00  0.00    -0.171 A  
HETATM   37  C   UNL     1      -9.932   3.327  72.160  1.00  0.00    -0.231 A  
ENDBRANCH  21  22
ENDBRANCH  20  21
ENDBRANCH  17  20
ENDBRANCH  13  14
ENDBRANCH  10  13
ENDBRANCH   8   9
TORSDOF 6
ENDMDL
MODEL      250
REMARK 921   NORMALIZED FREE ENERGY PREDICTED BY IDOCK:    0.43 KCAL/MOL
REMARK 922        TOTAL FREE ENERGY PREDICTED BY IDOCK:   -0.70 KCAL/MOL
REMARK 923 INTER-LIGAND FREE ENERGY PREDICTED BY IDOCK:   -2.10 KCAL/MOL
REMARK 924 INTRA-LIGAND FREE ENERGY PREDICTED BY IDOCK:    1.40 KCAL/MOL
REMARK 927      BINDING AFFINITY PREDICTED BY RF-SCORE:    0.00 PKD
ROOT
HETATM    1  C   UNL     1     -10.628  11.145  68.972  1.00  0.00    -0.251 C  
HETATM    2  C   UNL     1     -10.833  12.513  69.568  1.00  0.00     0.134 A  
HETATM    3  C   UNL     1     -11.799  12.621  70.590  1.00  0.00    -0.016 A  
HETATM    4  C   UNL     1     -12.138  13.855  71.130  1.00  0.00    -0.320 A  
HETATM    5  C   UNL     1     -11.538  15.007  70.637  1.00  0.00    -0.358 A  
HETATM    6  C   UNL     1     -10.570  14.938  69.617  1.00  0.00    -0.213 A  
HETATM    7  C   UNL     1      -9.956  16.230  69.146  1.00  0.00    -0.260 C  
HETATM    8  C   UNL     1     -10.170  13.678  69.114  1.00  0.00     0.118 A  
ENDROOT
BRANCH   8   9
HETATM    9  N   UNL     1      -9.130  13.638  68.142  1.00  0.00    -0.191 N  
HETATM   10  C   UNL     1      -7.899  13.040  68.365  1.00  0.00    -0.134 C  
HETATM   11  H   UNL     1      -9.299  14.073  67.235  1.00  0.00     0.000 HD 
HETATM   12  O   UNL     1      -7.565  12.486  69.410  1.00  0.00     0.263 OA 
BRANCH  10  13
HETATM   13  C   UNL     1      -6.852  13.233  67.259  1.00  0.00     0.051 C  
BRANCH  13  14
HETATM   14  N   UNL     1      -6.585  12.039  66.418  1.00  0.00     0.188 NA 
HETATM   15  C   UNL     1      -5.450  11.273  67.005  1.00  0.00    -0.085 C  
HETATM   16  C   UNL     1      -5.768  10.472  68.298  1.00  0.00    -0.040 C  
HETATM   17  N   UNL     1      -6.970   9.617  68.229  1.00  0.00    -0.073 NA 
HETATM   18  C   UNL     1      -8.090  10.383  67.656  1.00  0.00    -0.107 C  
HETATM   19  C   UNL     1      -7.750  11.126  66.346  1.00  0.00    -0.124 C  
BRANCH  17  20
HETATM   20  C   UNL     1      -6.737   8.358  67.509  1.00  0.00    -0.063 C  
BRANCH  20  21
HETATM   21  C   UNL     1      -6.650   7.156  68.460  1.00  0.00    -0.048 C  
BRANCH  21  22
HETATM   22  C   UNL     1      -7.882   6.977  69.363  1.00  0.00    -0.113 C  
HETATM   23  C   UNL     1      -9.239   6.947  68.611  1.00  0.00    -0.130 C  
HETATM   24  C   UNL     1     -10.448   6.986  69.548  1.00  0.00    -0.235 A  
HETATM   25  C   UNL     1      -9.280   5.777  67.632  1.00  0.00    -0.105 A  
HETATM   26  C   UNL     1      -9.223   4.449  68.090  1.00  0.00    -0.178 A  
HETATM   27  C   UNL     1     -11.642   7.583  69.103  1.00  0.00     0.647 A  
HETATM   28  C   UNL     1     -12.749   7.685  69.949  1.00  0.00     1.632 A  
HETATM   29  C   UNL     1      -9.127   3.390  67.188  1.00  0.00    -0.196 A  
HETATM   30  C   UNL     1     -12.671   7.181  71.242  1.00  0.00    -0.366 A  
HETATM   31  C   UNL     1      -9.096   3.651  65.825  1.00  0.00    -0.152 A  
HETATM   32  F   UNL     1      -8.975   2.635  64.962  1.00  0.00    -0.110 F  
HETATM   33  C   UNL     1      -9.176   4.952  65.345  1.00  0.00    -0.157 A  
HETATM   34  F   UNL     1     -13.726   7.292  72.060  1.00  0.00    -0.347 F  
HETATM   35  C   UNL     1     -11.514   6.568  71.699  1.00  0.00    -0.345 A  
HETATM   36  C   UNL     1     -10.409   6.466  70.854  1.00  0.00    -0.246 A  
HETATM   37  C   UNL     1      -9.274   6.015  66.244  1.00  0.00    -0.168 A  
ENDBRANCH  21  22
ENDBRANCH  20  21
ENDBRANCH  17  20
ENDBRANCH  13  14
ENDBRANCH  10  13
ENDBRANCH   8   9
TORSDOF 6
ENDMDL
MODEL      251
REMARK 921   NORMALIZED FREE ENERGY PREDICTED BY IDOCK:    0.68 KCAL/MOL
REMARK 922        TOTAL FREE ENERGY PREDICTED BY IDOCK:   -0.36 KCAL/MOL
REMARK 923 INTER-LIGAND FREE ENERGY PREDICTED BY IDOCK:   -2.55 KCAL/MOL
REMARK 924 INTRA-LIGAND FREE ENERGY PREDICTED BY IDOCK:    2.19 KCAL/MOL
REMARK 927      BINDING AFFINITY PREDICTED BY RF-SCORE:    0.00 PKD
ROOT
HETATM    1  C   UNL     1      -7.816  14.940  69.221  1.00  0.00    -0.158 C  
HETATM    2  C   UNL     1      -9.279  14.762  68.912  1.00  0.00    -0.177 A  
HETATM    3  C   UNL     1     -10.184  15.531  69.671  1.00  0.00    -0.289 A  
HETATM    4  C   UNL     1     -11.557  15.363  69.537  1.00  0.00    -0.346 A  
HETATM    5  C   UNL     1     -12.048  14.402  68.663  1.00  0.00    -0.274 A  
HETATM    6  C   UNL     1     -11.174  13.615  67.889  1.00  0.00    -0.300 A  
HETATM    7  C   UNL     1     -11.783  12.603  66.954  1.00  0.00    -0.453 C  
HETATM    8  C   UNL     1      -9.777  13.832  67.969  1.00  0.00    -0.232 A  
ENDROOT
BRANCH   8   9
HETATM    9  N   UNL     1      -8.927  13.077  67.113  1.00  0.00    -0.216 N  
HETATM   10  C   UNL     1      -9.148  12.931  65.752  1.00  0.00     0.370 C  
HETATM   11  H   UNL     1      -8.112  12.619  67.522  1.00  0.00     0.000 HD 
HETATM   12  O   UNL     1     -10.089  13.425  65.135  1.00  0.00    -0.301 OA 
BRANCH  10  13
HETATM   13  C   UNL     1      -8.213  11.955  65.024  1.00  0.00     1.474 C  
BRANCH  13  14
HETATM   14  N   UNL     1      -8.380  10.524  65.383  1.00  0.00    -0.166 NA 
HETATM   15  C   UNL     1      -7.614   9.687  64.418  1.00  0.00    -0.128 C  
HETATM   16  C   UNL     1      -6.068   9.699  64.587  1.00  0.00    -0.087 C  
HETATM   17  N   UNL     1      -5.583   9.458  65.961  1.00  0.00    -0.044 NA 
HETATM   18  C   UNL     1      -6.339  10.296  66.907  1.00  0.00    -0.069 C  
HETATM   19  C   UNL     1      -7.873  10.220  66.742  1.00  0.00    -0.114 C  
BRANCH  17  20
HETATM   20  C   UNL     1      -5.610   8.038  66.337  1.00  0.00    -0.032 C  
BRANCH  20  21
HETATM   21  C   UNL     1      -6.983   7.611  66.876  1.00  0.00    -0.079 C  
BRANCH  21  22
HETATM   22  C   UNL     1      -6.921   6.541  67.979  1.00  0.00    -0.077 C  
HETATM   23  C   UNL     1      -8.280   6.232  68.662  1.00  0.00    -0.112 C  
HETATM   24  C   UNL     1      -8.145   5.331  69.891  1.00  0.00    -0.084 A  
HETATM   25  C   UNL     1      -9.281   5.702  67.639  1.00  0.00    -0.106 A  
HETATM   26  C   UNL     1      -9.058   4.485  66.973  1.00  0.00    -0.133 A  
HETATM   27  C   UNL     1      -9.073   5.460  70.942  1.00  0.00    -0.164 A  
HETATM   28  C   UNL     1      -8.949   4.692  72.102  1.00  0.00    -0.143 A  
HETATM   29  C   UNL     1      -9.906   4.071  65.946  1.00  0.00    -0.179 A  
HETATM   30  C   UNL     1      -7.905   3.783  72.214  1.00  0.00    -0.068 A  
HETATM   31  C   UNL     1     -10.985   4.865  65.587  1.00  0.00     0.068 A  
HETATM   32  F   UNL     1     -11.781   4.480  64.581  1.00  0.00    -0.062 F  
HETATM   33  C   UNL     1     -11.243   6.061  66.246  1.00  0.00     0.541 A  
HETATM   34  F   UNL     1      -7.776   3.057  73.332  1.00  0.00    -0.051 F  
HETATM   35  C   UNL     1      -6.990   3.620  71.185  1.00  0.00    -0.032 A  
HETATM   36  C   UNL     1      -7.112   4.386  70.026  1.00  0.00    -0.045 A  
HETATM   37  C   UNL     1     -10.397   6.478  67.274  1.00  0.00    -0.283 A  
ENDBRANCH  21  22
ENDBRANCH  20  21
ENDBRANCH  17  20
ENDBRANCH  13  14
ENDBRANCH  10  13
ENDBRANCH   8   9
TORSDOF 6
ENDMDL
MODEL      252
REMARK 921   NORMALIZED FREE ENERGY PREDICTED BY IDOCK:    0.88 KCAL/MOL
REMARK 922        TOTAL FREE ENERGY PREDICTED BY IDOCK:   -0.08 KCAL/MOL
REMARK 923 INTER-LIGAND FREE ENERGY PREDICTED BY IDOCK:   -5.43 KCAL/MOL
REMARK 924 INTRA-LIGAND FREE ENERGY PREDICTED BY IDOCK:    5.35 KCAL/MOL
REMARK 927      BINDING AFFINITY PREDICTED BY RF-SCORE:    0.00 PKD
ROOT
HETATM    1  C   UNL     1      -8.317  14.652  67.909  1.00  0.00    -0.153 C  
HETATM    2  C   UNL     1      -9.168  15.189  66.789  1.00  0.00    -0.277 A  
HETATM    3  C   UNL     1      -9.293  16.590  66.705  1.00  0.00    -0.279 A  
HETATM    4  C   UNL     1     -10.139  17.181  65.773  1.00  0.00    -0.192 A  
HETATM    5  C   UNL     1     -10.896  16.378  64.930  1.00  0.00    -0.268 A  
HETATM    6  C   UNL     1     -10.797  14.975  64.986  1.00  0.00    -0.439 A  
HETATM    7  C   UNL     1     -11.640  14.174  64.029  1.00  0.00    -0.151 C  
HETATM    8  C   UNL     1      -9.884  14.371  65.883  1.00  0.00    -0.310 A  
ENDROOT
BRANCH   8   9
HETATM    9  N   UNL     1      -9.748  12.954  65.856  1.00  0.00    -0.395 N  
HETATM   10  C   UNL     1     -10.133  12.170  64.779  1.00  0.00    -0.251 C  
HETATM   11  H   UNL     1      -9.347  12.492  66.672  1.00  0.00     0.000 HD 
HETATM   12  O   UNL     1     -10.632  12.598  63.740  1.00  0.00    -0.417 OA 
BRANCH  10  13
HETATM   13  C   UNL     1     -10.054  10.652  64.995  1.00  0.00    -0.321 C  
BRANCH  13  14
HETATM   14  N   UNL     1      -9.166  10.211  66.100  1.00  0.00    -0.154 NA 
HETATM   15  C   UNL     1      -9.957   9.399  67.067  1.00  0.00    -0.221 C  
HETATM   16  C   UNL     1     -10.332   7.964  66.601  1.00  0.00    -0.200 C  
HETATM   17  N   UNL     1      -9.213   7.163  66.067  1.00  0.00    -0.083 NA 
HETATM   18  C   UNL     1      -8.441   7.969  65.106  1.00  0.00    -0.100 C  
HETATM   19  C   UNL     1      -8.044   9.370  65.622  1.00  0.00    -0.112 C  
BRANCH  17  20
HETATM   20  C   UNL     1      -8.361   6.596  67.121  1.00  0.00    -0.113 C  
BRANCH  20  21
HETATM   21  C   UNL     1      -8.707   5.129  67.416  1.00  0.00    -0.103 C  
BRANCH  21  22
HETATM   22  C   UNL     1      -8.475   4.710  68.878  1.00  0.00    -0.088 C  
HETATM   23  C   UNL     1      -7.156   5.237  69.503  1.00  0.00    -0.060 C  
HETATM   24  C   UNL     1      -6.855   4.628  70.873  1.00  0.00    -0.036 A  
HETATM   25  C   UNL     1      -7.144   6.764  69.511  1.00  0.00    -0.072 A  
HETATM   26  C   UNL     1      -8.082   7.489  70.266  1.00  0.00    -0.112 A  
HETATM   27  C   UNL     1      -5.514   4.474  71.276  1.00  0.00    -0.011 A  
HETATM   28  C   UNL     1      -5.200   3.873  72.497  1.00  0.00     0.000 A  
HETATM   29  C   UNL     1      -8.151   8.879  70.167  1.00  0.00    -0.122 A  
HETATM   30  C   UNL     1      -6.222   3.432  73.327  1.00  0.00    -0.015 A  
HETATM   31  C   UNL     1      -7.279   9.549  69.322  1.00  0.00    -0.063 A  
HETATM   32  F   UNL     1      -7.366  10.881  69.207  1.00  0.00    -0.090 F  
HETATM   33  C   UNL     1      -6.326   8.858  68.584  1.00  0.00    -0.053 A  
HETATM   34  F   UNL     1      -5.922   2.841  74.490  1.00  0.00    -0.003 F  
HETATM   35  C   UNL     1      -7.551   3.591  72.965  1.00  0.00    -0.061 A  
HETATM   36  C   UNL     1      -7.867   4.191  71.746  1.00  0.00    -0.075 A  
HETATM   37  C   UNL     1      -6.253   7.468  68.681  1.00  0.00    -0.032 A  
ENDBRANCH  21  22
ENDBRANCH  20  21
ENDBRANCH  17  20
ENDBRANCH  13  14
ENDBRANCH  10  13
ENDBRANCH   8   9
TORSDOF 6
ENDMDL
MODEL      253
REMARK 921   NORMALIZED FREE ENERGY PREDICTED BY IDOCK:    0.92 KCAL/MOL
REMARK 922        TOTAL FREE ENERGY PREDICTED BY IDOCK:   -0.03 KCAL/MOL
REMARK 923 INTER-LIGAND FREE ENERGY PREDICTED BY IDOCK:   -3.91 KCAL/MOL
REMARK 924 INTRA-LIGAND FREE ENERGY PREDICTED BY IDOCK:    3.87 KCAL/MOL
REMARK 927      BINDING AFFINITY PREDICTED BY RF-SCORE:    0.00 PKD
ROOT
HETATM    1  C   UNL     1      -9.053   6.708  65.612  1.00  0.00     0.077 C  
HETATM    2  C   UNL     1      -7.819   7.380  66.155  1.00  0.00    -0.107 A  
HETATM    3  C   UNL     1      -7.202   6.769  67.265  1.00  0.00    -0.085 A  
HETATM    4  C   UNL     1      -6.122   7.366  67.905  1.00  0.00    -0.035 A  
HETATM    5  C   UNL     1      -5.659   8.599  67.462  1.00  0.00    -0.039 A  
HETATM    6  C   UNL     1      -6.251   9.238  66.356  1.00  0.00    -0.065 A  
HETATM    7  C   UNL     1      -5.684  10.566  65.928  1.00  0.00    -0.111 C  
HETATM    8  C   UNL     1      -7.304   8.601  65.658  1.00  0.00    -0.084 A  
ENDROOT
BRANCH   8   9
HETATM    9  N   UNL     1      -7.825   9.236  64.495  1.00  0.00    -0.112 N  
HETATM   10  C   UNL     1      -9.146   9.638  64.371  1.00  0.00    -0.229 C  
HETATM   11  H   UNL     1      -7.193   9.403  63.712  1.00  0.00     0.000 HD 
HETATM   12  O   UNL     1     -10.009   9.494  65.234  1.00  0.00    -0.247 OA 
BRANCH  10  13
HETATM   13  C   UNL     1      -9.558  10.162  62.988  1.00  0.00    -0.171 C  
BRANCH  13  14
HETATM   14  N   UNL     1     -10.018  11.574  62.952  1.00  0.00    -0.296 NA 
HETATM   15  C   UNL     1     -11.450  11.631  63.360  1.00  0.00    -0.260 C  
HETATM   16  C   UNL     1     -11.734  11.425  64.875  1.00  0.00     0.223 C  
HETATM   17  N   UNL     1     -10.917  12.251  65.786  1.00  0.00    -0.290 NA 
HETATM   18  C   UNL     1      -9.502  12.182  65.382  1.00  0.00    -0.021 C  
HETATM   19  C   UNL     1      -9.254  12.441  63.880  1.00  0.00     0.815 C  
BRANCH  17  20
HETATM   20  C   UNL     1     -11.395  13.636  65.887  1.00  0.00    -0.309 C  
BRANCH  20  21
HETATM   21  C   UNL     1     -10.638  14.578  64.939  1.00  0.00    -0.450 C  
BRANCH  21  22
HETATM   22  C   UNL     1     -10.390  15.983  65.515  1.00  0.00    -0.415 C  
HETATM   23  C   UNL     1     -10.192  16.029  67.053  1.00  0.00    -0.282 C  
HETATM   24  C   UNL     1     -10.165  17.452  67.614  1.00  0.00    -0.342 A  
HETATM   25  C   UNL     1      -8.974  15.203  67.458  1.00  0.00    -0.187 A  
HETATM   26  C   UNL     1      -7.684  15.562  67.032  1.00  0.00    -0.246 A  
HETATM   27  C   UNL     1     -10.621  17.682  68.926  1.00  0.00    -0.139 A  
HETATM   28  C   UNL     1     -10.661  18.975  69.452  1.00  0.00     0.752 A  
HETATM   29  C   UNL     1      -6.593  14.734  67.294  1.00  0.00     0.159 A  
HETATM   30  C   UNL     1     -10.234  20.044  68.674  1.00  0.00    -0.320 A  
HETATM   31  C   UNL     1      -6.784  13.548  67.988  1.00  0.00    -0.138 A  
HETATM   32  F   UNL     1      -5.741  12.740  68.213  1.00  0.00    -0.054 F  
HETATM   33  C   UNL     1      -8.046  13.181  68.442  1.00  0.00    -0.130 A  
HETATM   34  F   UNL     1     -10.287  21.287  69.172  1.00  0.00     0.280 F  
HETATM   35  C   UNL     1      -9.759  19.844  67.387  1.00  0.00    -0.519 A  
HETATM   36  C   UNL     1      -9.719  18.553  66.861  1.00  0.00    -0.334 A  
HETATM   37  C   UNL     1      -9.139  14.008  68.183  1.00  0.00    -0.192 A  
ENDBRANCH  21  22
ENDBRANCH  20  21
ENDBRANCH  17  20
ENDBRANCH  13  14
ENDBRANCH  10  13
ENDBRANCH   8   9
TORSDOF 6
ENDMDL
MODEL      254
REMARK 921   NORMALIZED FREE ENERGY PREDICTED BY IDOCK:    0.94 KCAL/MOL
REMARK 922        TOTAL FREE ENERGY PREDICTED BY IDOCK:    0.00 KCAL/MOL
REMARK 923 INTER-LIGAND FREE ENERGY PREDICTED BY IDOCK:   -5.82 KCAL/MOL
REMARK 924 INTRA-LIGAND FREE ENERGY PREDICTED BY IDOCK:    5.83 KCAL/MOL
REMARK 927      BINDING AFFINITY PREDICTED BY RF-SCORE:    0.00 PKD
ROOT
HETATM    1  C   UNL     1      -9.957  11.061  65.256  1.00  0.00    -0.320 C  
HETATM    2  C   UNL     1     -10.411  12.221  66.102  1.00  0.00    -0.269 A  
HETATM    3  C   UNL     1     -11.802  12.393  66.247  1.00  0.00    -0.431 A  
HETATM    4  C   UNL     1     -12.324  13.492  66.918  1.00  0.00    -0.289 A  
HETATM    5  C   UNL     1     -11.463  14.455  67.430  1.00  0.00    -0.377 A  
HETATM    6  C   UNL     1     -10.067  14.316  67.304  1.00  0.00    -0.252 A  
HETATM    7  C   UNL     1      -9.199  15.394  67.897  1.00  0.00    -0.180 C  
HETATM    8  C   UNL     1      -9.529  13.163  66.684  1.00  0.00    -0.260 A  
ENDROOT
BRANCH   8   9
HETATM    9  N   UNL     1      -8.114  13.015  66.646  1.00  0.00    -0.375 N  
HETATM   10  C   UNL     1      -7.475  11.784  66.641  1.00  0.00     0.014 C  
HETATM   11  H   UNL     1      -7.540  13.857  66.622  1.00  0.00     0.000 HD 
HETATM   12  O   UNL     1      -8.045  10.696  66.671  1.00  0.00    -0.126 OA 
BRANCH  10  13
HETATM   13  C   UNL     1      -5.945  11.825  66.756  1.00  0.00    -0.107 C  
BRANCH  13  14
HETATM   14  N   UNL     1      -5.349  10.839  67.692  1.00  0.00    -0.040 NA 
HETATM   15  C   UNL     1      -5.155  11.484  69.021  1.00  0.00    -0.043 C  
HETATM   16  C   UNL     1      -6.444  11.717  69.857  1.00  0.00    -0.063 C  
HETATM   17  N   UNL     1      -7.328  10.542  69.992  1.00  0.00    -0.139 NA 
HETATM   18  C   UNL     1      -7.523   9.915  68.673  1.00  0.00    -0.075 C  
HETATM   19  C   UNL     1      -6.216   9.654  67.892  1.00  0.00    -0.052 C  
BRANCH  17  20
HETATM   20  C   UNL     1      -6.854   9.580  70.995  1.00  0.00    -0.032 C  
BRANCH  20  21
HETATM   21  C   UNL     1      -7.716   8.310  71.030  1.00  0.00    -0.090 C  
BRANCH  21  22
HETATM   22  C   UNL     1      -8.088   7.763  69.641  1.00  0.00    -0.122 C  
HETATM   23  C   UNL     1      -9.467   7.055  69.569  1.00  0.00    -0.147 C  
HETATM   24  C   UNL     1      -9.707   6.339  68.239  1.00  0.00    -0.122 A  
HETATM   25  C   UNL     1     -10.584   8.029  69.934  1.00  0.00    -0.242 A  
HETATM   26  C   UNL     1     -10.845   9.159  69.141  1.00  0.00    -0.131 A  
HETATM   27  C   UNL     1     -10.522   5.191  68.215  1.00  0.00    -0.081 A  
HETATM   28  C   UNL     1     -10.720   4.481  67.029  1.00  0.00     0.583 A  
HETATM   29  C   UNL     1     -11.777  10.114  69.548  1.00  0.00    -0.128 A  
HETATM   30  C   UNL     1     -10.113   4.919  65.859  1.00  0.00    -0.211 A  
HETATM   31  C   UNL     1     -12.457   9.939  70.745  1.00  0.00    -0.256 A  
HETATM   32  F   UNL     1     -13.330  10.871  71.149  1.00  0.00    -0.398 F  
HETATM   33  C   UNL     1     -12.236   8.818  71.536  1.00  0.00    -0.382 A  
HETATM   34  F   UNL     1     -10.290   4.229  64.724  1.00  0.00    -0.208 F  
HETATM   35  C   UNL     1      -9.324   6.058  65.849  1.00  0.00    -0.047 A  
HETATM   36  C   UNL     1      -9.125   6.768  67.033  1.00  0.00    -0.139 A  
HETATM   37  C   UNL     1     -11.306   7.860  71.131  1.00  0.00    -0.289 A  
ENDBRANCH  21  22
ENDBRANCH  20  21
ENDBRANCH  17  20
ENDBRANCH  13  14
ENDBRANCH  10  13
ENDBRANCH   8   9
TORSDOF 6
ENDMDL
MODEL      255
REMARK 921   NORMALIZED FREE ENERGY PREDICTED BY IDOCK:    1.19 KCAL/MOL
REMARK 922        TOTAL FREE ENERGY PREDICTED BY IDOCK:    0.34 KCAL/MOL
REMARK 923 INTER-LIGAND FREE ENERGY PREDICTED BY IDOCK:   -3.86 KCAL/MOL
REMARK 924 INTRA-LIGAND FREE ENERGY PREDICTED BY IDOCK:    4.19 KCAL/MOL
REMARK 927      BINDING AFFINITY PREDICTED BY RF-SCORE:    0.00 PKD
ROOT
HETATM    1  C   UNL     1     -12.507  13.459  65.063  1.00  0.00    -0.479 C  
HETATM    2  C   UNL     1     -11.765  12.797  66.193  1.00  0.00    -0.458 A  
HETATM    3  C   UNL     1     -12.204  13.093  67.499  1.00  0.00    -0.169 A  
HETATM    4  C   UNL     1     -11.522  12.617  68.612  1.00  0.00    -0.347 A  
HETATM    5  C   UNL     1     -10.369  11.862  68.438  1.00  0.00    -0.216 A  
HETATM    6  C   UNL     1      -9.900  11.547  67.148  1.00  0.00    -0.210 A  
HETATM    7  C   UNL     1      -8.652  10.711  67.041  1.00  0.00    -0.128 C  
HETATM    8  C   UNL     1     -10.632  11.968  66.013  1.00  0.00    -0.268 A  
ENDROOT
BRANCH   8   9
HETATM    9  N   UNL     1     -10.175  11.563  64.726  1.00  0.00    -0.265 N  
HETATM   10  C   UNL     1      -8.836  11.520  64.369  1.00  0.00     0.421 C  
HETATM   11  H   UNL     1     -10.870  11.289  64.031  1.00  0.00     0.000 HD 
HETATM   12  O   UNL     1      -7.902  11.825  65.107  1.00  0.00     1.034 OA 
BRANCH  10  13
HETATM   13  C   UNL     1      -8.547  11.208  62.894  1.00  0.00    -0.075 C  
BRANCH  13  14
HETATM   14  N   UNL     1      -8.053   9.835  62.618  1.00  0.00    -0.123 NA 
HETATM   15  C   UNL     1      -6.571   9.869  62.479  1.00  0.00    -0.111 C  
HETATM   16  C   UNL     1      -5.768  10.049  63.798  1.00  0.00    -0.122 C  
HETATM   17  N   UNL     1      -6.150   9.139  64.896  1.00  0.00    -0.064 NA 
HETATM   18  C   UNL     1      -7.617   9.117  65.034  1.00  0.00    -0.106 C  
HETATM   19  C   UNL     1      -8.378   8.887  63.710  1.00  0.00    -0.161 C  
BRANCH  17  20
HETATM   20  C   UNL     1      -5.591   7.789  64.742  1.00  0.00    -0.033 C  
BRANCH  20  21
HETATM   21  C   UNL     1      -6.415   6.733  65.493  1.00  0.00    -0.050 C  
BRANCH  21  22
HETATM   22  C   UNL     1      -6.645   7.055  66.980  1.00  0.00    -0.055 C  
HETATM   23  C   UNL     1      -8.108   6.872  67.465  1.00  0.00    -0.116 C  
HETATM   24  C   UNL     1      -8.343   7.404  68.880  1.00  0.00    -0.129 A  
HETATM   25  C   UNL     1      -8.550   5.422  67.290  1.00  0.00    -0.108 A  
HETATM   26  C   UNL     1      -7.922   4.385  68.002  1.00  0.00    -0.080 A  
HETATM   27  C   UNL     1      -9.615   7.898  69.225  1.00  0.00    -0.157 A  
HETATM   28  C   UNL     1      -9.852   8.440  70.490  1.00  0.00    -0.204 A  
HETATM   29  C   UNL     1      -8.239   3.051  67.742  1.00  0.00    -0.087 A  
HETATM   30  C   UNL     1      -8.822   8.482  71.421  1.00  0.00    -0.198 A  
HETATM   31  C   UNL     1      -9.189   2.749  66.776  1.00  0.00    -0.105 A  
HETATM   32  F   UNL     1      -9.470   1.468  66.507  1.00  0.00    -0.070 F  
HETATM   33  C   UNL     1      -9.841   3.756  66.075  1.00  0.00    -0.081 A  
HETATM   34  F   UNL     1      -9.044   9.016  72.629  1.00  0.00    -0.216 F  
HETATM   35  C   UNL     1      -7.566   7.982  71.116  1.00  0.00    -0.082 A  
HETATM   36  C   UNL     1      -7.328   7.440  69.852  1.00  0.00    -0.083 A  
HETATM   37  C   UNL     1      -9.528   5.091  66.334  1.00  0.00    -0.157 A  
ENDBRANCH  21  22
ENDBRANCH  20  21
ENDBRANCH  17  20
ENDBRANCH  13  14
ENDBRANCH  10  13
ENDBRANCH   8   9
TORSDOF 6
ENDMDL
MODEL      256
REMARK 921   NORMALIZED FREE ENERGY PREDICTED BY IDOCK:    1.23 KCAL/MOL
REMARK 922        TOTAL FREE ENERGY PREDICTED BY IDOCK:    0.39 KCAL/MOL
REMARK 923 INTER-LIGAND FREE ENERGY PREDICTED BY IDOCK:   -0.74 KCAL/MOL
REMARK 924 INTRA-LIGAND FREE ENERGY PREDICTED BY IDOCK:    1.13 KCAL/MOL
REMARK 927      BINDING AFFINITY PREDICTED BY RF-SCORE:    0.00 PKD
ROOT
HETATM    1  C   UNL     1      -6.095  15.132  66.694  1.00  0.00     1.984 C  
HETATM    2  C   UNL     1      -7.538  15.029  67.112  1.00  0.00    -0.174 A  
HETATM    3  C   UNL     1      -8.423  15.985  66.572  1.00  0.00    -0.348 A  
HETATM    4  C   UNL     1      -9.752  16.042  66.975  1.00  0.00    -0.235 A  
HETATM    5  C   UNL     1     -10.211  15.162  67.948  1.00  0.00    -0.232 A  
HETATM    6  C   UNL     1      -9.355  14.195  68.509  1.00  0.00    -0.191 A  
HETATM    7  C   UNL     1      -9.931  13.268  69.548  1.00  0.00     0.916 C  
HETATM    8  C   UNL     1      -8.022  14.086  68.050  1.00  0.00    -0.152 A  
ENDROOT
BRANCH   8   9
HETATM    9  N   UNL     1      -7.208  13.044  68.578  1.00  0.00    -0.099 N  
HETATM   10  C   UNL     1      -6.977  11.847  67.919  1.00  0.00    -0.085 C  
HETATM   11  H   UNL     1      -6.773  13.186  69.490  1.00  0.00     0.000 HD 
HETATM   12  O   UNL     1      -7.441  11.547  66.821  1.00  0.00    -0.144 OA 
BRANCH  10  13
HETATM   13  C   UNL     1      -6.202  10.785  68.713  1.00  0.00    -0.040 C  
BRANCH  13  14
HETATM   14  N   UNL     1      -6.271  10.918  70.190  1.00  0.00    -0.130 NA 
HETATM   15  C   UNL     1      -7.523  10.275  70.679  1.00  0.00     0.564 C  
HETATM   16  C   UNL     1      -7.535   8.720  70.672  1.00  0.00    -0.079 C  
HETATM   17  N   UNL     1      -6.361   8.078  71.298  1.00  0.00    -0.034 NA 
HETATM   18  C   UNL     1      -5.128   8.714  70.803  1.00  0.00    -0.021 C  
HETATM   19  C   UNL     1      -5.133  10.257  70.871  1.00  0.00    -0.067 C  
BRANCH  17  20
HETATM   20  C   UNL     1      -6.427   8.070  72.765  1.00  0.00    -0.077 C  
BRANCH  20  21
HETATM   21  C   UNL     1      -7.555   7.170  73.287  1.00  0.00    -0.092 C  
BRANCH  21  22
HETATM   22  C   UNL     1      -8.963   7.770  73.132  1.00  0.00    -0.270 C  
HETATM   23  C   UNL     1      -9.552   7.680  71.699  1.00  0.00    -0.182 C  
HETATM   24  C   UNL     1     -10.850   8.473  71.531  1.00  0.00    -0.332 A  
HETATM   25  C   UNL     1      -9.683   6.221  71.268  1.00  0.00    -0.193 A  
HETATM   26  C   UNL     1     -10.545   5.342  71.945  1.00  0.00    -0.288 A  
HETATM   27  C   UNL     1     -11.162   9.020  70.272  1.00  0.00    -0.232 A  
HETATM   28  C   UNL     1     -12.311   9.794  70.094  1.00  0.00     0.107 A  
HETATM   29  C   UNL     1     -10.563   3.983  71.633  1.00  0.00     0.258 A  
HETATM   30  C   UNL     1     -13.159  10.017  71.171  1.00  0.00    -0.386 A  
HETATM   31  C   UNL     1      -9.726   3.498  70.638  1.00  0.00    -0.125 A  
HETATM   32  F   UNL     1      -9.723   2.188  70.361  1.00  0.00    -0.195 F  
HETATM   33  C   UNL     1      -8.881   4.349  69.936  1.00  0.00    -0.129 A  
HETATM   34  F   UNL     1     -14.253  10.773  71.006  1.00  0.00     0.678 F  
HETATM   35  C   UNL     1     -12.888   9.472  72.417  1.00  0.00    -0.361 A  
HETATM   36  C   UNL     1     -11.741   8.698  72.595  1.00  0.00    -0.206 A  
HETATM   37  C   UNL     1      -8.862   5.710  70.245  1.00  0.00    -0.146 A  
ENDBRANCH  21  22
ENDBRANCH  20  21
ENDBRANCH  17  20
ENDBRANCH  13  14
ENDBRANCH  10  13
ENDBRANCH   8   9
TORSDOF 6
ENDMDL
MODEL      257
REMARK 921   NORMALIZED FREE ENERGY PREDICTED BY IDOCK:    1.81 KCAL/MOL
REMARK 922        TOTAL FREE ENERGY PREDICTED BY IDOCK:    1.18 KCAL/MOL
REMARK 923 INTER-LIGAND FREE ENERGY PREDICTED BY IDOCK:   -3.10 KCAL/MOL
REMARK 924 INTRA-LIGAND FREE ENERGY PREDICTED BY IDOCK:    4.28 KCAL/MOL
REMARK 927      BINDING AFFINITY PREDICTED BY RF-SCORE:    0.00 PKD
ROOT
HETATM    1  C   UNL     1     -11.595  14.661  66.904  1.00  0.00    -0.374 C  
HETATM    2  C   UNL     1     -11.932  14.243  68.311  1.00  0.00    -0.346 A  
HETATM    3  C   UNL     1     -12.700  15.147  69.073  1.00  0.00     0.418 A  
HETATM    4  C   UNL     1     -12.975  14.903  70.413  1.00  0.00    -0.272 A  
HETATM    5  C   UNL     1     -12.460  13.765  71.022  1.00  0.00    -0.458 A  
HETATM    6  C   UNL     1     -11.688  12.841  70.292  1.00  0.00    -0.188 A  
HETATM    7  C   UNL     1     -11.178  11.625  71.020  1.00  0.00     1.813 C  
HETATM    8  C   UNL     1     -11.466  13.049  68.910  1.00  0.00    -0.299 A  
ENDROOT
BRANCH   8   9
HETATM    9  N   UNL     1     -10.752  12.054  68.184  1.00  0.00    -0.207 N  
HETATM   10  C   UNL     1     -11.141  10.724  68.127  1.00  0.00    -0.280 C  
HETATM   11  H   UNL     1      -9.911  12.334  67.680  1.00  0.00     0.000 HD 
HETATM   12  O   UNL     1     -12.128  10.255  68.689  1.00  0.00    -0.099 OA 
BRANCH  10  13
HETATM   13  C   UNL     1     -10.162   9.772  67.425  1.00  0.00    -0.230 C  
BRANCH  13  14
HETATM   14  N   UNL     1      -9.506   8.771  68.304  1.00  0.00    -0.140 NA 
HETATM   15  C   UNL     1     -10.214   8.734  69.614  1.00  0.00    -0.210 C  
HETATM   16  C   UNL     1     -11.604   8.037  69.614  1.00  0.00     0.490 C  
HETATM   17  N   UNL     1     -11.640   6.702  68.983  1.00  0.00    -0.074 NA 
HETATM   18  C   UNL     1     -10.945   6.750  67.685  1.00  0.00    -0.270 C  
HETATM   19  C   UNL     1      -9.547   7.404  67.733  1.00  0.00    -0.140 C  
BRANCH  17  20
HETATM   20  C   UNL     1     -11.111   5.643  69.853  1.00  0.00    -0.114 C  
BRANCH  20  21
HETATM   21  C   UNL     1      -9.682   5.238  69.466  1.00  0.00    -0.246 C  
BRANCH  21  22
HETATM   22  C   UNL     1      -8.585   5.932  70.291  1.00  0.00    -0.134 C  
HETATM   23  C   UNL     1      -9.003   6.313  71.736  1.00  0.00    -0.140 C  
HETATM   24  C   UNL     1      -7.970   7.188  72.449  1.00  0.00    -0.102 A  
HETATM   25  C   UNL     1      -9.379   5.064  72.529  1.00  0.00    -0.150 A  
HETATM   26  C   UNL     1      -8.426   4.068  72.803  1.00  0.00    -0.100 A  
HETATM   27  C   UNL     1      -8.406   8.108  73.422  1.00  0.00    -0.282 A  
HETATM   28  C   UNL     1      -7.499   8.961  74.055  1.00  0.00     0.223 A  
HETATM   29  C   UNL     1      -8.803   2.872  73.411  1.00  0.00    -0.080 A  
HETATM   30  C   UNL     1      -6.150   8.891  73.728  1.00  0.00    -0.030 A  
HETATM   31  C   UNL     1     -10.132   2.668  73.756  1.00  0.00    -0.110 A  
HETATM   32  F   UNL     1     -10.497   1.507  74.313  1.00  0.00    -0.115 F  
HETATM   33  C   UNL     1     -11.090   3.646  73.519  1.00  0.00    -0.320 A  
HETATM   34  F   UNL     1      -5.282   9.719  74.324  1.00  0.00    -0.136 F  
HETATM   35  C   UNL     1      -5.691   7.978  72.791  1.00  0.00    -0.047 A  
HETATM   36  C   UNL     1      -6.596   7.127  72.158  1.00  0.00    -0.055 A  
HETATM   37  C   UNL     1     -10.716   4.845  72.911  1.00  0.00    -0.297 A  
ENDBRANCH  21  22
ENDBRANCH  20  21
ENDBRANCH  17  20
ENDBRANCH  13  14
ENDBRANCH  10  13
ENDBRANCH   8   9
TORSDOF 6
ENDMDL
MODEL      258
REMARK 921   NORMALIZED FREE ENERGY PREDICTED BY IDOCK:    2.10 KCAL/MOL
REMARK 922        TOTAL FREE ENERGY PREDICTED BY IDOCK:    1.57 KCAL/MOL
REMARK 923 INTER-LIGAND FREE ENERGY PREDICTED BY IDOCK:   -0.20 KCAL/MOL
REMARK 924 INTRA-LIGAND FREE ENERGY PREDICTED BY IDOCK:    1.77 KCAL/MOL
REMARK 927      BINDING AFFINITY PREDICTED BY RF-SCORE:    0.00 PKD
ROOT
HETATM    1  C   UNL     1     -13.457  14.566  65.876  1.00  0.00     1.472 C  
HETATM    2  C   UNL     1     -12.297  14.974  66.745  1.00  0.00     0.450 A  
HETATM    3  C   UNL     1     -12.515  16.050  67.629  1.00  0.00     1.730 A  
HETATM    4  C   UNL     1     -11.481  16.570  68.397  1.00  0.00    -0.104 A  
HETATM    5  C   UNL     1     -10.202  16.043  68.270  1.00  0.00    -0.237 A  
HETATM    6  C   UNL     1      -9.946  14.969  67.397  1.00  0.00    -0.226 A  
HETATM    7  C   UNL     1      -8.536  14.443  67.326  1.00  0.00    -0.230 C  
HETATM    8  C   UNL     1     -11.010  14.389  66.667  1.00  0.00    -0.318 A  
ENDROOT
BRANCH   8   9
HETATM    9  N   UNL     1     -10.733  13.252  65.856  1.00  0.00    -0.273 N  
HETATM   10  C   UNL     1     -10.202  13.336  64.578  1.00  0.00    -0.310 C  
HETATM   11  H   UNL     1     -10.935  12.327  66.236  1.00  0.00     0.000 HD 
HETATM   12  O   UNL     1      -9.917  14.384  64.003  1.00  0.00     0.801 OA 
BRANCH  10  13
HETATM   13  C   UNL     1     -10.118  12.015  63.801  1.00  0.00    -0.394 C  
BRANCH  13  14
HETATM   14  N   UNL     1     -10.334  10.786  64.606  1.00  0.00    -0.344 NA 
HETATM   15  C   UNL     1      -9.393   9.728  64.143  1.00  0.00    -0.175 C  
HETATM   16  C   UNL     1      -7.906   9.914  64.557  1.00  0.00    -0.142 C  
HETATM   17  N   UNL     1      -7.682  10.196  65.989  1.00  0.00    -0.114 NA 
HETATM   18  C   UNL     1      -8.610  11.249  66.437  1.00  0.00    -0.174 C  
HETATM   19  C   UNL     1     -10.085  11.006  66.050  1.00  0.00    -0.247 C  
BRANCH  17  20
HETATM   20  C   UNL     1      -7.764   8.994  66.830  1.00  0.00    -0.093 C  
BRANCH  20  21
HETATM   21  C   UNL     1      -7.200   7.754  66.121  1.00  0.00    -0.074 C  
BRANCH  21  22
HETATM   22  C   UNL     1      -8.270   6.752  65.658  1.00  0.00    -0.134 C  
HETATM   23  C   UNL     1      -7.750   5.309  65.423  1.00  0.00    -0.088 C  
HETATM   24  C   UNL     1      -8.784   4.397  64.761  1.00  0.00    -0.140 A  
HETATM   25  C   UNL     1      -7.184   4.730  66.718  1.00  0.00    -0.080 A  
HETATM   26  C   UNL     1      -8.010   4.516  67.835  1.00  0.00    -0.088 A  
HETATM   27  C   UNL     1      -8.343   3.347  63.933  1.00  0.00    -0.090 A  
HETATM   28  C   UNL     1      -9.259   2.528  63.269  1.00  0.00    -0.091 A  
HETATM   29  C   UNL     1      -7.466   4.113  69.054  1.00  0.00    -0.055 A  
HETATM   30  C   UNL     1     -10.621   2.746  63.437  1.00  0.00    -0.224 A  
HETATM   31  C   UNL     1      -6.097   3.912  69.160  1.00  0.00    -0.027 A  
HETATM   32  F   UNL     1      -5.573   3.553  70.339  1.00  0.00    -0.011 F  
HETATM   33  C   UNL     1      -5.261   4.093  68.065  1.00  0.00    -0.008 A  
HETATM   34  F   UNL     1     -11.500   1.972  62.789  1.00  0.00    -0.220 F  
HETATM   35  C   UNL     1     -11.083   3.759  64.264  1.00  0.00     0.131 A  
HETATM   36  C   UNL     1     -10.169   4.577  64.928  1.00  0.00    -0.048 A  
HETATM   37  C   UNL     1      -5.802   4.495  66.843  1.00  0.00    -0.023 A  
ENDBRANCH  21  22
ENDBRANCH  20  21
ENDBRANCH  17  20
ENDBRANCH  13  14
ENDBRANCH  10  13
ENDBRANCH   8   9
TORSDOF 6
ENDMDL
MODEL      259
REMARK 921   NORMALIZED FREE ENERGY PREDICTED BY IDOCK:    2.12 KCAL/MOL
REMARK 922        TOTAL FREE ENERGY PREDICTED BY IDOCK:    1.59 KCAL/MOL
REMARK 923 INTER-LIGAND FREE ENERGY PREDICTED BY IDOCK:    0.34 KCAL/MOL
REMARK 924 INTRA-LIGAND FREE ENERGY PREDICTED BY IDOCK:    1.26 KCAL/MOL
REMARK 927      BINDING AFFINITY PREDICTED BY RF-SCORE:    0.00 PKD
ROOT
HETATM    1  C   UNL     1     -10.821  13.991  73.835  1.00  0.00     4.998 C  
HETATM    2  C   UNL     1     -11.940  14.886  73.373  1.00  0.00    -0.353 A  
HETATM    3  C   UNL     1     -12.471  15.780  74.325  1.00  0.00    -0.800 A  
HETATM    4  C   UNL     1     -13.573  16.572  74.030  1.00  0.00     0.941 A  
HETATM    5  C   UNL     1     -14.182  16.463  72.786  1.00  0.00     0.673 A  
HETATM    6  C   UNL     1     -13.680  15.580  71.810  1.00  0.00    -0.582 A  
HETATM    7  C   UNL     1     -14.387  15.528  70.482  1.00  0.00     0.985 C  
HETATM    8  C   UNL     1     -12.515  14.824  72.081  1.00  0.00    -0.331 A  
ENDROOT
BRANCH   8   9
HETATM    9  N   UNL     1     -11.986  14.005  71.044  1.00  0.00    -0.483 N  
HETATM   10  C   UNL     1     -12.385  12.695  70.827  1.00  0.00    -0.283 C  
HETATM   11  H   UNL     1     -11.275  14.401  70.429  1.00  0.00     0.000 HD 
HETATM   12  O   UNL     1     -13.227  12.096  71.494  1.00  0.00    -0.345 OA 
BRANCH  10  13
HETATM   13  C   UNL     1     -11.593  11.922  69.764  1.00  0.00    -0.286 C  
BRANCH  13  14
HETATM   14  N   UNL     1     -10.578  12.714  69.023  1.00  0.00    -0.111 NA 
HETATM   15  C   UNL     1     -10.259  12.022  67.743  1.00  0.00    -0.202 C  
HETATM   16  C   UNL     1     -11.346  12.108  66.635  1.00  0.00    -0.350 C  
HETATM   17  N   UNL     1     -11.859  13.466  66.361  1.00  0.00    -0.375 NA 
HETATM   18  C   UNL     1     -12.181  14.140  67.631  1.00  0.00    -0.196 C  
HETATM   19  C   UNL     1     -11.058  14.076  68.689  1.00  0.00    -0.264 C  
BRANCH  17  20
HETATM   20  C   UNL     1     -10.950  14.264  65.528  1.00  0.00    -0.319 C  
BRANCH  20  21
HETATM   21  C   UNL     1      -9.490  14.141  65.986  1.00  0.00    -0.189 C  
BRANCH  21  22
HETATM   22  C   UNL     1      -8.688  15.450  65.890  1.00  0.00     0.258 C  
HETATM   23  C   UNL     1      -8.304  16.079  67.256  1.00  0.00    -0.205 C  
HETATM   24  C   UNL     1      -7.702  17.479  67.126  1.00  0.00    -0.228 A  
HETATM   25  C   UNL     1      -7.424  15.121  68.054  1.00  0.00    -0.128 A  
HETATM   26  C   UNL     1      -6.151  14.750  67.587  1.00  0.00    -0.087 A  
HETATM   27  C   UNL     1      -7.886  18.405  68.171  1.00  0.00    -0.304 A  
HETATM   28  C   UNL     1      -7.396  19.708  68.064  1.00  0.00    -0.321 A  
HETATM   29  C   UNL     1      -5.407  13.775  68.252  1.00  0.00    -0.109 A  
HETATM   30  C   UNL     1      -6.711  20.091  66.917  1.00  0.00    -0.216 A  
HETATM   31  C   UNL     1      -5.926  13.174  69.389  1.00  0.00    -0.102 A  
HETATM   32  F   UNL     1      -5.223  12.217  70.008  1.00  0.00    -0.070 F  
HETATM   33  C   UNL     1      -7.172  13.539  69.886  1.00  0.00     0.627 A  
HETATM   34  F   UNL     1      -6.255  21.346  66.807  1.00  0.00    -0.316 F  
HETATM   35  C   UNL     1      -6.496  19.193  65.883  1.00  0.00    -0.254 A  
HETATM   36  C   UNL     1      -6.985  17.891  65.989  1.00  0.00    -0.346 A  
HETATM   37  C   UNL     1      -7.919  14.515  69.225  1.00  0.00     0.007 A  
ENDBRANCH  21  22
ENDBRANCH  20  21
ENDBRANCH  17  20
ENDBRANCH  13  14
ENDBRANCH  10  13
ENDBRANCH   8   9
TORSDOF 6
ENDMDL
MODEL      260
REMARK 921   NORMALIZED FREE ENERGY PREDICTED BY IDOCK:    2.21 KCAL/MOL
REMARK 922        TOTAL FREE ENERGY PREDICTED BY IDOCK:    1.72 KCAL/MOL
REMARK 923 INTER-LIGAND FREE ENERGY PREDICTED BY IDOCK:   -0.83 KCAL/MOL
REMARK 924 INTRA-LIGAND FREE ENERGY PREDICTED BY IDOCK:    2.55 KCAL/MOL
REMARK 927      BINDING AFFINITY PREDICTED BY RF-SCORE:    0.00 PKD
ROOT
HETATM    1  C   UNL     1      -9.164  17.254  70.035  1.00  0.00     1.707 C  
HETATM    2  C   UNL     1      -8.319  17.778  68.904  1.00  0.00    -0.135 A  
HETATM    3  C   UNL     1      -8.730  18.990  68.315  1.00  0.00    -0.366 A  
HETATM    4  C   UNL     1      -8.081  19.503  67.199  1.00  0.00    -0.301 A  
HETATM    5  C   UNL     1      -7.028  18.796  66.634  1.00  0.00    -0.224 A  
HETATM    6  C   UNL     1      -6.589  17.581  67.195  1.00  0.00    -0.194 A  
HETATM    7  C   UNL     1      -5.432  16.881  66.533  1.00  0.00    -0.034 C  
HETATM    8  C   UNL     1      -7.200  17.092  68.373  1.00  0.00    -0.202 A  
ENDROOT
BRANCH   8   9
HETATM    9  N   UNL     1      -6.679  15.904  68.961  1.00  0.00    -0.141 N  
HETATM   10  C   UNL     1      -7.466  14.820  69.318  1.00  0.00    -0.162 C  
HETATM   11  H   UNL     1      -5.675  15.848  69.128  1.00  0.00     0.000 HD 
HETATM   12  O   UNL     1      -8.685  14.758  69.175  1.00  0.00    -0.161 OA 
BRANCH  10  13
HETATM   13  C   UNL     1      -6.749  13.696  70.080  1.00  0.00     0.176 C  
BRANCH  13  14
HETATM   14  N   UNL     1      -6.879  12.341  69.486  1.00  0.00    -0.003 NA 
HETATM   15  C   UNL     1      -7.895  12.380  68.398  1.00  0.00    -0.142 C  
HETATM   16  C   UNL     1      -7.451  13.074  67.079  1.00  0.00     0.147 C  
HETATM   17  N   UNL     1      -6.152  12.627  66.539  1.00  0.00     0.479 NA 
HETATM   18  C   UNL     1      -5.150  12.599  67.619  1.00  0.00    -0.101 C  
HETATM   19  C   UNL     1      -5.608  11.859  68.895  1.00  0.00    -0.050 C  
BRANCH  17  20
HETATM   20  C   UNL     1      -6.237  11.342  65.833  1.00  0.00     0.132 C  
BRANCH  20  21
HETATM   21  C   UNL     1      -7.671  10.793  65.802  1.00  0.00    -0.094 C  
BRANCH  21  22
HETATM   22  C   UNL     1      -7.786   9.363  65.248  1.00  0.00    -0.109 C  
HETATM   23  C   UNL     1      -7.692   8.243  66.318  1.00  0.00    -0.097 C  
HETATM   24  C   UNL     1      -7.593   6.841  65.713  1.00  0.00    -0.088 A  
HETATM   25  C   UNL     1      -8.825   8.378  67.332  1.00  0.00    -0.140 A  
HETATM   26  C   UNL     1     -10.166   8.232  66.939  1.00  0.00    -0.388 A  
HETATM   27  C   UNL     1      -6.895   5.839  66.414  1.00  0.00    -0.059 A  
HETATM   28  C   UNL     1      -6.738   4.563  65.869  1.00  0.00    -0.053 A  
HETATM   29  C   UNL     1     -11.201   8.486  67.839  1.00  0.00     0.575 A  
HETATM   30  C   UNL     1      -7.287   4.278  64.625  1.00  0.00    -0.071 A  
HETATM   31  C   UNL     1     -10.901   8.878  69.136  1.00  0.00    -0.070 A  
HETATM   32  F   UNL     1     -11.896   9.150  69.989  1.00  0.00    -0.132 F  
HETATM   33  C   UNL     1      -9.583   9.006  69.557  1.00  0.00    -0.165 A  
HETATM   34  F   UNL     1      -7.123   3.059  64.093  1.00  0.00    -0.049 F  
HETATM   35  C   UNL     1      -7.997   5.239  63.923  1.00  0.00    -0.105 A  
HETATM   36  C   UNL     1      -8.155   6.514  64.466  1.00  0.00    -0.079 A  
HETATM   37  C   UNL     1      -8.544   8.751  68.659  1.00  0.00    -0.134 A  
ENDBRANCH  21  22
ENDBRANCH  20  21
ENDBRANCH  17  20
ENDBRANCH  13  14
ENDBRANCH  10  13
ENDBRANCH   8   9
TORSDOF 6
ENDMDL
MODEL      261
REMARK 921   NORMALIZED FREE ENERGY PREDICTED BY IDOCK:    2.53 KCAL/MOL
REMARK 922        TOTAL FREE ENERGY PREDICTED BY IDOCK:    2.15 KCAL/MOL
REMARK 923 INTER-LIGAND FREE ENERGY PREDICTED BY IDOCK:    2.56 KCAL/MOL
REMARK 924 INTRA-LIGAND FREE ENERGY PREDICTED BY IDOCK:   -0.41 KCAL/MOL
REMARK 927      BINDING AFFINITY PREDICTED BY RF-SCORE:    0.00 PKD
ROOT
HETATM    1  C   UNL     1      -7.728  18.277  69.009  1.00  0.00    -0.151 C  
HETATM    2  C   UNL     1      -9.105  17.791  69.376  1.00  0.00     0.414 A  
HETATM    3  C   UNL     1      -9.983  18.741  69.937  1.00  0.00     0.717 A  
HETATM    4  C   UNL     1     -11.237  18.370  70.406  1.00  0.00     3.672 A  
HETATM    5  C   UNL     1     -11.624  17.037  70.348  1.00  0.00     1.190 A  
HETATM    6  C   UNL     1     -10.773  16.061  69.795  1.00  0.00    -0.331 A  
HETATM    7  C   UNL     1     -11.269  14.639  69.756  1.00  0.00    -0.296 C  
HETATM    8  C   UNL     1      -9.524  16.445  69.251  1.00  0.00    -0.182 A  
ENDROOT
BRANCH   8   9
HETATM    9  N   UNL     1      -8.725  15.448  68.625  1.00  0.00    -0.180 N  
HETATM   10  C   UNL     1      -7.873  14.603  69.321  1.00  0.00    -0.071 C  
HETATM   11  H   UNL     1      -8.781  15.349  67.611  1.00  0.00     0.000 HD 
HETATM   12  O   UNL     1      -7.708  14.619  70.539  1.00  0.00     0.626 OA 
BRANCH  10  13
HETATM   13  C   UNL     1      -6.978  13.700  68.461  1.00  0.00    -0.104 C  
BRANCH  13  14
HETATM   14  N   UNL     1      -7.509  12.337  68.202  1.00  0.00    -0.103 NA 
HETATM   15  C   UNL     1      -7.356  12.022  66.754  1.00  0.00     0.033 C  
HETATM   16  C   UNL     1      -5.910  11.707  66.277  1.00  0.00     0.168 C  
HETATM   17  N   UNL     1      -5.182  10.712  67.089  1.00  0.00    -0.040 NA 
HETATM   18  C   UNL     1      -5.330  11.036  68.519  1.00  0.00    -0.043 C  
HETATM   19  C   UNL     1      -6.786  11.294  68.967  1.00  0.00    -0.089 C  
BRANCH  17  20
HETATM   20  C   UNL     1      -5.578   9.329  66.793  1.00  0.00    -0.043 C  
BRANCH  20  21
HETATM   21  C   UNL     1      -5.650   9.060  65.283  1.00  0.00    -0.046 C  
BRANCH  21  22
HETATM   22  C   UNL     1      -6.402   7.772  64.908  1.00  0.00    -0.044 C  
HETATM   23  C   UNL     1      -7.901   7.755  65.312  1.00  0.00    -0.117 C  
HETATM   24  C   UNL     1      -8.559   6.387  65.121  1.00  0.00    -0.011 A  
HETATM   25  C   UNL     1      -8.654   8.884  64.612  1.00  0.00    -0.169 A  
HETATM   26  C   UNL     1      -8.775   8.912  63.212  1.00  0.00    -0.050 A  
HETATM   27  C   UNL     1      -9.621   6.013  65.967  1.00  0.00    -0.029 A  
HETATM   28  C   UNL     1     -10.211   4.752  65.858  1.00  0.00    -0.286 A  
HETATM   29  C   UNL     1      -9.348  10.010  62.571  1.00  0.00    -0.297 A  
HETATM   30  C   UNL     1      -9.750   3.862  64.896  1.00  0.00    -0.188 A  
HETATM   31  C   UNL     1      -9.809  11.080  63.325  1.00  0.00    -0.368 A  
HETATM   32  F   UNL     1     -10.331  12.146  62.705  1.00  0.00    -0.300 F  
HETATM   33  C   UNL     1      -9.723  11.067  64.712  1.00  0.00    -0.311 A  
HETATM   34  F   UNL     1     -10.305   2.646  64.800  1.00  0.00     0.063 F  
HETATM   35  C   UNL     1      -8.722   4.213  64.035  1.00  0.00    -0.118 A  
HETATM   36  C   UNL     1      -8.132   5.472  64.143  1.00  0.00    -0.124 A  
HETATM   37  C   UNL     1      -9.152   9.969  65.357  1.00  0.00    -0.235 A  
ENDBRANCH  21  22
ENDBRANCH  20  21
ENDBRANCH  17  20
ENDBRANCH  13  14
ENDBRANCH  10  13
ENDBRANCH   8   9
TORSDOF 6
ENDMDL
MODEL      262
REMARK 921   NORMALIZED FREE ENERGY PREDICTED BY IDOCK:    2.87 KCAL/MOL
REMARK 922        TOTAL FREE ENERGY PREDICTED BY IDOCK:    2.61 KCAL/MOL
REMARK 923 INTER-LIGAND FREE ENERGY PREDICTED BY IDOCK:   -0.40 KCAL/MOL
REMARK 924 INTRA-LIGAND FREE ENERGY PREDICTED BY IDOCK:    3.01 KCAL/MOL
REMARK 927      BINDING AFFINITY PREDICTED BY RF-SCORE:    0.00 PKD
ROOT
HETATM    1  C   UNL     1      -5.580   5.198  63.300  1.00  0.00    -0.013 C  
HETATM    2  C   UNL     1      -6.509   4.509  64.265  1.00  0.00    -0.038 A  
HETATM    3  C   UNL     1      -6.515   3.100  64.241  1.00  0.00    -0.031 A  
HETATM    4  C   UNL     1      -7.410   2.372  65.015  1.00  0.00    -0.059 A  
HETATM    5  C   UNL     1      -8.335   3.043  65.806  1.00  0.00    -0.101 A  
HETATM    6  C   UNL     1      -8.358   4.450  65.854  1.00  0.00    -0.113 A  
HETATM    7  C   UNL     1      -9.381   5.104  66.745  1.00  0.00    -0.134 C  
HETATM    8  C   UNL     1      -7.402   5.194  65.123  1.00  0.00    -0.068 A  
ENDROOT
BRANCH   8   9
HETATM    9  N   UNL     1      -7.400   6.611  65.259  1.00  0.00    -0.077 N  
HETATM   10  C   UNL     1      -8.318   7.440  64.632  1.00  0.00     0.041 C  
HETATM   11  H   UNL     1      -6.687   7.039  65.849  1.00  0.00     0.000 HD 
HETATM   12  O   UNL     1      -9.223   7.056  63.894  1.00  0.00     1.384 OA 
BRANCH  10  13
HETATM   13  C   UNL     1      -8.062   8.947  64.772  1.00  0.00    -0.144 C  
BRANCH  13  14
HETATM   14  N   UNL     1      -7.575   9.390  66.103  1.00  0.00    -0.096 NA 
HETATM   15  C   UNL     1      -8.325  10.609  66.516  1.00  0.00    -0.143 C  
HETATM   16  C   UNL     1      -9.795  10.380  66.969  1.00  0.00    -0.191 C  
HETATM   17  N   UNL     1      -9.987   9.308  67.966  1.00  0.00    -0.173 NA 
HETATM   18  C   UNL     1      -9.250   8.104  67.546  1.00  0.00    -0.137 C  
HETATM   19  C   UNL     1      -7.779   8.362  67.151  1.00  0.00    -0.097 C  
BRANCH  17  20
HETATM   20  C   UNL     1      -9.634   9.723  69.330  1.00  0.00    -0.197 C  
BRANCH  20  21
HETATM   21  C   UNL     1     -10.101   8.707  70.382  1.00  0.00    -0.213 C  
BRANCH  21  22
HETATM   22  C   UNL     1      -9.293   7.398  70.395  1.00  0.00    -0.161 C  
HETATM   23  C   UNL     1      -7.854   7.518  69.828  1.00  0.00    -0.108 C  
HETATM   24  C   UNL     1      -7.160   6.165  69.656  1.00  0.00    -0.073 A  
HETATM   25  C   UNL     1      -7.036   8.507  70.656  1.00  0.00    -0.047 A  
HETATM   26  C   UNL     1      -6.749   8.254  72.008  1.00  0.00    -0.080 A  
HETATM   27  C   UNL     1      -6.203   6.010  68.636  1.00  0.00    -0.032 A  
HETATM   28  C   UNL     1      -5.589   4.775  68.415  1.00  0.00    -0.016 A  
HETATM   29  C   UNL     1      -6.118   9.218  72.793  1.00  0.00     0.188 A  
HETATM   30  C   UNL     1      -5.921   3.691  69.218  1.00  0.00    -0.023 A  
HETATM   31  C   UNL     1      -5.763  10.435  72.229  1.00  0.00     0.598 A  
HETATM   32  F   UNL     1      -5.183  11.371  72.991  1.00  0.00     0.153 F  
HETATM   33  C   UNL     1      -6.013  10.702  70.888  1.00  0.00    -0.001 A  
HETATM   34  F   UNL     1      -5.345   2.502  68.997  1.00  0.00    -0.010 F  
HETATM   35  C   UNL     1      -6.844   3.822  70.244  1.00  0.00    -0.034 A  
HETATM   36  C   UNL     1      -7.458   5.054  70.466  1.00  0.00    -0.062 A  
HETATM   37  C   UNL     1      -6.644   9.739  70.099  1.00  0.00    -0.091 A  
ENDBRANCH  21  22
ENDBRANCH  20  21
ENDBRANCH  17  20
ENDBRANCH  13  14
ENDBRANCH  10  13
ENDBRANCH   8   9
TORSDOF 6
ENDMDL
MODEL      263
REMARK 921   NORMALIZED FREE ENERGY PREDICTED BY IDOCK:    2.91 KCAL/MOL
REMARK 922        TOTAL FREE ENERGY PREDICTED BY IDOCK:    2.66 KCAL/MOL
REMARK 923 INTER-LIGAND FREE ENERGY PREDICTED BY IDOCK:   -3.45 KCAL/MOL
REMARK 924 INTRA-LIGAND FREE ENERGY PREDICTED BY IDOCK:    6.11 KCAL/MOL
REMARK 927      BINDING AFFINITY PREDICTED BY RF-SCORE:    0.00 PKD
ROOT
HETATM    1  C   UNL     1     -11.444  11.817  63.015  1.00  0.00     0.010 C  
HETATM    2  C   UNL     1     -10.753  11.387  64.282  1.00  0.00    -0.420 A  
HETATM    3  C   UNL     1     -10.139  10.118  64.269  1.00  0.00    -0.030 A  
HETATM    4  C   UNL     1      -9.567   9.585  65.418  1.00  0.00    -0.342 A  
HETATM    5  C   UNL     1      -9.626  10.301  66.607  1.00  0.00    -0.220 A  
HETATM    6  C   UNL     1     -10.231  11.571  66.658  1.00  0.00    -0.254 A  
HETATM    7  C   UNL     1     -10.241  12.291  67.981  1.00  0.00    -0.206 C  
HETATM    8  C   UNL     1     -10.750  12.148  65.475  1.00  0.00    -0.283 A  
ENDROOT
BRANCH   8   9
HETATM    9  N   UNL     1     -11.280  13.468  65.544  1.00  0.00    -0.291 N  
HETATM   10  C   UNL     1     -10.776  14.533  64.812  1.00  0.00    -0.393 C  
HETATM   11  H   UNL     1     -12.072  13.639  66.163  1.00  0.00     0.000 HD 
HETATM   12  O   UNL     1      -9.827  14.465  64.035  1.00  0.00     1.014 OA 
BRANCH  10  13
HETATM   13  C   UNL     1     -11.375  15.909  65.135  1.00  0.00    -0.118 C  
BRANCH  13  14
HETATM   14  N   UNL     1     -11.055  16.444  66.483  1.00  0.00     0.056 NA 
HETATM   15  C   UNL     1      -9.617  16.191  66.778  1.00  0.00    -0.240 C  
HETATM   16  C   UNL     1      -8.600  17.090  66.020  1.00  0.00    -0.129 C  
HETATM   17  N   UNL     1      -8.879  18.539  66.074  1.00  0.00    -0.489 NA 
HETATM   18  C   UNL     1     -10.301  18.782  65.772  1.00  0.00    -0.213 C  
HETATM   19  C   UNL     1     -11.283  17.905  66.580  1.00  0.00     0.781 C  
BRANCH  17  20
HETATM   20  C   UNL     1      -8.473  19.154  67.344  1.00  0.00    -0.282 C  
BRANCH  20  21
HETATM   21  C   UNL     1      -8.640  18.193  68.530  1.00  0.00    -0.307 C  
BRANCH  21  22
HETATM   22  C   UNL     1      -8.053  16.792  68.293  1.00  0.00    -0.202 C  
HETATM   23  C   UNL     1      -8.172  15.825  69.500  1.00  0.00    -0.136 C  
HETATM   24  C   UNL     1      -7.392  14.523  69.308  1.00  0.00    -0.126 A  
HETATM   25  C   UNL     1      -9.639  15.595  69.856  1.00  0.00    -0.086 A  
HETATM   26  C   UNL     1     -10.512  14.968  68.950  1.00  0.00    -0.241 A  
HETATM   27  C   UNL     1      -6.869  13.863  70.436  1.00  0.00     0.410 A  
HETATM   28  C   UNL     1      -6.106  12.702  70.294  1.00  0.00    -0.066 A  
HETATM   29  C   UNL     1     -11.877  14.880  69.225  1.00  0.00    -0.350 A  
HETATM   30  C   UNL     1      -5.870  12.188  69.026  1.00  0.00    -0.065 A  
HETATM   31  C   UNL     1     -12.373  15.409  70.408  1.00  0.00    -0.402 A  
HETATM   32  F   UNL     1     -13.688  15.349  70.656  1.00  0.00    -0.399 F  
HETATM   33  C   UNL     1     -11.528  16.012  71.332  1.00  0.00    -0.464 A  
HETATM   34  F   UNL     1      -5.125  11.083  68.887  1.00  0.00    -0.042 F  
HETATM   35  C   UNL     1      -6.392  12.805  67.899  1.00  0.00    -0.118 A  
HETATM   36  C   UNL     1      -7.154  13.964  68.039  1.00  0.00    -0.145 A  
HETATM   37  C   UNL     1     -10.162  16.101  71.061  1.00  0.00     1.335 A  
ENDBRANCH  21  22
ENDBRANCH  20  21
ENDBRANCH  17  20
ENDBRANCH  13  14
ENDBRANCH  10  13
ENDBRANCH   8   9
TORSDOF 6
ENDMDL
MODEL      264
REMARK 921   NORMALIZED FREE ENERGY PREDICTED BY IDOCK:    3.45 KCAL/MOL
REMARK 922        TOTAL FREE ENERGY PREDICTED BY IDOCK:    3.38 KCAL/MOL
REMARK 923 INTER-LIGAND FREE ENERGY PREDICTED BY IDOCK:    0.50 KCAL/MOL
REMARK 924 INTRA-LIGAND FREE ENERGY PREDICTED BY IDOCK:    2.89 KCAL/MOL
REMARK 927      BINDING AFFINITY PREDICTED BY RF-SCORE:    0.00 PKD
ROOT
HETATM    1  C   UNL     1      -8.888   6.375  71.755  1.00  0.00    -0.139 C  
HETATM    2  C   UNL     1      -9.118   4.896  71.597  1.00  0.00    -0.169 A  
HETATM    3  C   UNL     1      -9.480   4.184  72.759  1.00  0.00    -0.161 A  
HETATM    4  C   UNL     1      -9.612   2.801  72.741  1.00  0.00    -0.163 A  
HETATM    5  C   UNL     1      -9.355   2.102  71.568  1.00  0.00    -0.185 A  
HETATM    6  C   UNL     1      -8.991   2.780  70.389  1.00  0.00    -0.163 A  
HETATM    7  C   UNL     1      -8.743   1.955  69.154  1.00  0.00    -0.113 C  
HETATM    8  C   UNL     1      -8.926   4.194  70.383  1.00  0.00    -0.092 A  
ENDROOT
BRANCH   8   9
HETATM    9  N   UNL     1      -8.636   4.852  69.155  1.00  0.00    -0.081 N  
HETATM   10  C   UNL     1      -9.478   4.817  68.053  1.00  0.00    -0.140 C  
HETATM   11  H   UNL     1      -7.764   5.375  69.080  1.00  0.00     0.000 HD 
HETATM   12  O   UNL     1     -10.553   4.223  68.007  1.00  0.00     0.462 OA 
BRANCH  10  13
HETATM   13  C   UNL     1      -8.926   5.454  66.770  1.00  0.00    -0.112 C  
BRANCH  13  14
HETATM   14  N   UNL     1      -8.738   6.927  66.819  1.00  0.00    -0.118 NA 
HETATM   15  C   UNL     1      -7.307   7.244  66.552  1.00  0.00    -0.080 C  
HETATM   16  C   UNL     1      -6.841   7.087  65.077  1.00  0.00    -0.051 C  
HETATM   17  N   UNL     1      -7.699   7.745  64.072  1.00  0.00    -0.120 NA 
HETATM   18  C   UNL     1      -9.111   7.419  64.337  1.00  0.00     1.295 C  
HETATM   19  C   UNL     1      -9.551   7.634  65.802  1.00  0.00     0.366 C  
BRANCH  17  20
HETATM   20  C   UNL     1      -7.474   9.194  63.987  1.00  0.00    -0.110 C  
BRANCH  20  21
HETATM   21  C   UNL     1      -7.385   9.847  65.374  1.00  0.00    -0.128 C  
BRANCH  21  22
HETATM   22  C   UNL     1      -8.736   9.978  66.097  1.00  0.00    -0.153 C  
HETATM   23  C   UNL     1      -8.662  10.645  67.496  1.00  0.00    -0.125 C  
HETATM   24  C   UNL     1      -9.978  10.563  68.272  1.00  0.00    -0.176 A  
HETATM   25  C   UNL     1      -8.125  12.069  67.379  1.00  0.00    -0.168 A  
HETATM   26  C   UNL     1      -8.836  13.054  66.673  1.00  0.00    -0.083 A  
HETATM   27  C   UNL     1      -9.944  10.514  69.678  1.00  0.00    -0.149 A  
HETATM   28  C   UNL     1     -11.122  10.386  70.417  1.00  0.00    -0.371 A  
HETATM   29  C   UNL     1      -8.280  14.315  66.458  1.00  0.00     0.491 A  
HETATM   30  C   UNL     1     -12.341  10.315  69.756  1.00  0.00     0.038 A  
HETATM   31  C   UNL     1      -7.016  14.599  66.953  1.00  0.00     0.874 A  
HETATM   32  F   UNL     1      -6.471  15.800  66.719  1.00  0.00    -0.118 F  
HETATM   33  C   UNL     1      -6.301  13.651  67.675  1.00  0.00    -0.149 A  
HETATM   34  F   UNL     1     -13.470  10.175  70.463  1.00  0.00    -0.402 F  
HETATM   35  C   UNL     1     -12.406  10.383  68.372  1.00  0.00     1.425 A  
HETATM   36  C   UNL     1     -11.230  10.512  67.633  1.00  0.00    -0.338 A  
HETATM   37  C   UNL     1      -6.855  12.389  67.894  1.00  0.00    -0.099 A  
ENDBRANCH  21  22
ENDBRANCH  20  21
ENDBRANCH  17  20
ENDBRANCH  13  14
ENDBRANCH  10  13
ENDBRANCH   8   9
TORSDOF 6
ENDMDL
MODEL      265
REMARK 921   NORMALIZED FREE ENERGY PREDICTED BY IDOCK:    3.48 KCAL/MOL
REMARK 922        TOTAL FREE ENERGY PREDICTED BY IDOCK:    3.43 KCAL/MOL
REMARK 923 INTER-LIGAND FREE ENERGY PREDICTED BY IDOCK:   -5.02 KCAL/MOL
REMARK 924 INTRA-LIGAND FREE ENERGY PREDICTED BY IDOCK:    8.44 KCAL/MOL
REMARK 927      BINDING AFFINITY PREDICTED BY RF-SCORE:    0.00 PKD
ROOT
HETATM    1  C   UNL     1      -8.466   9.891  62.534  1.00  0.00    -0.179 C  
HETATM    2  C   UNL     1      -8.315   9.436  63.961  1.00  0.00    -0.174 A  
HETATM    3  C   UNL     1      -7.169   8.673  64.265  1.00  0.00    -0.094 A  
HETATM    4  C   UNL     1      -6.990   8.117  65.525  1.00  0.00    -0.063 A  
HETATM    5  C   UNL     1      -7.969   8.289  66.496  1.00  0.00    -0.100 A  
HETATM    6  C   UNL     1      -9.127   9.044  66.228  1.00  0.00    -0.224 A  
HETATM    7  C   UNL     1     -10.135   9.197  67.336  1.00  0.00    -0.289 C  
HETATM    8  C   UNL     1      -9.280   9.672  64.970  1.00  0.00    -0.250 A  
ENDROOT
BRANCH   8   9
HETATM    9  N   UNL     1     -10.422  10.496  64.761  1.00  0.00    -0.236 N  
HETATM   10  C   UNL     1     -11.108  11.125  65.788  1.00  0.00    -0.014 C  
HETATM   11  H   UNL     1     -10.753  10.630  63.805  1.00  0.00     0.000 HD 
HETATM   12  O   UNL     1     -10.819  11.045  66.980  1.00  0.00    -0.260 OA 
BRANCH  10  13
HETATM   13  C   UNL     1     -12.403  11.844  65.385  1.00  0.00     0.516 C  
BRANCH  13  14
HETATM   14  N   UNL     1     -12.504  13.263  65.809  1.00  0.00    -0.442 NA 
HETATM   15  C   UNL     1     -11.653  13.473  67.013  1.00  0.00    -0.359 C  
HETATM   16  C   UNL     1     -10.118  13.505  66.763  1.00  0.00    -0.268 C  
HETATM   17  N   UNL     1      -9.677  14.396  65.672  1.00  0.00    -0.272 NA 
HETATM   18  C   UNL     1     -10.517  14.176  64.482  1.00  0.00    -0.204 C  
HETATM   19  C   UNL     1     -12.036  14.201  64.761  1.00  0.00    -0.441 C  
BRANCH  17  20
HETATM   20  C   UNL     1      -9.639  15.810  66.067  1.00  0.00    -0.353 C  
BRANCH  20  21
HETATM   21  C   UNL     1     -11.045  16.424  66.148  1.00  0.00     0.184 C  
BRANCH  21  22
HETATM   22  C   UNL     1     -11.719  16.273  67.522  1.00  0.00     0.451 C  
HETATM   23  C   UNL     1     -10.739  16.203  68.723  1.00  0.00    -0.294 C  
HETATM   24  C   UNL     1     -11.426  15.837  70.040  1.00  0.00    -0.359 A  
HETATM   25  C   UNL     1      -9.917  17.486  68.813  1.00  0.00    -0.342 A  
HETATM   26  C   UNL     1     -10.534  18.723  69.070  1.00  0.00     0.144 A  
HETATM   27  C   UNL     1     -10.699  15.135  71.020  1.00  0.00    -0.000 A  
HETATM   28  C   UNL     1     -11.309  14.738  72.213  1.00  0.00     0.214 A  
HETATM   29  C   UNL     1      -9.799  19.907  69.021  1.00  0.00    -0.352 A  
HETATM   30  C   UNL     1     -12.645  15.049  72.436  1.00  0.00    -0.342 A  
HETATM   31  C   UNL     1      -8.444  19.861  68.725  1.00  0.00    -0.035 A  
HETATM   32  F   UNL     1      -7.746  21.001  68.650  1.00  0.00     0.327 F  
HETATM   33  C   UNL     1      -7.804  18.649  68.492  1.00  0.00    -0.355 A  
HETATM   34  F   UNL     1     -13.235  14.654  73.572  1.00  0.00    -0.567 F  
HETATM   35  C   UNL     1     -13.377  15.758  71.497  1.00  0.00    -0.384 A  
HETATM   36  C   UNL     1     -12.769  16.156  70.306  1.00  0.00     0.670 A  
HETATM   37  C   UNL     1      -8.536  17.462  68.541  1.00  0.00    -0.270 A  
ENDBRANCH  21  22
ENDBRANCH  20  21
ENDBRANCH  17  20
ENDBRANCH  13  14
ENDBRANCH  10  13
ENDBRANCH   8   9
TORSDOF 6
ENDMDL
MODEL      266
REMARK 921   NORMALIZED FREE ENERGY PREDICTED BY IDOCK:    3.84 KCAL/MOL
REMARK 922        TOTAL FREE ENERGY PREDICTED BY IDOCK:    3.91 KCAL/MOL
REMARK 923 INTER-LIGAND FREE ENERGY PREDICTED BY IDOCK:    0.23 KCAL/MOL
REMARK 924 INTRA-LIGAND FREE ENERGY PREDICTED BY IDOCK:    3.68 KCAL/MOL
REMARK 927      BINDING AFFINITY PREDICTED BY RF-SCORE:    0.00 PKD
ROOT
HETATM    1  C   UNL     1     -11.892   4.465  70.964  1.00  0.00     4.860 C  
HETATM    2  C   UNL     1     -10.861   4.992  71.927  1.00  0.00    -0.118 A  
HETATM    3  C   UNL     1     -10.632   4.228  73.089  1.00  0.00    -0.270 A  
HETATM    4  C   UNL     1      -9.779   4.680  74.089  1.00  0.00    -0.154 A  
HETATM    5  C   UNL     1      -9.163   5.919  73.956  1.00  0.00    -0.129 A  
HETATM    6  C   UNL     1      -9.369   6.709  72.809  1.00  0.00    -0.149 A  
HETATM    7  C   UNL     1      -8.655   8.032  72.732  1.00  0.00    -0.252 C  
HETATM    8  C   UNL     1     -10.179   6.220  71.756  1.00  0.00    -0.196 A  
ENDROOT
BRANCH   8   9
HETATM    9  N   UNL     1     -10.300   7.007  70.576  1.00  0.00    -0.200 N  
HETATM   10  C   UNL     1     -11.098   8.137  70.489  1.00  0.00    -0.253 C  
HETATM   11  H   UNL     1      -9.771   6.724  69.751  1.00  0.00     0.000 HD 
HETATM   12  O   UNL     1     -11.787   8.584  71.404  1.00  0.00    -0.277 OA 
BRANCH  10  13
HETATM   13  C   UNL     1     -11.221   8.763  69.093  1.00  0.00     0.293 C  
BRANCH  13  14
HETATM   14  N   UNL     1     -10.558  10.081  68.924  1.00  0.00    -0.209 NA 
HETATM   15  C   UNL     1      -9.511  10.238  69.972  1.00  0.00     0.090 C  
HETATM   16  C   UNL     1      -8.218   9.399  69.771  1.00  0.00    -0.143 C  
HETATM   17  N   UNL     1      -7.608   9.495  68.430  1.00  0.00    -0.081 NA 
HETATM   18  C   UNL     1      -8.647   9.331  67.399  1.00  0.00    -0.122 C  
HETATM   19  C   UNL     1      -9.896  10.216  67.606  1.00  0.00    -0.172 C  
BRANCH  17  20
HETATM   20  C   UNL     1      -6.834  10.729  68.240  1.00  0.00    -0.067 C  
BRANCH  20  21
HETATM   21  C   UNL     1      -7.713  11.984  68.350  1.00  0.00    -0.138 C  
BRANCH  21  22
HETATM   22  C   UNL     1      -8.538  12.287  67.088  1.00  0.00    -0.187 C  
HETATM   23  C   UNL     1      -9.825  13.117  67.338  1.00  0.00    -0.226 C  
HETATM   24  C   UNL     1     -10.728  13.213  66.106  1.00  0.00    -0.289 A  
HETATM   25  C   UNL     1      -9.473  14.480  67.929  1.00  0.00    -0.212 A  
HETATM   26  C   UNL     1      -8.716  15.411  67.197  1.00  0.00    -0.243 A  
HETATM   27  C   UNL     1     -12.119  13.339  66.283  1.00  0.00    -0.472 A  
HETATM   28  C   UNL     1     -12.978  13.375  65.182  1.00  0.00    -0.249 A  
HETATM   29  C   UNL     1      -8.286  16.599  67.788  1.00  0.00    -0.184 A  
HETATM   30  C   UNL     1     -12.451  13.298  63.899  1.00  0.00    -0.257 A  
HETATM   31  C   UNL     1      -8.616  16.865  69.109  1.00  0.00    -0.058 A  
HETATM   32  F   UNL     1      -8.177  17.992  69.684  1.00  0.00     0.231 F  
HETATM   33  C   UNL     1      -9.384  15.973  69.848  1.00  0.00     0.277 A  
HETATM   34  F   UNL     1     -13.275  13.316  62.844  1.00  0.00     0.402 F  
HETATM   35  C   UNL     1     -11.083  13.196  63.696  1.00  0.00    -0.172 A  
HETATM   36  C   UNL     1     -10.225  13.160  64.794  1.00  0.00    -0.321 A  
HETATM   37  C   UNL     1      -9.818  14.784  69.259  1.00  0.00    -0.123 A  
ENDBRANCH  21  22
ENDBRANCH  20  21
ENDBRANCH  17  20
ENDBRANCH  13  14
ENDBRANCH  10  13
ENDBRANCH   8   9
TORSDOF 6
ENDMDL
MODEL      267
REMARK 921   NORMALIZED FREE ENERGY PREDICTED BY IDOCK:    4.69 KCAL/MOL
REMARK 922        TOTAL FREE ENERGY PREDICTED BY IDOCK:    5.06 KCAL/MOL
REMARK 923 INTER-LIGAND FREE ENERGY PREDICTED BY IDOCK:   -3.35 KCAL/MOL
REMARK 924 INTRA-LIGAND FREE ENERGY PREDICTED BY IDOCK:    8.41 KCAL/MOL
REMARK 927      BINDING AFFINITY PREDICTED BY RF-SCORE:    0.00 PKD
ROOT
HETATM    1  C   UNL     1      -7.981   6.041  66.911  1.00  0.00    -0.102 C  
HETATM    2  C   UNL     1      -7.460   4.671  67.253  1.00  0.00    -0.085 A  
HETATM    3  C   UNL     1      -7.288   3.772  66.181  1.00  0.00    -0.072 A  
HETATM    4  C   UNL     1      -6.914   2.453  66.402  1.00  0.00    -0.044 A  
HETATM    5  C   UNL     1      -6.734   2.001  67.703  1.00  0.00    -0.038 A  
HETATM    6  C   UNL     1      -6.897   2.869  68.799  1.00  0.00    -0.041 A  
HETATM    7  C   UNL     1      -6.671   2.308  70.179  1.00  0.00    -0.033 C  
HETATM    8  C   UNL     1      -7.208   4.231  68.575  1.00  0.00    -0.056 A  
ENDROOT
BRANCH   8   9
HETATM    9  N   UNL     1      -7.284   5.101  69.700  1.00  0.00    -0.055 N  
HETATM   10  C   UNL     1      -6.327   5.139  70.702  1.00  0.00    -0.023 C  
HETATM   11  H   UNL     1      -8.085   5.728  69.772  1.00  0.00     0.000 HD 
HETATM   12  O   UNL     1      -5.319   4.437  70.739  1.00  0.00    -0.003 OA 
BRANCH  10  13
HETATM   13  C   UNL     1      -6.659   6.027  71.910  1.00  0.00    -0.059 C  
BRANCH  13  14
HETATM   14  N   UNL     1      -7.803   6.955  71.724  1.00  0.00    -0.099 NA 
HETATM   15  C   UNL     1      -7.307   8.358  71.784  1.00  0.00    -0.100 C  
HETATM   16  C   UNL     1      -6.516   8.853  70.540  1.00  0.00    -0.046 C  
HETATM   17  N   UNL     1      -7.169   8.604  69.239  1.00  0.00    -0.062 NA 
HETATM   18  C   UNL     1      -7.649   7.212  69.184  1.00  0.00    -0.099 C  
HETATM   19  C   UNL     1      -8.472   6.772  70.415  1.00  0.00    -0.135 C  
BRANCH  17  20
HETATM   20  C   UNL     1      -8.237   9.567  68.941  1.00  0.00    -0.116 C  
BRANCH  20  21
HETATM   21  C   UNL     1      -9.545   8.872  68.535  1.00  0.00    -0.165 C  
BRANCH  21  22
HETATM   22  C   UNL     1     -10.404   9.677  67.546  1.00  0.00    -0.297 C  
HETATM   23  C   UNL     1      -9.683  10.886  66.892  1.00  0.00    -0.210 C  
HETATM   24  C   UNL     1     -10.624  11.785  66.087  1.00  0.00    -0.301 A  
HETATM   25  C   UNL     1      -8.475  10.412  66.088  1.00  0.00    -0.149 A  
HETATM   26  C   UNL     1      -8.634   9.583  64.965  1.00  0.00    -0.187 A  
HETATM   27  C   UNL     1     -10.335  13.158  65.980  1.00  0.00    -0.292 A  
HETATM   28  C   UNL     1     -11.199  14.019  65.299  1.00  0.00    -0.319 A  
HETATM   29  C   UNL     1      -7.524   9.047  64.313  1.00  0.00    -0.106 A  
HETATM   30  C   UNL     1     -12.350  13.509  64.712  1.00  0.00    -0.392 A  
HETATM   31  C   UNL     1      -6.250   9.344  64.776  1.00  0.00    -0.077 A  
HETATM   32  F   UNL     1      -5.186   8.805  64.167  1.00  0.00    -0.051 F  
HETATM   33  C   UNL     1      -6.063  10.181  65.869  1.00  0.00    -0.087 A  
HETATM   34  F   UNL     1     -13.188  14.336  64.073  1.00  0.00     0.363 F  
HETATM   35  C   UNL     1     -12.648  12.157  64.784  1.00  0.00    -0.178 A  
HETATM   36  C   UNL     1     -11.785  11.297  65.463  1.00  0.00     0.501 A  
HETATM   37  C   UNL     1      -7.172  10.720  66.522  1.00  0.00    -0.139 A  
ENDBRANCH  21  22
ENDBRANCH  20  21
ENDBRANCH  17  20
ENDBRANCH  13  14
ENDBRANCH  10  13
ENDBRANCH   8   9
TORSDOF 6
ENDMDL
MODEL      268
REMARK 921   NORMALIZED FREE ENERGY PREDICTED BY IDOCK:    5.19 KCAL/MOL
REMARK 922        TOTAL FREE ENERGY PREDICTED BY IDOCK:    5.74 KCAL/MOL
REMARK 923 INTER-LIGAND FREE ENERGY PREDICTED BY IDOCK:   -1.51 KCAL/MOL
REMARK 924 INTRA-LIGAND FREE ENERGY PREDICTED BY IDOCK:    7.25 KCAL/MOL
REMARK 927      BINDING AFFINITY PREDICTED BY RF-SCORE:    0.00 PKD
ROOT
HETATM    1  C   UNL     1     -11.357   6.770  67.465  1.00  0.00    -0.064 C  
HETATM    2  C   UNL     1     -11.284   8.068  68.226  1.00  0.00     0.547 A  
HETATM    3  C   UNL     1     -11.353   9.253  67.465  1.00  0.00     0.744 A  
HETATM    4  C   UNL     1     -11.189  10.498  68.059  1.00  0.00    -0.361 A  
HETATM    5  C   UNL     1     -10.922  10.579  69.420  1.00  0.00    -0.297 A  
HETATM    6  C   UNL     1     -10.845   9.416  70.211  1.00  0.00    -0.303 A  
HETATM    7  C   UNL     1     -10.566   9.587  71.681  1.00  0.00    -0.100 C  
HETATM    8  C   UNL     1     -11.083   8.151  69.625  1.00  0.00    -0.007 A  
ENDROOT
BRANCH   8   9
HETATM    9  N   UNL     1     -11.079   7.004  70.468  1.00  0.00    -0.267 N  
HETATM   10  C   UNL     1     -11.838   6.904  71.624  1.00  0.00    -0.324 C  
HETATM   11  H   UNL     1     -10.487   6.215  70.209  1.00  0.00     0.000 HD 
HETATM   12  O   UNL     1     -12.587   7.779  72.052  1.00  0.00    -0.303 OA 
BRANCH  10  13
HETATM   13  C   UNL     1     -11.585   5.657  72.484  1.00  0.00    -0.246 C  
BRANCH  13  14
HETATM   14  N   UNL     1     -10.181   5.174  72.509  1.00  0.00    -0.187 NA 
HETATM   15  C   UNL     1      -9.892   4.586  73.847  1.00  0.00    -0.146 C  
HETATM   16  C   UNL     1     -10.529   3.196  74.129  1.00  0.00    -0.180 C  
HETATM   17  N   UNL     1     -10.319   2.182  73.076  1.00  0.00    -0.127 NA 
HETATM   18  C   UNL     1     -10.615   2.768  71.757  1.00  0.00     0.642 C  
HETATM   19  C   UNL     1      -9.926   4.125  71.494  1.00  0.00    -0.160 C  
BRANCH  17  20
HETATM   20  C   UNL     1      -8.982   1.576  73.122  1.00  0.00    -0.062 C  
BRANCH  20  21
HETATM   21  C   UNL     1      -8.026   2.356  74.036  1.00  0.00    -0.055 C  
BRANCH  21  22
HETATM   22  C   UNL     1      -7.979   3.868  73.755  1.00  0.00    -0.087 C  
HETATM   23  C   UNL     1      -6.661   4.366  73.104  1.00  0.00    -0.053 C  
HETATM   24  C   UNL     1      -6.563   5.892  73.038  1.00  0.00    -0.069 A  
HETATM   25  C   UNL     1      -6.448   3.694  71.750  1.00  0.00    -0.015 A  
HETATM   26  C   UNL     1      -7.344   3.908  70.688  1.00  0.00    -0.041 A  
HETATM   27  C   UNL     1      -5.294   6.500  73.093  1.00  0.00    -0.037 A  
HETATM   28  C   UNL     1      -5.169   7.891  73.089  1.00  0.00    -0.040 A  
HETATM   29  C   UNL     1      -7.221   3.191  69.499  1.00  0.00    -0.045 A  
HETATM   30  C   UNL     1      -6.309   8.681  73.019  1.00  0.00    -0.057 A  
HETATM   31  C   UNL     1      -6.197   2.264  69.361  1.00  0.00    -0.025 A  
HETATM   32  F   UNL     1      -6.098   1.556  68.229  1.00  0.00    -0.022 F  
HETATM   33  C   UNL     1      -5.283   2.051  70.386  1.00  0.00    -0.004 A  
HETATM   34  F   UNL     1      -6.191  10.016  73.032  1.00  0.00     0.514 F  
HETATM   35  C   UNL     1      -7.569   8.108  72.941  1.00  0.00    -0.181 A  
HETATM   36  C   UNL     1      -7.695   6.719  72.945  1.00  0.00    -0.094 A  
HETATM   37  C   UNL     1      -5.403   2.768  71.577  1.00  0.00    -0.004 A  
ENDBRANCH  21  22
ENDBRANCH  20  21
ENDBRANCH  17  20
ENDBRANCH  13  14
ENDBRANCH  10  13
ENDBRANCH   8   9
TORSDOF 6
ENDMDL
MODEL      269
REMARK 921   NORMALIZED FREE ENERGY PREDICTED BY IDOCK:    5.98 KCAL/MOL
REMARK 922        TOTAL FREE ENERGY PREDICTED BY IDOCK:    6.81 KCAL/MOL
REMARK 923 INTER-LIGAND FREE ENERGY PREDICTED BY IDOCK:    0.13 KCAL/MOL
REMARK 924 INTRA-LIGAND FREE ENERGY PREDICTED BY IDOCK:    6.68 KCAL/MOL
REMARK 927      BINDING AFFINITY PREDICTED BY RF-SCORE:    0.00 PKD
ROOT
HETATM    1  C   UNL     1      -5.428   6.227  64.314  1.00  0.00    -0.018 C  
HETATM    2  C   UNL     1      -6.475   5.224  63.906  1.00  0.00    -0.029 A  
HETATM    3  C   UNL     1      -6.057   3.883  63.790  1.00  0.00    -0.014 A  
HETATM    4  C   UNL     1      -6.918   2.900  63.319  1.00  0.00    -0.039 A  
HETATM    5  C   UNL     1      -8.205   3.248  62.926  1.00  0.00    -0.073 A  
HETATM    6  C   UNL     1      -8.657   4.577  63.027  1.00  0.00    -0.112 A  
HETATM    7  C   UNL     1     -10.069   4.872  62.595  1.00  0.00     0.449 C  
HETATM    8  C   UNL     1      -7.807   5.568  63.574  1.00  0.00    -0.096 A  
ENDROOT
BRANCH   8   9
HETATM    9  N   UNL     1      -8.323   6.885  63.739  1.00  0.00    -0.345 N  
HETATM   10  C   UNL     1      -7.653   7.888  64.422  1.00  0.00    -0.116 C  
HETATM   11  H   UNL     1      -9.234   7.101  63.334  1.00  0.00     0.000 HD 
HETATM   12  O   UNL     1      -6.555   7.761  64.959  1.00  0.00    -0.047 OA 
BRANCH  10  13
HETATM   13  C   UNL     1      -8.434   9.193  64.629  1.00  0.00    -0.181 C  
BRANCH  13  14
HETATM   14  N   UNL     1      -9.788   9.038  65.220  1.00  0.00     0.167 NA 
HETATM   15  C   UNL     1     -10.222   7.620  65.080  1.00  0.00     3.393 C  
HETATM   16  C   UNL     1      -9.532   6.602  66.031  1.00  0.00     0.065 C  
HETATM   17  N   UNL     1      -9.513   6.985  67.457  1.00  0.00    -0.125 NA 
HETATM   18  C   UNL     1      -9.074   8.385  67.588  1.00  0.00    -0.135 C  
HETATM   19  C   UNL     1      -9.817   9.375  66.663  1.00  0.00    -0.245 C  
BRANCH  17  20
HETATM   20  C   UNL     1     -10.795   6.743  68.132  1.00  0.00    -0.228 C  
BRANCH  20  21
HETATM   21  C   UNL     1     -10.869   5.336  68.742  1.00  0.00     0.144 C  
BRANCH  21  22
HETATM   22  C   UNL     1      -9.898   5.105  69.913  1.00  0.00    -0.289 C  
HETATM   23  C   UNL     1      -9.462   6.394  70.658  1.00  0.00    -0.176 C  
HETATM   24  C   UNL     1      -8.338   6.154  71.668  1.00  0.00    -0.126 A  
HETATM   25  C   UNL     1     -10.674   7.093  71.268  1.00  0.00    -0.245 A  
HETATM   26  C   UNL     1     -11.436   6.473  72.273  1.00  0.00    -0.326 A  
HETATM   27  C   UNL     1      -7.426   7.192  71.939  1.00  0.00    -0.085 A  
HETATM   28  C   UNL     1      -6.356   6.992  72.814  1.00  0.00    -0.057 A  
HETATM   29  C   UNL     1     -12.616   7.056  72.733  1.00  0.00     0.684 A  
HETATM   30  C   UNL     1      -6.198   5.758  73.431  1.00  0.00    -0.062 A  
HETATM   31  C   UNL     1     -13.036   8.265  72.197  1.00  0.00    -0.287 A  
HETATM   32  F   UNL     1     -14.185   8.809  72.619  1.00  0.00    -0.476 F  
HETATM   33  C   UNL     1     -12.290   8.912  71.219  1.00  0.00    -0.342 A  
HETATM   34  F   UNL     1      -5.163   5.560  74.258  1.00  0.00    -0.023 F  
HETATM   35  C   UNL     1      -7.093   4.725  73.199  1.00  0.00    -0.079 A  
HETATM   36  C   UNL     1      -8.162   4.924  72.325  1.00  0.00    -0.119 A  
HETATM   37  C   UNL     1     -11.107   8.332  70.758  1.00  0.00    -0.280 A  
ENDBRANCH  21  22
ENDBRANCH  20  21
ENDBRANCH  17  20
ENDBRANCH  13  14
ENDBRANCH  10  13
ENDBRANCH   8   9
TORSDOF 6
ENDMDL
MODEL      270
REMARK 921   NORMALIZED FREE ENERGY PREDICTED BY IDOCK:    6.11 KCAL/MOL
REMARK 922        TOTAL FREE ENERGY PREDICTED BY IDOCK:    6.98 KCAL/MOL
REMARK 923 INTER-LIGAND FREE ENERGY PREDICTED BY IDOCK:    1.16 KCAL/MOL
REMARK 924 INTRA-LIGAND FREE ENERGY PREDICTED BY IDOCK:    5.83 KCAL/MOL
REMARK 927      BINDING AFFINITY PREDICTED BY RF-SCORE:    0.00 PKD
ROOT
HETATM    1  C   UNL     1     -11.195  14.711  68.718  1.00  0.00    -0.285 C  
HETATM    2  C   UNL     1     -12.008  14.414  69.950  1.00  0.00    -0.391 A  
HETATM    3  C   UNL     1     -12.331  15.510  70.776  1.00  0.00    -0.463 A  
HETATM    4  C   UNL     1     -12.986  15.329  71.987  1.00  0.00    -0.455 A  
HETATM    5  C   UNL     1     -13.302  14.043  72.409  1.00  0.00    -0.617 A  
HETATM    6  C   UNL     1     -12.995  12.925  71.612  1.00  0.00    -0.410 A  
HETATM    7  C   UNL     1     -13.382  11.565  72.132  1.00  0.00    -0.284 C  
HETATM    8  C   UNL     1     -12.393  13.110  70.345  1.00  0.00    -0.279 A  
ENDROOT
BRANCH   8   9
HETATM    9  N   UNL     1     -12.171  11.965  69.528  1.00  0.00    -0.192 N  
HETATM   10  C   UNL     1     -10.929  11.623  69.014  1.00  0.00    -0.233 C  
HETATM   11  H   UNL     1     -12.966  11.366  69.310  1.00  0.00     0.000 HD 
HETATM   12  O   UNL     1      -9.893  12.259  69.196  1.00  0.00     0.153 OA 
BRANCH  10  13
HETATM   13  C   UNL     1     -10.915  10.445  68.030  1.00  0.00    -0.291 C  
BRANCH  13  14
HETATM   14  N   UNL     1     -10.483  10.774  66.647  1.00  0.00    -0.245 NA 
HETATM   15  C   UNL     1     -11.578  11.513  65.958  1.00  0.00     0.102 C  
HETATM   16  C   UNL     1     -11.783  12.990  66.401  1.00  0.00    -0.390 C  
HETATM   17  N   UNL     1     -10.558  13.814  66.431  1.00  0.00    -0.281 NA 
HETATM   18  C   UNL     1      -9.484  13.080  67.121  1.00  0.00    -0.230 C  
HETATM   19  C   UNL     1      -9.277  11.633  66.621  1.00  0.00    -0.191 C  
BRANCH  17  20
HETATM   20  C   UNL     1     -10.144  14.273  65.098  1.00  0.00    -0.321 C  
BRANCH  20  21
HETATM   21  C   UNL     1      -9.535  15.683  65.137  1.00  0.00     0.454 C  
BRANCH  21  22
HETATM   22  C   UNL     1      -8.886  16.051  66.482  1.00  0.00    -0.340 C  
HETATM   23  C   UNL     1      -8.353  17.506  66.569  1.00  0.00    -0.304 C  
HETATM   24  C   UNL     1      -7.527  17.770  67.830  1.00  0.00    -0.206 A  
HETATM   25  C   UNL     1      -9.494  18.503  66.382  1.00  0.00    -0.304 A  
HETATM   26  C   UNL     1     -10.551  18.572  67.305  1.00  0.00    -0.453 A  
HETATM   27  C   UNL     1      -6.495  18.727  67.786  1.00  0.00    -0.217 A  
HETATM   28  C   UNL     1      -5.687  18.956  68.901  1.00  0.00    -0.215 A  
HETATM   29  C   UNL     1     -11.655  19.389  67.061  1.00  0.00     0.882 A  
HETATM   30  C   UNL     1      -5.911  18.237  70.069  1.00  0.00    -0.211 A  
HETATM   31  C   UNL     1     -11.703  20.147  65.900  1.00  0.00     2.006 A  
HETATM   32  F   UNL     1     -12.776  20.909  65.654  1.00  0.00     2.861 F  
HETATM   33  C   UNL     1     -10.659  20.116  64.982  1.00  0.00     0.497 A  
HETATM   34  F   UNL     1      -5.125  18.445  71.134  1.00  0.00    -0.234 F  
HETATM   35  C   UNL     1      -6.934  17.305  70.146  1.00  0.00     1.058 A  
HETATM   36  C   UNL     1      -7.742  17.076  69.033  1.00  0.00    -0.180 A  
HETATM   37  C   UNL     1      -9.553  19.300  65.224  1.00  0.00     1.367 A  
ENDBRANCH  21  22
ENDBRANCH  20  21
ENDBRANCH  17  20
ENDBRANCH  13  14
ENDBRANCH  10  13
ENDBRANCH   8   9
TORSDOF 6
ENDMDL
MODEL      271
REMARK 921   NORMALIZED FREE ENERGY PREDICTED BY IDOCK:    6.83 KCAL/MOL
REMARK 922        TOTAL FREE ENERGY PREDICTED BY IDOCK:    7.95 KCAL/MOL
REMARK 923 INTER-LIGAND FREE ENERGY PREDICTED BY IDOCK:   -1.26 KCAL/MOL
REMARK 924 INTRA-LIGAND FREE ENERGY PREDICTED BY IDOCK:    9.21 KCAL/MOL
REMARK 927      BINDING AFFINITY PREDICTED BY RF-SCORE:    0.00 PKD
ROOT
HETATM    1  C   UNL     1      -9.729  13.312  68.129  1.00  0.00    -0.227 C  
HETATM    2  C   UNL     1     -10.456  14.622  67.974  1.00  0.00    -0.236 A  
HETATM    3  C   UNL     1     -11.856  14.556  67.825  1.00  0.00    -0.390 A  
HETATM    4  C   UNL     1     -12.606  15.697  67.570  1.00  0.00     1.759 A  
HETATM    5  C   UNL     1     -11.964  16.922  67.431  1.00  0.00     1.618 A  
HETATM    6  C   UNL     1     -10.567  17.026  67.573  1.00  0.00    -0.310 A  
HETATM    7  C   UNL     1      -9.947  18.390  67.422  1.00  0.00    -0.347 C  
HETATM    8  C   UNL     1      -9.808  15.879  67.903  1.00  0.00    -0.218 A  
ENDROOT
BRANCH   8   9
HETATM    9  N   UNL     1      -8.410  16.034  68.122  1.00  0.00    -0.158 N  
HETATM   10  C   UNL     1      -7.599  15.027  68.624  1.00  0.00    -0.128 C  
HETATM   11  H   UNL     1      -7.982  16.932  67.897  1.00  0.00     0.000 HD 
HETATM   12  O   UNL     1      -7.985  13.903  68.937  1.00  0.00    -0.101 OA 
BRANCH  10  13
HETATM   13  C   UNL     1      -6.151  15.429  68.937  1.00  0.00    -0.098 C  
BRANCH  13  14
HETATM   14  N   UNL     1      -5.131  14.376  68.699  1.00  0.00    -0.090 NA 
HETATM   15  C   UNL     1      -5.222  13.357  69.782  1.00  0.00    -0.088 C  
HETATM   16  C   UNL     1      -6.442  12.396  69.710  1.00  0.00    -0.025 C  
HETATM   17  N   UNL     1      -6.664  11.758  68.396  1.00  0.00    -0.061 NA 
HETATM   18  C   UNL     1      -6.581  12.773  67.332  1.00  0.00    -0.136 C  
HETATM   19  C   UNL     1      -5.331  13.677  67.408  1.00  0.00     0.278 C  
BRANCH  17  20
HETATM   20  C   UNL     1      -5.761  10.626  68.150  1.00  0.00    -0.042 C  
BRANCH  20  21
HETATM   21  C   UNL     1      -5.361   9.913  69.450  1.00  0.00    -0.035 C  
BRANCH  21  22
HETATM   22  C   UNL     1      -6.545   9.324  70.235  1.00  0.00    -0.062 C  
HETATM   23  C   UNL     1      -7.794   8.994  69.375  1.00  0.00    -0.094 C  
HETATM   24  C   UNL     1      -9.018   8.617  70.211  1.00  0.00    -0.162 A  
HETATM   25  C   UNL     1      -7.450   7.950  68.315  1.00  0.00    -0.104 A  
HETATM   26  C   UNL     1      -7.052   6.653  68.682  1.00  0.00    -0.083 A  
HETATM   27  C   UNL     1     -10.304   8.904  69.714  1.00  0.00    -0.213 A  
HETATM   28  C   UNL     1     -11.442   8.623  70.473  1.00  0.00    -0.208 A  
HETATM   29  C   UNL     1      -6.613   5.745  67.718  1.00  0.00    -0.053 A  
HETATM   30  C   UNL     1     -11.303   8.045  71.728  1.00  0.00    -0.270 A  
HETATM   31  C   UNL     1      -6.576   6.127  66.384  1.00  0.00    -0.048 A  
HETATM   32  F   UNL     1      -6.126   5.264  65.464  1.00  0.00    -0.028 F  
HETATM   33  C   UNL     1      -6.987   7.395  65.992  1.00  0.00    -0.061 A  
HETATM   34  F   UNL     1     -12.393   7.790  72.463  1.00  0.00    -0.298 F  
HETATM   35  C   UNL     1     -10.050   7.732  72.233  1.00  0.00    -0.277 A  
HETATM   36  C   UNL     1      -8.913   8.011  71.476  1.00  0.00    -0.180 A  
HETATM   37  C   UNL     1      -7.429   8.305  66.953  1.00  0.00    -0.088 A  
ENDBRANCH  21  22
ENDBRANCH  20  21
ENDBRANCH  17  20
ENDBRANCH  13  14
ENDBRANCH  10  13
ENDBRANCH   8   9
TORSDOF 6
ENDMDL
MODEL      272
REMARK 921   NORMALIZED FREE ENERGY PREDICTED BY IDOCK:    7.09 KCAL/MOL
REMARK 922        TOTAL FREE ENERGY PREDICTED BY IDOCK:    8.31 KCAL/MOL
REMARK 923 INTER-LIGAND FREE ENERGY PREDICTED BY IDOCK:    4.82 KCAL/MOL
REMARK 924 INTRA-LIGAND FREE ENERGY PREDICTED BY IDOCK:    3.49 KCAL/MOL
REMARK 927      BINDING AFFINITY PREDICTED BY RF-SCORE:    0.00 PKD
ROOT
HETATM    1  C   UNL     1      -7.997  10.326  66.458  1.00  0.00    -0.118 C  
HETATM    2  C   UNL     1      -6.997  10.062  65.364  1.00  0.00    -0.127 A  
HETATM    3  C   UNL     1      -6.331  11.184  64.829  1.00  0.00     0.846 A  
HETATM    4  C   UNL     1      -5.469  11.059  63.747  1.00  0.00     0.273 A  
HETATM    5  C   UNL     1      -5.280   9.813  63.161  1.00  0.00    -0.077 A  
HETATM    6  C   UNL     1      -5.928   8.671  63.668  1.00  0.00    -0.072 A  
HETATM    7  C   UNL     1      -5.661   7.354  62.987  1.00  0.00    -0.049 C  
HETATM    8  C   UNL     1      -6.751   8.781  64.814  1.00  0.00    -0.069 A  
ENDROOT
BRANCH   8   9
HETATM    9  N   UNL     1      -7.325   7.593  65.350  1.00  0.00    -0.068 N  
HETATM   10  C   UNL     1      -6.942   7.040  66.562  1.00  0.00    -0.069 C  
HETATM   11  H   UNL     1      -8.055   7.125  64.814  1.00  0.00     0.000 HD 
HETATM   12  O   UNL     1      -6.076   7.500  67.303  1.00  0.00    -0.044 OA 
BRANCH  10  13
HETATM   13  C   UNL     1      -7.562   5.677  66.900  1.00  0.00    -0.096 C  
BRANCH  13  14
HETATM   14  N   UNL     1      -8.986   5.710  67.321  1.00  0.00    -0.112 NA 
HETATM   15  C   UNL     1      -9.202   6.881  68.216  1.00  0.00    -0.123 C  
HETATM   16  C   UNL     1      -9.224   8.271  67.521  1.00  0.00    -0.137 C  
HETATM   17  N   UNL     1     -10.104   8.370  66.339  1.00  0.00    -0.240 NA 
HETATM   18  C   UNL     1      -9.878   7.214  65.455  1.00  0.00     1.218 C  
HETATM   19  C   UNL     1      -9.912   5.846  66.172  1.00  0.00     0.013 C  
BRANCH  17  20
HETATM   20  C   UNL     1     -11.521   8.526  66.691  1.00  0.00     2.796 C  
BRANCH  20  21
HETATM   21  C   UNL     1     -11.710   8.927  68.162  1.00  0.00     1.895 C  
BRANCH  21  22
HETATM   22  C   UNL     1     -11.419  10.409  68.452  1.00  0.00    -0.227 C  
HETATM   23  C   UNL     1     -11.368  10.778  69.959  1.00  0.00    -0.397 C  
HETATM   24  C   UNL     1     -11.293  12.286  70.207  1.00  0.00     0.299 A  
HETATM   25  C   UNL     1     -10.256  10.001  70.659  1.00  0.00    -0.080 A  
HETATM   26  C   UNL     1      -8.908  10.196  70.312  1.00  0.00     0.231 A  
HETATM   27  C   UNL     1     -11.857  12.816  71.383  1.00  0.00     1.098 A  
HETATM   28  C   UNL     1     -11.855  14.193  71.618  1.00  0.00     0.099 A  
HETATM   29  C   UNL     1      -7.909   9.392  70.859  1.00  0.00    -0.097 A  
HETATM   30  C   UNL     1     -11.281  15.046  70.684  1.00  0.00    -0.242 A  
HETATM   31  C   UNL     1      -8.251   8.396  71.763  1.00  0.00    -0.152 A  
HETATM   32  F   UNL     1      -7.294   7.605  72.265  1.00  0.00    -0.067 F  
HETATM   33  C   UNL     1      -9.573   8.197  72.142  1.00  0.00    -0.308 A  
HETATM   34  F   UNL     1     -11.293  16.368  70.901  1.00  0.00    -0.393 F  
HETATM   35  C   UNL     1     -10.699  14.549  69.528  1.00  0.00    -0.168 A  
HETATM   36  C   UNL     1     -10.700  13.174  69.293  1.00  0.00     0.022 A  
HETATM   37  C   UNL     1     -10.575   9.001  71.597  1.00  0.00    -0.434 A  
ENDBRANCH  21  22
ENDBRANCH  20  21
ENDBRANCH  17  20
ENDBRANCH  13  14
ENDBRANCH  10  13
ENDBRANCH   8   9
TORSDOF 6
ENDMDL
MODEL      273
REMARK 921   NORMALIZED FREE ENERGY PREDICTED BY IDOCK:    8.03 KCAL/MOL
REMARK 922        TOTAL FREE ENERGY PREDICTED BY IDOCK:    9.58 KCAL/MOL
REMARK 923 INTER-LIGAND FREE ENERGY PREDICTED BY IDOCK:   -2.09 KCAL/MOL
REMARK 924 INTRA-LIGAND FREE ENERGY PREDICTED BY IDOCK:   11.67 KCAL/MOL
REMARK 927      BINDING AFFINITY PREDICTED BY RF-SCORE:    0.00 PKD
ROOT
HETATM    1  C   UNL     1      -9.365  14.977  70.091  1.00  0.00     0.468 C  
HETATM    2  C   UNL     1      -8.126  14.304  69.562  1.00  0.00     0.366 A  
HETATM    3  C   UNL     1      -7.026  14.223  70.440  1.00  0.00     0.317 A  
HETATM    4  C   UNL     1      -5.804  13.716  70.015  1.00  0.00    -0.139 A  
HETATM    5  C   UNL     1      -5.652  13.310  68.696  1.00  0.00    -0.076 A  
HETATM    6  C   UNL     1      -6.729  13.377  67.790  1.00  0.00    -0.163 A  
HETATM    7  C   UNL     1      -6.489  12.905  66.381  1.00  0.00     2.261 C  
HETATM    8  C   UNL     1      -7.994  13.824  68.237  1.00  0.00    -0.146 A  
ENDROOT
BRANCH   8   9
HETATM    9  N   UNL     1      -9.082  13.802  67.318  1.00  0.00    -0.222 N  
HETATM   10  C   UNL     1      -9.364  14.840  66.444  1.00  0.00    -0.291 C  
HETATM   11  H   UNL     1      -9.684  12.979  67.303  1.00  0.00     0.000 HD 
HETATM   12  O   UNL     1      -8.723  15.885  66.362  1.00  0.00    -0.275 OA 
BRANCH  10  13
HETATM   13  C   UNL     1     -10.665  14.701  65.640  1.00  0.00    -0.332 C  
BRANCH  13  14
HETATM   14  N   UNL     1     -11.059  13.311  65.299  1.00  0.00    -0.285 NA 
HETATM   15  C   UNL     1      -9.852  12.439  65.339  1.00  0.00    -0.183 C  
HETATM   16  C   UNL     1      -9.311  12.093  66.755  1.00  0.00    -0.212 C  
HETATM   17  N   UNL     1     -10.322  11.599  67.712  1.00  0.00    -0.179 NA 
HETATM   18  C   UNL     1     -11.509  12.471  67.673  1.00  0.00    -0.334 C  
HETATM   19  C   UNL     1     -12.047  12.753  66.252  1.00  0.00    -0.332 C  
BRANCH  17  20
HETATM   20  C   UNL     1     -10.669  10.187  67.501  1.00  0.00    -0.290 C  
BRANCH  20  21
HETATM   21  C   UNL     1     -10.476   9.349  68.774  1.00  0.00    -0.236 C  
BRANCH  21  22
HETATM   22  C   UNL     1     -10.078   7.887  68.511  1.00  0.00    -0.216 C  
HETATM   23  C   UNL     1      -9.626   7.589  67.056  1.00  0.00    -0.221 C  
HETATM   24  C   UNL     1      -9.447   6.096  66.776  1.00  0.00    -0.164 A  
HETATM   25  C   UNL     1      -8.392   8.415  66.703  1.00  0.00    -0.110 A  
HETATM   26  C   UNL     1      -7.177   8.226  67.383  1.00  0.00    -0.084 A  
HETATM   27  C   UNL     1      -9.670   5.611  65.473  1.00  0.00     0.226 A  
HETATM   28  C   UNL     1      -9.568   4.246  65.192  1.00  0.00    -0.185 A  
HETATM   29  C   UNL     1      -6.092   9.071  67.149  1.00  0.00    -0.058 A  
HETATM   30  C   UNL     1      -9.234   3.361  66.209  1.00  0.00    -0.159 A  
HETATM   31  C   UNL     1      -6.214  10.102  66.228  1.00  0.00    -0.078 A  
HETATM   32  F   UNL     1      -5.181  10.930  66.026  1.00  0.00    -0.067 F  
HETATM   33  C   UNL     1      -7.396  10.296  65.524  1.00  0.00    -0.149 A  
HETATM   34  F   UNL     1      -9.153   2.050  65.944  1.00  0.00    -0.125 F  
HETATM   35  C   UNL     1      -8.988   3.814  67.496  1.00  0.00    -0.157 A  
HETATM   36  C   UNL     1      -9.089   5.176  67.777  1.00  0.00    -0.119 A  
HETATM   37  C   UNL     1      -8.483   9.452  65.755  1.00  0.00    -0.142 A  
ENDBRANCH  21  22
ENDBRANCH  20  21
ENDBRANCH  17  20
ENDBRANCH  13  14
ENDBRANCH  10  13
ENDBRANCH   8   9
TORSDOF 6
ENDMDL
MODEL      274
REMARK 921   NORMALIZED FREE ENERGY PREDICTED BY IDOCK:    8.35 KCAL/MOL
REMARK 922        TOTAL FREE ENERGY PREDICTED BY IDOCK:   10.01 KCAL/MOL
REMARK 923 INTER-LIGAND FREE ENERGY PREDICTED BY IDOCK:    1.32 KCAL/MOL
REMARK 924 INTRA-LIGAND FREE ENERGY PREDICTED BY IDOCK:    8.69 KCAL/MOL
REMARK 927      BINDING AFFINITY PREDICTED BY RF-SCORE:    0.00 PKD
ROOT
HETATM    1  C   UNL     1     -13.536  11.633  64.271  1.00  0.00     1.528 C  
HETATM    2  C   UNL     1     -12.699  12.644  65.011  1.00  0.00    -0.403 A  
HETATM    3  C   UNL     1     -13.262  13.924  65.188  1.00  0.00     0.060 A  
HETATM    4  C   UNL     1     -12.531  14.956  65.763  1.00  0.00     0.202 A  
HETATM    5  C   UNL     1     -11.214  14.734  66.143  1.00  0.00    -0.337 A  
HETATM    6  C   UNL     1     -10.618  13.469  65.980  1.00  0.00    -0.285 A  
HETATM    7  C   UNL     1      -9.190  13.303  66.430  1.00  0.00    -0.133 C  
HETATM    8  C   UNL     1     -11.381  12.396  65.462  1.00  0.00    -0.346 A  
ENDROOT
BRANCH   8   9
HETATM    9  N   UNL     1     -10.774  11.110  65.388  1.00  0.00    -0.231 N  
HETATM   10  C   UNL     1     -10.356  10.397  66.502  1.00  0.00    -0.224 C  
HETATM   11  H   UNL     1     -10.640  10.691  64.468  1.00  0.00     0.000 HD 
HETATM   12  O   UNL     1     -10.455  10.786  67.664  1.00  0.00    -0.190 OA 
BRANCH  10  13
HETATM   13  C   UNL     1      -9.585   9.101  66.215  1.00  0.00    -0.255 C  
BRANCH  13  14
HETATM   14  N   UNL     1      -8.116   9.254  66.063  1.00  0.00    -0.109 NA 
HETATM   15  C   UNL     1      -7.838  10.382  65.130  1.00  0.00    -0.122 C  
HETATM   16  C   UNL     1      -8.073  11.809  65.701  1.00  0.00     0.685 C  
HETATM   17  N   UNL     1      -7.448  12.073  67.013  1.00  0.00    -0.136 NA 
HETATM   18  C   UNL     1      -7.735  10.958  67.932  1.00  0.00    -0.104 C  
HETATM   19  C   UNL     1      -7.443   9.558  67.347  1.00  0.00    -0.091 C  
BRANCH  17  20
HETATM   20  C   UNL     1      -6.009  12.351  66.916  1.00  0.00     0.194 C  
BRANCH  20  21
HETATM   21  C   UNL     1      -5.608  13.600  67.715  1.00  0.00    -0.075 C  
BRANCH  21  22
HETATM   22  C   UNL     1      -6.404  14.864  67.350  1.00  0.00     0.056 C  
HETATM   23  C   UNL     1      -7.552  15.215  68.333  1.00  0.00    -0.117 C  
HETATM   24  C   UNL     1      -8.454  16.343  67.827  1.00  0.00    -0.172 A  
HETATM   25  C   UNL     1      -6.995  15.475  69.730  1.00  0.00    -0.132 A  
HETATM   26  C   UNL     1      -6.126  16.553  69.972  1.00  0.00    -0.151 A  
HETATM   27  C   UNL     1      -9.808  16.362  68.210  1.00  0.00    -0.229 A  
HETATM   28  C   UNL     1     -10.673  17.346  67.725  1.00  0.00    -0.332 A  
HETATM   29  C   UNL     1      -5.517  16.709  71.217  1.00  0.00     0.206 A  
HETATM   30  C   UNL     1     -10.187  18.321  66.863  1.00  0.00    -0.375 A  
HETATM   31  C   UNL     1      -5.781  15.795  72.228  1.00  0.00     1.013 A  
HETATM   32  F   UNL     1      -5.173  15.930  73.413  1.00  0.00     0.537 F  
HETATM   33  C   UNL     1      -6.656  14.735  72.023  1.00  0.00     1.372 A  
HETATM   34  F   UNL     1     -11.019  19.255  66.385  1.00  0.00    -0.469 F  
HETATM   35  C   UNL     1      -8.853  18.339  66.488  1.00  0.00    -0.284 A  
HETATM   36  C   UNL     1      -7.988  17.357  66.972  1.00  0.00    -0.241 A  
HETATM   37  C   UNL     1      -7.268  14.577  70.779  1.00  0.00     1.010 A  
ENDBRANCH  21  22
ENDBRANCH  20  21
ENDBRANCH  17  20
ENDBRANCH  13  14
ENDBRANCH  10  13
ENDBRANCH   8   9
TORSDOF 6
ENDMDL
MODEL      275
REMARK 921   NORMALIZED FREE ENERGY PREDICTED BY IDOCK:    9.95 KCAL/MOL
REMARK 922        TOTAL FREE ENERGY PREDICTED BY IDOCK:   12.17 KCAL/MOL
REMARK 923 INTER-LIGAND FREE ENERGY PREDICTED BY IDOCK:    5.28 KCAL/MOL
REMARK 924 INTRA-LIGAND FREE ENERGY PREDICTED BY IDOCK:    6.89 KCAL/MOL
REMARK 927      BINDING AFFINITY PREDICTED BY RF-SCORE:    0.00 PKD
ROOT
HETATM    1  C   UNL     1      -9.021  13.276  70.440  1.00  0.00     5.017 C  
HETATM    2  C   UNL     1      -9.716  14.334  69.624  1.00  0.00     0.530 A  
HETATM    3  C   UNL     1      -9.749  15.634  70.168  1.00  0.00     0.135 A  
HETATM    4  C   UNL     1     -10.455  16.655  69.545  1.00  0.00    -0.281 A  
HETATM    5  C   UNL     1     -11.167  16.386  68.383  1.00  0.00    -0.324 A  
HETATM    6  C   UNL     1     -11.159  15.099  67.812  1.00  0.00    -0.313 A  
HETATM    7  C   UNL     1     -11.944  14.890  66.544  1.00  0.00    -0.085 C  
HETATM    8  C   UNL     1     -10.382  14.074  68.402  1.00  0.00    -0.251 A  
ENDROOT
BRANCH   8   9
HETATM    9  N   UNL     1     -10.329  12.808  67.753  1.00  0.00    -0.217 N  
HETATM   10  C   UNL     1     -10.861  12.572  66.495  1.00  0.00    -0.256 C  
HETATM   11  H   UNL     1      -9.877  12.035  68.240  1.00  0.00     0.000 HD 
HETATM   12  O   UNL     1     -11.434  13.412  65.804  1.00  0.00    -0.310 OA 
BRANCH  10  13
HETATM   13  C   UNL     1     -10.846  11.110  66.026  1.00  0.00    -0.166 C  
BRANCH  13  14
HETATM   14  N   UNL     1      -9.791  10.258  66.631  1.00  0.00    -0.196 NA 
HETATM   15  C   UNL     1     -10.435   9.189  67.444  1.00  0.00    -0.271 C  
HETATM   16  C   UNL     1     -11.109   8.039  66.643  1.00  0.00     1.066 C  
HETATM   17  N   UNL     1     -10.274   7.435  65.586  1.00  0.00     1.355 NA 
HETATM   18  C   UNL     1      -9.648   8.497  64.781  1.00  0.00     1.214 C  
HETATM   19  C   UNL     1      -8.946   9.596  65.610  1.00  0.00    -0.169 C  
BRANCH  17  20
HETATM   20  C   UNL     1      -9.284   6.485  66.112  1.00  0.00    -0.096 C  
BRANCH  20  21
HETATM   21  C   UNL     1      -9.946   5.282  66.800  1.00  0.00    -0.224 C  
BRANCH  21  22
HETATM   22  C   UNL     1      -9.266   4.854  68.111  1.00  0.00    -0.151 C  
HETATM   23  C   UNL     1      -7.715   4.879  68.076  1.00  0.00    -0.083 C  
HETATM   24  C   UNL     1      -7.075   4.246  69.313  1.00  0.00    -0.050 A  
HETATM   25  C   UNL     1      -7.211   6.294  67.800  1.00  0.00    -0.083 A  
HETATM   26  C   UNL     1      -7.454   7.337  68.710  1.00  0.00    -0.102 A  
HETATM   27  C   UNL     1      -5.818   3.623  69.192  1.00  0.00    -0.023 A  
HETATM   28  C   UNL     1      -5.227   2.988  70.287  1.00  0.00    -0.004 A  
HETATM   29  C   UNL     1      -7.109   8.651  68.393  1.00  0.00    -0.077 A  
HETATM   30  C   UNL     1      -5.885   2.980  71.511  1.00  0.00    -0.013 A  
HETATM   31  C   UNL     1      -6.512   8.926  67.172  1.00  0.00    -0.061 A  
HETATM   32  F   UNL     1      -6.208  10.192  66.857  1.00  0.00    -0.059 F  
HETATM   33  C   UNL     1      -6.238   7.910  66.264  1.00  0.00    -0.046 A  
HETATM   34  F   UNL     1      -5.327   2.358  72.557  1.00  0.00     0.000 F  
HETATM   35  C   UNL     1      -7.113   3.605  71.663  1.00  0.00    -0.035 A  
HETATM   36  C   UNL     1      -7.703   4.240  70.570  1.00  0.00    -0.052 A  
HETATM   37  C   UNL     1      -6.581   6.594  66.578  1.00  0.00    -0.044 A  
ENDBRANCH  21  22
ENDBRANCH  20  21
ENDBRANCH  17  20
ENDBRANCH  13  14
ENDBRANCH  10  13
ENDBRANCH   8   9
TORSDOF 6
ENDMDL
MODEL      276
REMARK 921   NORMALIZED FREE ENERGY PREDICTED BY IDOCK:   10.47 KCAL/MOL
REMARK 922        TOTAL FREE ENERGY PREDICTED BY IDOCK:   12.87 KCAL/MOL
REMARK 923 INTER-LIGAND FREE ENERGY PREDICTED BY IDOCK:   -3.13 KCAL/MOL
REMARK 924 INTRA-LIGAND FREE ENERGY PREDICTED BY IDOCK:   16.01 KCAL/MOL
REMARK 927      BINDING AFFINITY PREDICTED BY RF-SCORE:    0.00 PKD
ROOT
HETATM    1  C   UNL     1      -7.307   6.985  72.239  1.00  0.00    -0.085 C  
HETATM    2  C   UNL     1      -6.945   6.023  71.138  1.00  0.00    -0.068 A  
HETATM    3  C   UNL     1      -5.669   5.430  71.210  1.00  0.00    -0.013 A  
HETATM    4  C   UNL     1      -5.199   4.611  70.191  1.00  0.00     0.000 A  
HETATM    5  C   UNL     1      -5.987   4.396  69.067  1.00  0.00    -0.022 A  
HETATM    6  C   UNL     1      -7.266   4.973  68.960  1.00  0.00    -0.054 A  
HETATM    7  C   UNL     1      -8.065   4.682  67.717  1.00  0.00    -0.096 C  
HETATM    8  C   UNL     1      -7.778   5.749  70.027  1.00  0.00    -0.087 A  
ENDROOT
BRANCH   8   9
HETATM    9  N   UNL     1      -9.107   6.248  69.923  1.00  0.00    -0.143 N  
HETATM   10  C   UNL     1     -10.177   5.485  69.482  1.00  0.00    -0.261 C  
HETATM   11  H   UNL     1      -9.281   7.219  70.185  1.00  0.00     0.000 HD 
HETATM   12  O   UNL     1     -10.106   4.309  69.133  1.00  0.00    -0.083 OA 
BRANCH  10  13
HETATM   13  C   UNL     1     -11.501   6.239  69.289  1.00  0.00    -0.218 C  
BRANCH  13  14
HETATM   14  N   UNL     1     -11.422   7.714  69.439  1.00  0.00     0.277 NA 
HETATM   15  C   UNL     1     -11.165   8.046  70.868  1.00  0.00    -0.266 C  
HETATM   16  C   UNL     1      -9.722   7.771  71.379  1.00  0.00    -0.166 C  
HETATM   17  N   UNL     1      -8.641   8.314  70.533  1.00  0.00    -0.127 NA 
HETATM   18  C   UNL     1      -8.898   7.974  69.123  1.00  0.00    -0.145 C  
HETATM   19  C   UNL     1     -10.326   8.307  68.637  1.00  0.00    -0.200 C  
BRANCH  17  20
HETATM   20  C   UNL     1      -8.432   9.755  70.724  1.00  0.00     0.331 C  
BRANCH  20  21
HETATM   21  C   UNL     1      -7.721  10.399  69.525  1.00  0.00    -0.159 C  
BRANCH  21  22
HETATM   22  C   UNL     1      -8.646  10.707  68.336  1.00  0.00    -0.134 C  
HETATM   23  C   UNL     1      -9.386  12.068  68.424  1.00  0.00    -0.175 C  
HETATM   24  C   UNL     1     -10.454  12.244  67.342  1.00  0.00    -0.228 A  
HETATM   25  C   UNL     1      -8.383  13.218  68.466  1.00  0.00    -0.075 A  
HETATM   26  C   UNL     1      -7.528  13.472  67.380  1.00  0.00    -0.136 A  
HETATM   27  C   UNL     1     -11.585  13.035  67.618  1.00  0.00    -0.403 A  
HETATM   28  C   UNL     1     -12.605  13.175  66.674  1.00  0.00     0.197 A  
HETATM   29  C   UNL     1      -6.526  14.437  67.474  1.00  0.00    -0.066 A  
HETATM   30  C   UNL     1     -12.495  12.533  65.446  1.00  0.00    -0.240 A  
HETATM   31  C   UNL     1      -6.378  15.158  68.650  1.00  0.00    -0.088 A  
HETATM   32  F   UNL     1      -5.396  16.063  68.749  1.00  0.00    -0.099 F  
HETATM   33  C   UNL     1      -7.224  14.944  69.731  1.00  0.00    -0.128 A  
HETATM   34  F   UNL     1     -13.480  12.654  64.547  1.00  0.00    -0.211 F  
HETATM   35  C   UNL     1     -11.381  11.767  65.141  1.00  0.00    -0.281 A  
HETATM   36  C   UNL     1     -10.362  11.627  66.083  1.00  0.00    -0.280 A  
HETATM   37  C   UNL     1      -8.230  13.980  69.640  1.00  0.00     0.796 A  
ENDBRANCH  21  22
ENDBRANCH  20  21
ENDBRANCH  17  20
ENDBRANCH  13  14
ENDBRANCH  10  13
ENDBRANCH   8   9
TORSDOF 6
ENDMDL
MODEL      277
REMARK 921   NORMALIZED FREE ENERGY PREDICTED BY IDOCK:   11.53 KCAL/MOL
REMARK 922        TOTAL FREE ENERGY PREDICTED BY IDOCK:   14.31 KCAL/MOL
REMARK 923 INTER-LIGAND FREE ENERGY PREDICTED BY IDOCK:    9.71 KCAL/MOL
REMARK 924 INTRA-LIGAND FREE ENERGY PREDICTED BY IDOCK:    4.59 KCAL/MOL
REMARK 927      BINDING AFFINITY PREDICTED BY RF-SCORE:    0.00 PKD
ROOT
HETATM    1  C   UNL     1     -13.009  13.896  70.369  1.00  0.00    -0.087 C  
HETATM    2  C   UNL     1     -11.646  14.493  70.599  1.00  0.00    -0.278 A  
HETATM    3  C   UNL     1     -11.379  14.981  71.894  1.00  0.00    -0.281 A  
HETATM    4  C   UNL     1     -10.192  15.644  72.181  1.00  0.00     2.679 A  
HETATM    5  C   UNL     1      -9.264  15.856  71.169  1.00  0.00     3.430 A  
HETATM    6  C   UNL     1      -9.497  15.383  69.864  1.00  0.00    -0.063 A  
HETATM    7  C   UNL     1      -8.436  15.640  68.826  1.00  0.00    -0.192 C  
HETATM    8  C   UNL     1     -10.671  14.645  69.584  1.00  0.00    -0.147 A  
ENDROOT
BRANCH   8   9
HETATM    9  N   UNL     1     -10.836  14.110  68.276  1.00  0.00    -0.241 N  
HETATM   10  C   UNL     1      -9.776  13.796  67.439  1.00  0.00    -0.235 C  
HETATM   11  H   UNL     1     -11.784  13.949  67.935  1.00  0.00     0.000 HD 
HETATM   12  O   UNL     1      -8.589  13.944  67.722  1.00  0.00    -0.159 OA 
BRANCH  10  13
HETATM   13  C   UNL     1     -10.153  13.377  66.011  1.00  0.00    -0.304 C  
BRANCH  13  14
HETATM   14  N   UNL     1     -11.338  12.490  65.898  1.00  0.00    -0.323 NA 
HETATM   15  C   UNL     1     -10.986  11.310  65.060  1.00  0.00    -0.156 C  
HETATM   16  C   UNL     1     -10.073  10.247  65.734  1.00  0.00    -0.255 C  
HETATM   17  N   UNL     1     -10.507   9.802  67.073  1.00  0.00    -0.239 NA 
HETATM   18  C   UNL     1     -10.845  10.975  67.899  1.00  0.00    -0.237 C  
HETATM   19  C   UNL     1     -11.793  11.984  67.215  1.00  0.00    -0.187 C  
BRANCH  17  20
HETATM   20  C   UNL     1     -11.604   8.827  67.026  1.00  0.00     2.722 C  
BRANCH  20  21
HETATM   21  C   UNL     1     -11.108   7.417  66.672  1.00  0.00     0.605 C  
BRANCH  21  22
HETATM   22  C   UNL     1      -9.768   7.039  67.326  1.00  0.00    -0.189 C  
HETATM   23  C   UNL     1      -9.653   5.553  67.759  1.00  0.00    -0.138 C  
HETATM   24  C   UNL     1      -8.404   5.265  68.594  1.00  0.00    -0.089 A  
HETATM   25  C   UNL     1      -9.787   4.634  66.547  1.00  0.00    -0.241 A  
HETATM   26  C   UNL     1      -8.839   4.664  65.510  1.00  0.00    -0.134 A  
HETATM   27  C   UNL     1      -8.444   4.237  69.555  1.00  0.00    -0.094 A  
HETATM   28  C   UNL     1      -7.341   3.980  70.373  1.00  0.00    -0.042 A  
HETATM   29  C   UNL     1      -9.035   3.920  64.346  1.00  0.00    -0.128 A  
HETATM   30  C   UNL     1      -6.189   4.743  70.228  1.00  0.00    -0.022 A  
HETATM   31  C   UNL     1     -10.173   3.137  64.218  1.00  0.00    -0.095 A  
HETATM   32  F   UNL     1     -10.374   2.447  63.088  1.00  0.00    -0.104 F  
HETATM   33  C   UNL     1     -11.114   3.071  65.238  1.00  0.00     2.456 A  
HETATM   34  F   UNL     1      -5.137   4.508  71.023  1.00  0.00     0.000 F  
HETATM   35  C   UNL     1      -6.115   5.746  69.274  1.00  0.00    -0.031 A  
HETATM   36  C   UNL     1      -7.215   6.003  68.457  1.00  0.00    -0.084 A  
HETATM   37  C   UNL     1     -10.921   3.813  66.404  1.00  0.00     2.596 A  
ENDBRANCH  21  22
ENDBRANCH  20  21
ENDBRANCH  17  20
ENDBRANCH  13  14
ENDBRANCH  10  13
ENDBRANCH   8   9
TORSDOF 6
ENDMDL
MODEL      278
REMARK 921   NORMALIZED FREE ENERGY PREDICTED BY IDOCK:   12.08 KCAL/MOL
REMARK 922        TOTAL FREE ENERGY PREDICTED BY IDOCK:   15.05 KCAL/MOL
REMARK 923 INTER-LIGAND FREE ENERGY PREDICTED BY IDOCK:    7.30 KCAL/MOL
REMARK 924 INTRA-LIGAND FREE ENERGY PREDICTED BY IDOCK:    7.75 KCAL/MOL
REMARK 927      BINDING AFFINITY PREDICTED BY RF-SCORE:    0.00 PKD
ROOT
HETATM    1  C   UNL     1      -6.144  11.927  69.564  1.00  0.00    -0.108 C  
HETATM    2  C   UNL     1      -7.478  11.735  68.892  1.00  0.00    -0.080 A  
HETATM    3  C   UNL     1      -8.234  10.615  69.294  1.00  0.00    -0.122 A  
HETATM    4  C   UNL     1      -9.428  10.291  68.662  1.00  0.00    -0.169 A  
HETATM    5  C   UNL     1      -9.872  11.064  67.597  1.00  0.00    -0.192 A  
HETATM    6  C   UNL     1      -9.142  12.189  67.167  1.00  0.00    -0.189 A  
HETATM    7  C   UNL     1      -9.696  12.985  66.015  1.00  0.00    -0.223 C  
HETATM    8  C   UNL     1      -7.964  12.565  67.854  1.00  0.00    -0.157 A  
ENDROOT
BRANCH   8   9
HETATM    9  N   UNL     1      -7.296  13.755  67.447  1.00  0.00    -0.299 N  
HETATM   10  C   UNL     1      -5.967  13.788  67.053  1.00  0.00     1.140 C  
HETATM   11  H   UNL     1      -7.822  14.628  67.446  1.00  0.00     0.000 HD 
HETATM   12  O   UNL     1      -5.221  12.812  67.012  1.00  0.00    -0.340 OA 
BRANCH  10  13
HETATM   13  C   UNL     1      -5.379  15.183  66.800  1.00  0.00     1.686 C  
BRANCH  13  14
HETATM   14  N   UNL     1      -6.198  16.073  65.937  1.00  0.00     2.174 NA 
HETATM   15  C   UNL     1      -7.626  15.971  66.348  1.00  0.00     0.085 C  
HETATM   16  C   UNL     1      -8.000  16.678  67.681  1.00  0.00    -0.174 C  
HETATM   17  N   UNL     1      -7.538  18.075  67.805  1.00  0.00    -0.217 NA 
HETATM   18  C   UNL     1      -6.123  18.166  67.405  1.00  0.00    -0.156 C  
HETATM   19  C   UNL     1      -5.799  17.495  66.052  1.00  0.00    -0.138 C  
BRANCH  17  20
HETATM   20  C   UNL     1      -8.382  19.025  67.067  1.00  0.00    -0.276 C  
BRANCH  20  21
HETATM   21  C   UNL     1      -9.830  19.027  67.577  1.00  0.00    -0.386 C  
BRANCH  21  22
HETATM   22  C   UNL     1     -10.804  18.210  66.711  1.00  0.00    -0.078 C  
HETATM   23  C   UNL     1     -10.559  16.678  66.728  1.00  0.00    -0.214 C  
HETATM   24  C   UNL     1     -11.399  15.923  65.696  1.00  0.00     0.128 A  
HETATM   25  C   UNL     1     -10.717  16.130  68.144  1.00  0.00    -0.315 A  
HETATM   26  C   UNL     1     -11.954  16.189  68.809  1.00  0.00     0.012 A  
HETATM   27  C   UNL     1     -10.895  14.732  65.140  1.00  0.00    -0.417 A  
HETATM   28  C   UNL     1     -11.610  14.045  64.156  1.00  0.00    -0.289 A  
HETATM   29  C   UNL     1     -12.061  15.809  70.146  1.00  0.00    -0.355 A  
HETATM   30  C   UNL     1     -12.837  14.538  63.731  1.00  0.00     0.931 A  
HETATM   31  C   UNL     1     -10.936  15.359  70.823  1.00  0.00    -0.311 A  
HETATM   32  F   UNL     1     -11.035  15.022  72.115  1.00  0.00    -0.433 F  
HETATM   33  C   UNL     1      -9.706  15.267  70.183  1.00  0.00     0.117 A  
HETATM   34  F   UNL     1     -13.516  13.888  62.777  1.00  0.00     1.631 F  
HETATM   35  C   UNL     1     -13.368  15.696  64.279  1.00  0.00     2.192 A  
HETATM   36  C   UNL     1     -12.655  16.383  65.261  1.00  0.00     3.063 A  
HETATM   37  C   UNL     1      -9.595  15.646  68.844  1.00  0.00    -0.224 A  
ENDBRANCH  21  22
ENDBRANCH  20  21
ENDBRANCH  17  20
ENDBRANCH  13  14
ENDBRANCH  10  13
ENDBRANCH   8   9
TORSDOF 6
ENDMDL
MODEL      279
REMARK 921   NORMALIZED FREE ENERGY PREDICTED BY IDOCK:   13.49 KCAL/MOL
REMARK 922        TOTAL FREE ENERGY PREDICTED BY IDOCK:   16.95 KCAL/MOL
REMARK 923 INTER-LIGAND FREE ENERGY PREDICTED BY IDOCK:    9.27 KCAL/MOL
REMARK 924 INTRA-LIGAND FREE ENERGY PREDICTED BY IDOCK:    7.68 KCAL/MOL
REMARK 927      BINDING AFFINITY PREDICTED BY RF-SCORE:    0.00 PKD
ROOT
HETATM    1  C   UNL     1     -13.492  14.205  63.176  1.00  0.00     4.079 C  
HETATM    2  C   UNL     1     -12.535  13.266  63.861  1.00  0.00    -0.331 A  
HETATM    3  C   UNL     1     -12.055  12.182  63.097  1.00  0.00    -0.351 A  
HETATM    4  C   UNL     1     -11.252  11.202  63.667  1.00  0.00    -0.034 A  
HETATM    5  C   UNL     1     -10.940  11.272  65.018  1.00  0.00    -0.226 A  
HETATM    6  C   UNL     1     -11.402  12.339  65.812  1.00  0.00    -0.400 A  
HETATM    7  C   UNL     1     -11.008  12.353  67.266  1.00  0.00    -0.302 C  
HETATM    8  C   UNL     1     -12.159  13.378  65.221  1.00  0.00    -0.413 A  
ENDROOT
BRANCH   8   9
HETATM    9  N   UNL     1     -12.540  14.483  66.033  1.00  0.00    -0.303 N  
HETATM   10  C   UNL     1     -11.654  15.175  66.845  1.00  0.00    -0.156 C  
HETATM   11  H   UNL     1     -13.515  14.782  66.017  1.00  0.00     0.000 HD 
HETATM   12  O   UNL     1     -10.457  14.919  66.960  1.00  0.00    -0.265 OA 
BRANCH  10  13
HETATM   13  C   UNL     1     -12.278  16.236  67.763  1.00  0.00     1.254 C  
BRANCH  13  14
HETATM   14  N   UNL     1     -11.348  16.861  68.738  1.00  0.00    -0.072 NA 
HETATM   15  C   UNL     1     -10.007  16.226  68.609  1.00  0.00    -0.233 C  
HETATM   16  C   UNL     1      -9.186  16.624  67.350  1.00  0.00    -0.213 C  
HETATM   17  N   UNL     1      -9.083  18.076  67.099  1.00  0.00    -0.251 NA 
HETATM   18  C   UNL     1     -10.414  18.695  67.219  1.00  0.00    -0.423 C  
HETATM   19  C   UNL     1     -11.180  18.315  68.506  1.00  0.00     1.012 C  
BRANCH  17  20
HETATM   20  C   UNL     1      -8.088  18.736  67.954  1.00  0.00    -0.261 C  
BRANCH  20  21
HETATM   21  C   UNL     1      -7.111  17.732  68.584  1.00  0.00    -0.257 C  
BRANCH  21  22
HETATM   22  C   UNL     1      -7.303  16.283  68.107  1.00  0.00    -0.144 C  
HETATM   23  C   UNL     1      -6.221  15.287  68.603  1.00  0.00    -0.088 C  
HETATM   24  C   UNL     1      -6.319  13.912  67.939  1.00  0.00    -0.167 A  
HETATM   25  C   UNL     1      -6.222  15.216  70.128  1.00  0.00    -0.140 A  
HETATM   26  C   UNL     1      -7.341  14.734  70.828  1.00  0.00     1.080 A  
HETATM   27  C   UNL     1      -5.149  13.150  67.763  1.00  0.00    -0.082 A  
HETATM   28  C   UNL     1      -5.192  11.914  67.114  1.00  0.00    -0.112 A  
HETATM   29  C   UNL     1      -7.388  14.794  72.220  1.00  0.00     3.873 A  
HETATM   30  C   UNL     1      -6.406  11.429  66.645  1.00  0.00    -0.127 A  
HETATM   31  C   UNL     1      -6.315  15.328  72.920  1.00  0.00     2.137 A  
HETATM   32  F   UNL     1      -6.375  15.411  74.255  1.00  0.00     1.157 F  
HETATM   33  C   UNL     1      -5.187  15.789  72.254  1.00  0.00     0.402 A  
HETATM   34  F   UNL     1      -6.446  10.252  66.008  1.00  0.00    -0.078 F  
HETATM   35  C   UNL     1      -7.577  12.149  66.824  1.00  0.00     0.052 A  
HETATM   36  C   UNL     1      -7.536  13.383  67.473  1.00  0.00    -0.170 A  
HETATM   37  C   UNL     1      -5.135  15.729  70.860  1.00  0.00    -0.175 A  
ENDBRANCH  21  22
ENDBRANCH  20  21
ENDBRANCH  17  20
ENDBRANCH  13  14
ENDBRANCH  10  13
ENDBRANCH   8   9
TORSDOF 6
ENDMDL
MODEL      280
REMARK 921   NORMALIZED FREE ENERGY PREDICTED BY IDOCK:   14.32 KCAL/MOL
REMARK 922        TOTAL FREE ENERGY PREDICTED BY IDOCK:   18.07 KCAL/MOL
REMARK 923 INTER-LIGAND FREE ENERGY PREDICTED BY IDOCK:   -4.14 KCAL/MOL
REMARK 924 INTRA-LIGAND FREE ENERGY PREDICTED BY IDOCK:   22.21 KCAL/MOL
REMARK 927      BINDING AFFINITY PREDICTED BY RF-SCORE:    0.00 PKD
ROOT
HETATM    1  C   UNL     1     -12.441  14.528  71.993  1.00  0.00    -0.391 C  
HETATM    2  C   UNL     1     -12.660  13.083  71.632  1.00  0.00    -0.222 A  
HETATM    3  C   UNL     1     -13.588  12.367  72.416  1.00  0.00    -0.262 A  
HETATM    4  C   UNL     1     -13.784  11.004  72.232  1.00  0.00     0.184 A  
HETATM    5  C   UNL     1     -13.033  10.326  71.280  1.00  0.00    -0.517 A  
HETATM    6  C   UNL     1     -12.097  11.008  70.479  1.00  0.00    -0.470 A  
HETATM    7  C   UNL     1     -11.332  10.206  69.459  1.00  0.00    -0.260 C  
HETATM    8  C   UNL     1     -11.946  12.408  70.613  1.00  0.00    -0.109 A  
ENDROOT
BRANCH   8   9
HETATM    9  N   UNL     1     -11.052  13.079  69.731  1.00  0.00    -0.473 N  
HETATM   10  C   UNL     1     -11.254  13.171  68.363  1.00  0.00    -0.271 C  
HETATM   11  H   UNL     1     -10.218  13.514  70.127  1.00  0.00     0.000 HD 
HETATM   12  O   UNL     1     -12.212  12.691  67.760  1.00  0.00    -0.338 OA 
BRANCH  10  13
HETATM   13  C   UNL     1     -10.106  13.796  67.558  1.00  0.00    -0.241 C  
BRANCH  13  14
HETATM   14  N   UNL     1      -8.815  13.065  67.616  1.00  0.00    -0.179 NA 
HETATM   15  C   UNL     1      -7.735  13.942  67.083  1.00  0.00     0.029 C  
HETATM   16  C   UNL     1      -7.285  15.106  68.010  1.00  0.00    -0.127 C  
HETATM   17  N   UNL     1      -6.980  14.719  69.403  1.00  0.00    -0.156 NA 
HETATM   18  C   UNL     1      -8.056  13.861  69.926  1.00  0.00     1.311 C  
HETATM   19  C   UNL     1      -8.442  12.686  68.999  1.00  0.00     0.465 C  
BRANCH  17  20
HETATM   20  C   UNL     1      -5.658  14.096  69.547  1.00  0.00    -0.093 C  
BRANCH  20  21
HETATM   21  C   UNL     1      -5.592  12.718  68.872  1.00  0.00    -0.071 C  
BRANCH  21  22
HETATM   22  C   UNL     1      -6.694  12.477  67.827  1.00  0.00    -0.123 C  
HETATM   23  C   UNL     1      -6.927  10.987  67.462  1.00  0.00    -0.086 C  
HETATM   24  C   UNL     1      -7.870  10.799  66.271  1.00  0.00    -0.156 A  
HETATM   25  C   UNL     1      -7.358  10.197  68.696  1.00  0.00    -0.082 A  
HETATM   26  C   UNL     1      -8.568  10.484  69.350  1.00  0.00    -0.100 A  
HETATM   27  C   UNL     1      -7.707   9.677  65.437  1.00  0.00    -0.117 A  
HETATM   28  C   UNL     1      -8.514   9.501  64.311  1.00  0.00    -0.193 A  
HETATM   29  C   UNL     1      -8.894   9.852  70.550  1.00  0.00     0.146 A  
HETATM   30  C   UNL     1      -9.496  10.440  64.018  1.00  0.00    -0.299 A  
HETATM   31  C   UNL     1      -8.017   8.926  71.096  1.00  0.00    -0.144 A  
HETATM   32  F   UNL     1      -8.318   8.342  72.263  1.00  0.00    -0.167 F  
HETATM   33  C   UNL     1      -6.825   8.606  70.457  1.00  0.00    -0.042 A  
HETATM   34  F   UNL     1     -10.260  10.281  62.930  1.00  0.00    -0.216 F  
HETATM   35  C   UNL     1      -9.693  11.542  64.836  1.00  0.00    -0.264 A  
HETATM   36  C   UNL     1      -8.887  11.719  65.960  1.00  0.00    -0.057 A  
HETATM   37  C   UNL     1      -6.497   9.235  69.256  1.00  0.00    -0.045 A  
ENDBRANCH  21  22
ENDBRANCH  20  21
ENDBRANCH  17  20
ENDBRANCH  13  14
ENDBRANCH  10  13
ENDBRANCH   8   9
TORSDOF 6
ENDMDL
MODEL      281
REMARK 921   NORMALIZED FREE ENERGY PREDICTED BY IDOCK:   15.92 KCAL/MOL
REMARK 922        TOTAL FREE ENERGY PREDICTED BY IDOCK:   20.24 KCAL/MOL
REMARK 923 INTER-LIGAND FREE ENERGY PREDICTED BY IDOCK:   -2.56 KCAL/MOL
REMARK 924 INTRA-LIGAND FREE ENERGY PREDICTED BY IDOCK:   22.80 KCAL/MOL
REMARK 927      BINDING AFFINITY PREDICTED BY RF-SCORE:    0.00 PKD
ROOT
HETATM    1  C   UNL     1      -8.531  15.428  67.802  1.00  0.00    -0.157 C  
HETATM    2  C   UNL     1      -9.173  16.346  66.796  1.00  0.00    -0.259 A  
HETATM    3  C   UNL     1      -8.749  17.691  66.805  1.00  0.00    -0.277 A  
HETATM    4  C   UNL     1      -9.354  18.640  65.990  1.00  0.00    -0.026 A  
HETATM    5  C   UNL     1     -10.415  18.266  65.174  1.00  0.00     0.855 A  
HETATM    6  C   UNL     1     -10.866  16.932  65.140  1.00  0.00    -0.105 A  
HETATM    7  C   UNL     1     -12.011  16.603  64.219  1.00  0.00     1.142 C  
HETATM    8  C   UNL     1     -10.206  15.949  65.914  1.00  0.00    -0.352 A  
ENDROOT
BRANCH   8   9
HETATM    9  N   UNL     1     -10.633  14.596  65.794  1.00  0.00    -0.304 N  
HETATM   10  C   UNL     1     -11.886  14.229  65.327  1.00  0.00    -0.374 C  
HETATM   11  H   UNL     1      -9.984  13.858  66.065  1.00  0.00     0.000 HD 
HETATM   12  O   UNL     1     -12.762  15.015  64.971  1.00  0.00    -0.087 OA 
BRANCH  10  13
HETATM   13  C   UNL     1     -12.221  12.734  65.415  1.00  0.00    -0.478 C  
BRANCH  13  14
HETATM   14  N   UNL     1     -11.641  12.018  66.579  1.00  0.00    -0.507 NA 
HETATM   15  C   UNL     1     -10.160  12.177  66.560  1.00  0.00    -0.209 C  
HETATM   16  C   UNL     1      -9.622  13.577  66.969  1.00  0.00    -0.248 C  
HETATM   17  N   UNL     1     -10.172  14.120  68.228  1.00  0.00    -0.237 NA 
HETATM   18  C   UNL     1     -11.637  13.967  68.235  1.00  0.00    -0.329 C  
HETATM   19  C   UNL     1     -12.132  12.550  67.872  1.00  0.00    -0.058 C  
BRANCH  17  20
HETATM   20  C   UNL     1      -9.551  13.535  69.423  1.00  0.00     0.824 C  
BRANCH  20  21
HETATM   21  C   UNL     1      -8.211  12.856  69.104  1.00  0.00     0.555 C  
BRANCH  21  22
HETATM   22  C   UNL     1      -8.203  12.069  67.783  1.00  0.00    -0.151 C  
HETATM   23  C   UNL     1      -7.399  10.742  67.822  1.00  0.00    -0.093 C  
HETATM   24  C   UNL     1      -7.233  10.098  66.444  1.00  0.00    -0.108 A  
HETATM   25  C   UNL     1      -7.993   9.791  68.858  1.00  0.00    -0.092 A  
HETATM   26  C   UNL     1      -9.296   9.286  68.712  1.00  0.00    -0.139 A  
HETATM   27  C   UNL     1      -6.086   9.324  66.183  1.00  0.00    -0.059 A  
HETATM   28  C   UNL     1      -5.874   8.766  64.920  1.00  0.00    -0.059 A  
HETATM   29  C   UNL     1      -9.881   8.525  69.724  1.00  0.00    -0.186 A  
HETATM   30  C   UNL     1      -6.811   8.970  63.915  1.00  0.00    -0.088 A  
HETATM   31  C   UNL     1      -9.164   8.258  70.882  1.00  0.00    -0.155 A  
HETATM   32  F   UNL     1      -9.737   7.552  71.865  1.00  0.00    -0.165 F  
HETATM   33  C   UNL     1      -7.864   8.724  71.041  1.00  0.00    -0.145 A  
HETATM   34  F   UNL     1      -6.601   8.448  62.699  1.00  0.00    -0.088 F  
HETATM   35  C   UNL     1      -7.960   9.709  64.152  1.00  0.00    -0.143 A  
HETATM   36  C   UNL     1      -8.173  10.267  65.412  1.00  0.00    -0.156 A  
HETATM   37  C   UNL     1      -7.276   9.485  70.030  1.00  0.00    -0.101 A  
ENDBRANCH  21  22
ENDBRANCH  20  21
ENDBRANCH  17  20
ENDBRANCH  13  14
ENDBRANCH  10  13
ENDBRANCH   8   9
TORSDOF 6
ENDMDL
MODEL      282
REMARK 921   NORMALIZED FREE ENERGY PREDICTED BY IDOCK:   16.35 KCAL/MOL
REMARK 922        TOTAL FREE ENERGY PREDICTED BY IDOCK:   20.82 KCAL/MOL
REMARK 923 INTER-LIGAND FREE ENERGY PREDICTED BY IDOCK:   17.50 KCAL/MOL
REMARK 924 INTRA-LIGAND FREE ENERGY PREDICTED BY IDOCK:    3.32 KCAL/MOL
REMARK 927      BINDING AFFINITY PREDICTED BY RF-SCORE:    0.00 PKD
ROOT
HETATM    1  C   UNL     1      -8.779   7.156  67.332  1.00  0.00    -0.120 C  
HETATM    2  C   UNL     1      -8.789   5.704  66.932  1.00  0.00    -0.113 A  
HETATM    3  C   UNL     1      -8.566   5.422  65.569  1.00  0.00    -0.148 A  
HETATM    4  C   UNL     1      -8.660   4.125  65.079  1.00  0.00    -0.117 A  
HETATM    5  C   UNL     1      -9.008   3.091  65.940  1.00  0.00    -0.145 A  
HETATM    6  C   UNL     1      -9.238   3.336  67.307  1.00  0.00    -0.221 A  
HETATM    7  C   UNL     1      -9.597   2.161  68.179  1.00  0.00    -0.114 C  
HETATM    8  C   UNL     1      -9.073   4.643  67.824  1.00  0.00    -0.119 A  
ENDROOT
BRANCH   8   9
HETATM    9  N   UNL     1      -9.232   4.840  69.225  1.00  0.00    -0.109 N  
HETATM   10  C   UNL     1     -10.407   5.297  69.803  1.00  0.00    -0.299 C  
HETATM   11  H   UNL     1      -8.441   4.636  69.835  1.00  0.00     0.000 HD 
HETATM   12  O   UNL     1     -11.430   5.583  69.185  1.00  0.00     0.414 OA 
BRANCH  10  13
HETATM   13  C   UNL     1     -10.339   5.596  71.307  1.00  0.00    -0.228 C  
BRANCH  13  14
HETATM   14  N   UNL     1      -9.162   6.388  71.748  1.00  0.00    -0.144 NA 
HETATM   15  C   UNL     1      -8.860   7.424  70.721  1.00  0.00    -0.149 C  
HETATM   16  C   UNL     1      -9.837   8.632  70.668  1.00  0.00    -0.183 C  
HETATM   17  N   UNL     1     -10.112   9.276  71.968  1.00  0.00    -0.041 NA 
HETATM   18  C   UNL     1     -10.419   8.246  72.976  1.00  0.00    -0.029 C  
HETATM   19  C   UNL     1      -9.400   7.086  73.033  1.00  0.00    -0.147 C  
BRANCH  17  20
HETATM   20  C   UNL     1      -9.032  10.171  72.405  1.00  0.00     6.443 C  
BRANCH  20  21
HETATM   21  C   UNL     1      -7.815  10.104  71.471  1.00  0.00     2.513 C  
BRANCH  21  22
HETATM   22  C   UNL     1      -7.553  11.400  70.684  1.00  0.00     3.097 C  
HETATM   23  C   UNL     1      -8.332  11.516  69.347  1.00  0.00     0.500 C  
HETATM   24  C   UNL     1      -7.888  12.705  68.493  1.00  0.00    -0.104 A  
HETATM   25  C   UNL     1      -9.837  11.493  69.604  1.00  0.00     0.794 A  
HETATM   26  C   UNL     1     -10.459  12.515  70.342  1.00  0.00     2.857 A  
HETATM   27  C   UNL     1      -7.983  12.617  67.092  1.00  0.00    -0.123 A  
HETATM   28  C   UNL     1      -7.538  13.661  66.278  1.00  0.00     2.257 A  
HETATM   29  C   UNL     1     -11.808  12.422  70.686  1.00  0.00    -0.025 A  
HETATM   30  C   UNL     1      -7.004  14.804  66.862  1.00  0.00     0.798 A  
HETATM   31  C   UNL     1     -12.542  11.314  70.287  1.00  0.00    -0.177 A  
HETATM   32  F   UNL     1     -13.829  11.214  70.643  1.00  0.00     0.464 F  
HETATM   33  C   UNL     1     -11.957  10.302  69.536  1.00  0.00    -0.087 A  
HETATM   34  F   UNL     1      -6.562  15.799  66.083  1.00  0.00     0.733 F  
HETATM   35  C   UNL     1      -6.919  14.926  68.240  1.00  0.00    -0.118 A  
HETATM   36  C   UNL     1      -7.364  13.884  69.053  1.00  0.00    -0.055 A  
HETATM   37  C   UNL     1     -10.609  10.392  69.189  1.00  0.00    -0.255 A  
ENDBRANCH  21  22
ENDBRANCH  20  21
ENDBRANCH  17  20
ENDBRANCH  13  14
ENDBRANCH  10  13
ENDBRANCH   8   9
TORSDOF 6
ENDMDL
MODEL      283
REMARK 921   NORMALIZED FREE ENERGY PREDICTED BY IDOCK:   17.06 KCAL/MOL
REMARK 922        TOTAL FREE ENERGY PREDICTED BY IDOCK:   21.78 KCAL/MOL
REMARK 923 INTER-LIGAND FREE ENERGY PREDICTED BY IDOCK:   19.27 KCAL/MOL
REMARK 924 INTRA-LIGAND FREE ENERGY PREDICTED BY IDOCK:    2.51 KCAL/MOL
REMARK 927      BINDING AFFINITY PREDICTED BY RF-SCORE:    0.00 PKD
ROOT
HETATM    1  C   UNL     1     -11.439   2.705  65.777  1.00  0.00     6.777 C  
HETATM    2  C   UNL     1      -9.982   2.836  65.419  1.00  0.00     0.444 A  
HETATM    3  C   UNL     1      -9.543   2.129  64.282  1.00  0.00    -0.122 A  
HETATM    4  C   UNL     1      -8.200   2.099  63.929  1.00  0.00    -0.081 A  
HETATM    5  C   UNL     1      -7.268   2.753  64.725  1.00  0.00    -0.062 A  
HETATM    6  C   UNL     1      -7.670   3.469  65.869  1.00  0.00    -0.082 A  
HETATM    7  C   UNL     1      -6.602   4.163  66.672  1.00  0.00    -0.046 C  
HETATM    8  C   UNL     1      -9.044   3.562  66.191  1.00  0.00    -0.157 A  
ENDROOT
BRANCH   8   9
HETATM    9  N   UNL     1      -9.424   4.362  67.306  1.00  0.00    -0.159 N  
HETATM   10  C   UNL     1      -9.606   3.856  68.583  1.00  0.00    -0.111 C  
HETATM   11  H   UNL     1      -9.570   5.361  67.157  1.00  0.00     0.000 HD 
HETATM   12  O   UNL     1      -9.466   2.676  68.899  1.00  0.00    -0.166 OA 
BRANCH  10  13
HETATM   13  C   UNL     1     -10.165   4.840  69.620  1.00  0.00    -0.130 C  
BRANCH  13  14
HETATM   14  N   UNL     1     -10.671   6.124  69.071  1.00  0.00    -0.277 NA 
HETATM   15  C   UNL     1     -12.040   6.376  69.604  1.00  0.00     0.665 C  
HETATM   16  C   UNL     1     -12.119   6.813  71.093  1.00  0.00    -0.370 C  
HETATM   17  N   UNL     1     -11.219   7.921  71.473  1.00  0.00    -0.244 NA 
HETATM   18  C   UNL     1      -9.866   7.661  70.951  1.00  0.00    -0.176 C  
HETATM   19  C   UNL     1      -9.822   7.277  69.455  1.00  0.00    -0.163 C  
BRANCH  17  20
HETATM   20  C   UNL     1     -11.725   9.237  71.062  1.00  0.00    -0.311 C  
BRANCH  20  21
HETATM   21  C   UNL     1     -10.756   9.957  70.111  1.00  0.00    -0.361 C  
BRANCH  21  22
HETATM   22  C   UNL     1     -10.554   9.246  68.763  1.00  0.00    -0.220 C  
HETATM   23  C   UNL     1     -10.074  10.167  67.609  1.00  0.00    -0.231 C  
HETATM   24  C   UNL     1     -10.091   9.478  66.243  1.00  0.00    -0.327 A  
HETATM   25  C   UNL     1      -8.720  10.785  67.950  1.00  0.00    -0.129 A  
HETATM   26  C   UNL     1      -7.579   9.981  68.114  1.00  0.00    -0.084 A  
HETATM   27  C   UNL     1     -10.313  10.252  65.088  1.00  0.00    -0.198 A  
HETATM   28  C   UNL     1     -10.388   9.650  63.829  1.00  0.00     2.238 A  
HETATM   29  C   UNL     1      -6.377  10.535  68.554  1.00  0.00    -0.050 A  
HETATM   30  C   UNL     1     -10.233   8.274  63.717  1.00  0.00     6.608 A  
HETATM   31  C   UNL     1      -6.307  11.894  68.822  1.00  0.00    -0.063 A  
HETATM   32  F   UNL     1      -5.160  12.419  69.272  1.00  0.00    -0.066 F  
HETATM   33  C   UNL     1      -7.413  12.716  68.644  1.00  0.00    -0.094 A  
HETATM   34  F   UNL     1     -10.321   7.695  62.513  1.00  0.00     4.028 F  
HETATM   35  C   UNL     1      -9.992   7.492  64.836  1.00  0.00     3.146 A  
HETATM   36  C   UNL     1      -9.916   8.091  66.093  1.00  0.00     0.021 A  
HETATM   37  C   UNL     1      -8.618  12.166  68.203  1.00  0.00    -0.177 A  
ENDBRANCH  21  22
ENDBRANCH  20  21
ENDBRANCH  17  20
ENDBRANCH  13  14
ENDBRANCH  10  13
ENDBRANCH   8   9
TORSDOF 6
ENDMDL
MODEL      284
REMARK 921   NORMALIZED FREE ENERGY PREDICTED BY IDOCK:   17.11 KCAL/MOL
REMARK 922        TOTAL FREE ENERGY PREDICTED BY IDOCK:   21.84 KCAL/MOL
REMARK 923 INTER-LIGAND FREE ENERGY PREDICTED BY IDOCK:   17.85 KCAL/MOL
REMARK 924 INTRA-LIGAND FREE ENERGY PREDICTED BY IDOCK:    3.99 KCAL/MOL
REMARK 927      BINDING AFFINITY PREDICTED BY RF-SCORE:    0.00 PKD
ROOT
HETATM    1  C   UNL     1      -8.604  17.275  71.523  1.00  0.00    10.244 C  
HETATM    2  C   UNL     1      -7.950  17.972  70.359  1.00  0.00     3.256 A  
HETATM    3  C   UNL     1      -8.437  19.255  70.035  1.00  0.00     1.096 A  
HETATM    4  C   UNL     1      -7.974  19.937  68.917  1.00  0.00    -0.111 A  
HETATM    5  C   UNL     1      -7.038  19.335  68.085  1.00  0.00    -0.299 A  
HETATM    6  C   UNL     1      -6.531  18.054  68.377  1.00  0.00    -0.203 A  
HETATM    7  C   UNL     1      -5.509  17.474  67.435  1.00  0.00    -0.153 C  
HETATM    8  C   UNL     1      -6.945  17.386  69.554  1.00  0.00    -0.011 A  
ENDROOT
BRANCH   8   9
HETATM    9  N   UNL     1      -6.351  16.130  69.862  1.00  0.00    -0.177 N  
HETATM   10  C   UNL     1      -7.009  15.122  70.551  1.00  0.00     0.376 C  
HETATM   11  H   UNL     1      -5.391  15.962  69.561  1.00  0.00     0.000 HD 
HETATM   12  O   UNL     1      -8.161  15.195  70.973  1.00  0.00     1.729 OA 
BRANCH  10  13
HETATM   13  C   UNL     1      -6.156  13.902  70.926  1.00  0.00    -0.098 C  
BRANCH  13  14
HETATM   14  N   UNL     1      -6.450  12.661  70.164  1.00  0.00     0.067 NA 
HETATM   15  C   UNL     1      -7.757  12.815  69.467  1.00  0.00     0.857 C  
HETATM   16  C   UNL     1      -7.758  13.751  68.225  1.00  0.00    -0.138 C  
HETATM   17  N   UNL     1      -6.688  13.490  67.240  1.00  0.00    -0.186 NA 
HETATM   18  C   UNL     1      -5.398  13.348  67.937  1.00  0.00    -0.102 C  
HETATM   19  C   UNL     1      -5.424  12.373  69.135  1.00  0.00    -0.069 C  
BRANCH  17  20
HETATM   20  C   UNL     1      -6.976  12.341  66.372  1.00  0.00     0.840 C  
BRANCH  20  21
HETATM   21  C   UNL     1      -8.335  11.701  66.693  1.00  0.00    -0.154 C  
BRANCH  21  22
HETATM   22  C   UNL     1      -8.436  10.214  66.315  1.00  0.00    -0.132 C  
HETATM   23  C   UNL     1      -9.882   9.653  66.266  1.00  0.00    -0.323 C  
HETATM   24  C   UNL     1      -9.932   8.133  66.101  1.00  0.00    -0.017 A  
HETATM   25  C   UNL     1     -10.706  10.396  65.217  1.00  0.00     0.086 A  
HETATM   26  C   UNL     1     -10.370  10.329  63.854  1.00  0.00     0.357 A  
HETATM   27  C   UNL     1     -11.014   7.419  66.651  1.00  0.00     0.345 A  
HETATM   28  C   UNL     1     -11.066   6.025  66.566  1.00  0.00    -0.000 A  
HETATM   29  C   UNL     1     -11.043  11.113  62.917  1.00  0.00     0.520 A  
HETATM   30  C   UNL     1     -10.043   5.339  65.924  1.00  0.00    -0.066 A  
HETATM   31  C   UNL     1     -12.061  11.958  63.336  1.00  0.00    -0.432 A  
HETATM   32  F   UNL     1     -12.686  12.731  62.440  1.00  0.00     0.445 F  
HETATM   33  C   UNL     1     -12.430  12.025  64.675  1.00  0.00    -0.193 A  
HETATM   34  F   UNL     1     -10.084   4.002  65.856  1.00  0.00    -0.195 F  
HETATM   35  C   UNL     1      -8.977   6.019  65.354  1.00  0.00     0.015 A  
HETATM   36  C   UNL     1      -8.924   7.410  65.438  1.00  0.00     0.155 A  
HETATM   37  C   UNL     1     -11.759  11.241  65.615  1.00  0.00     0.522 A  
ENDBRANCH  21  22
ENDBRANCH  20  21
ENDBRANCH  17  20
ENDBRANCH  13  14
ENDBRANCH  10  13
ENDBRANCH   8   9
TORSDOF 6
ENDMDL
MODEL      285
REMARK 921   NORMALIZED FREE ENERGY PREDICTED BY IDOCK:   19.90 KCAL/MOL
REMARK 922        TOTAL FREE ENERGY PREDICTED BY IDOCK:   25.62 KCAL/MOL
REMARK 923 INTER-LIGAND FREE ENERGY PREDICTED BY IDOCK:   17.80 KCAL/MOL
REMARK 924 INTRA-LIGAND FREE ENERGY PREDICTED BY IDOCK:    7.82 KCAL/MOL
REMARK 927      BINDING AFFINITY PREDICTED BY RF-SCORE:    0.00 PKD
ROOT
HETATM    1  C   UNL     1     -11.444   6.227  66.928  1.00  0.00     0.280 C  
HETATM    2  C   UNL     1     -11.455   7.651  67.416  1.00  0.00     1.043 A  
HETATM    3  C   UNL     1     -12.568   8.437  67.053  1.00  0.00    10.904 A  
HETATM    4  C   UNL     1     -12.624   9.790  67.363  1.00  0.00     7.615 A  
HETATM    5  C   UNL     1     -11.553  10.388  68.016  1.00  0.00    -0.004 A  
HETATM    6  C   UNL     1     -10.425   9.635  68.394  1.00  0.00    -0.258 A  
HETATM    7  C   UNL     1      -9.311  10.352  69.111  1.00  0.00    -0.211 C  
HETATM    8  C   UNL     1     -10.395   8.242  68.144  1.00  0.00    -0.202 A  
ENDROOT
BRANCH   8   9
HETATM    9  N   UNL     1      -9.277   7.496  68.612  1.00  0.00    -0.144 N  
HETATM   10  C   UNL     1      -8.667   7.721  69.837  1.00  0.00    -0.142 C  
HETATM   11  H   UNL     1      -8.904   6.757  68.016  1.00  0.00     0.000 HD 
HETATM   12  O   UNL     1      -9.011   8.579  70.647  1.00  0.00    -0.142 OA 
BRANCH  10  13
HETATM   13  C   UNL     1      -7.382   6.924  70.101  1.00  0.00    -0.081 C  
BRANCH  13  14
HETATM   14  N   UNL     1      -6.160   7.739  70.320  1.00  0.00    -0.030 NA 
HETATM   15  C   UNL     1      -5.882   8.540  69.096  1.00  0.00    -0.039 C  
HETATM   16  C   UNL     1      -6.822   9.753  68.850  1.00  0.00    -0.054 C  
HETATM   17  N   UNL     1      -7.008  10.650  70.008  1.00  0.00    -0.157 NA 
HETATM   18  C   UNL     1      -7.291   9.851  71.213  1.00  0.00     0.800 C  
HETATM   19  C   UNL     1      -6.307   8.685  71.451  1.00  0.00    -0.060 C  
BRANCH  17  20
HETATM   20  C   UNL     1      -5.879  11.569  70.208  1.00  0.00    -0.158 C  
BRANCH  20  21
HETATM   21  C   UNL     1      -5.508  12.317  68.919  1.00  0.00    -0.054 C  
BRANCH  21  22
HETATM   22  C   UNL     1      -6.715  12.715  68.053  1.00  0.00    -0.095 C  
HETATM   23  C   UNL     1      -7.777  13.583  68.779  1.00  0.00    -0.044 C  
HETATM   24  C   UNL     1      -9.056  13.777  67.962  1.00  0.00    -0.191 A  
HETATM   25  C   UNL     1      -7.160  14.899  69.246  1.00  0.00    -0.160 A  
HETATM   26  C   UNL     1      -6.667  15.835  68.320  1.00  0.00    -0.123 A  
HETATM   27  C   UNL     1     -10.280  13.950  68.635  1.00  0.00    -0.218 A  
HETATM   28  C   UNL     1     -11.475  14.076  67.923  1.00  0.00    -0.347 A  
HETATM   29  C   UNL     1      -5.987  16.973  68.752  1.00  0.00    -0.152 A  
HETATM   30  C   UNL     1     -11.451  14.041  66.534  1.00  0.00    -0.357 A  
HETATM   31  C   UNL     1      -5.804  17.186  70.111  1.00  0.00    -0.184 A  
HETATM   32  F   UNL     1      -5.125  18.264  70.524  1.00  0.00    -0.184 F  
HETATM   33  C   UNL     1      -6.302  16.289  71.049  1.00  0.00     1.342 A  
HETATM   34  F   UNL     1     -12.598  14.146  65.850  1.00  0.00    -0.451 F  
HETATM   35  C   UNL     1     -10.257  13.895  65.846  1.00  0.00    -0.326 A  
HETATM   36  C   UNL     1      -9.063  13.769  66.556  1.00  0.00    -0.149 A  
HETATM   37  C   UNL     1      -6.984  15.150  70.620  1.00  0.00     0.530 A  
ENDBRANCH  21  22
ENDBRANCH  20  21
ENDBRANCH  17  20
ENDBRANCH  13  14
ENDBRANCH  10  13
ENDBRANCH   8   9
TORSDOF 6
ENDMDL
MODEL      286
REMARK 921   NORMALIZED FREE ENERGY PREDICTED BY IDOCK:   20.33 KCAL/MOL
REMARK 922        TOTAL FREE ENERGY PREDICTED BY IDOCK:   26.19 KCAL/MOL
REMARK 923 INTER-LIGAND FREE ENERGY PREDICTED BY IDOCK:   15.80 KCAL/MOL
REMARK 924 INTRA-LIGAND FREE ENERGY PREDICTED BY IDOCK:   10.40 KCAL/MOL
REMARK 927      BINDING AFFINITY PREDICTED BY RF-SCORE:    0.00 PKD
ROOT
HETATM    1  C   UNL     1     -10.654   8.363  64.103  1.00  0.00     8.291 C  
HETATM    2  C   UNL     1      -9.348   8.620  64.808  1.00  0.00     0.511 A  
HETATM    3  C   UNL     1      -8.201   8.014  64.257  1.00  0.00    -0.070 A  
HETATM    4  C   UNL     1      -6.968   8.102  64.890  1.00  0.00    -0.074 A  
HETATM    5  C   UNL     1      -6.867   8.773  66.103  1.00  0.00    -0.073 A  
HETATM    6  C   UNL     1      -7.991   9.390  66.684  1.00  0.00    -0.108 A  
HETATM    7  C   UNL     1      -7.798  10.110  67.992  1.00  0.00    -0.096 C  
HETATM    8  C   UNL     1      -9.234   9.364  66.007  1.00  0.00    -0.200 A  
ENDROOT
BRANCH   8   9
HETATM    9  N   UNL     1     -10.330  10.067  66.581  1.00  0.00    -0.230 N  
HETATM   10  C   UNL     1     -10.876   9.754  67.816  1.00  0.00    -0.246 C  
HETATM   11  H   UNL     1     -10.736  10.842  66.056  1.00  0.00     0.000 HD 
HETATM   12  O   UNL     1     -10.488   8.846  68.547  1.00  0.00    -0.205 OA 
BRANCH  10  13
HETATM   13  C   UNL     1     -12.150  10.521  68.198  1.00  0.00     0.913 C  
BRANCH  13  14
HETATM   14  N   UNL     1     -12.502  10.496  69.640  1.00  0.00    -0.160 NA 
HETATM   15  C   UNL     1     -13.920  10.065  69.789  1.00  0.00     2.628 C  
HETATM   16  C   UNL     1     -14.200   8.555  69.545  1.00  0.00     6.403 C  
HETATM   17  N   UNL     1     -13.311   7.625  70.271  1.00  0.00     1.168 NA 
HETATM   18  C   UNL     1     -11.911   8.053  70.112  1.00  0.00     0.293 C  
HETATM   19  C   UNL     1     -11.662   9.548  70.410  1.00  0.00    -0.170 C  
BRANCH  17  20
HETATM   20  C   UNL     1     -13.682   7.464  71.683  1.00  0.00    -0.373 C  
BRANCH  20  21
HETATM   21  C   UNL     1     -12.460   7.532  72.612  1.00  0.00     0.163 C  
BRANCH  21  22
HETATM   22  C   UNL     1     -11.166   7.986  71.916  1.00  0.00    -0.335 C  
HETATM   23  C   UNL     1      -9.859   7.465  72.571  1.00  0.00    -0.213 C  
HETATM   24  C   UNL     1      -8.597   8.106  71.991  1.00  0.00    -0.216 A  
HETATM   25  C   UNL     1      -9.822   5.939  72.543  1.00  0.00    -0.179 A  
HETATM   26  C   UNL     1      -9.783   5.240  71.324  1.00  0.00    -0.222 A  
HETATM   27  C   UNL     1      -7.465   8.259  72.813  1.00  0.00    -0.152 A  
HETATM   28  C   UNL     1      -6.314   8.888  72.333  1.00  0.00    -0.001 A  
HETATM   29  C   UNL     1      -9.882   3.849  71.299  1.00  0.00    -0.227 A  
HETATM   30  C   UNL     1      -6.284   9.359  71.026  1.00  0.00    -0.080 A  
HETATM   31  C   UNL     1     -10.011   3.150  72.491  1.00  0.00    -0.158 A  
HETATM   32  F   UNL     1     -10.136   1.817  72.463  1.00  0.00    -0.156 F  
HETATM   33  C   UNL     1     -10.028   3.815  73.711  1.00  0.00    -0.163 A  
HETATM   34  F   UNL     1      -5.187   9.976  70.570  1.00  0.00    -0.036 F  
HETATM   35  C   UNL     1      -7.377   9.201  70.188  1.00  0.00    -0.077 A  
HETATM   36  C   UNL     1      -8.527   8.573  70.666  1.00  0.00    -0.158 A  
HETATM   37  C   UNL     1      -9.927   5.207  73.740  1.00  0.00    -0.194 A  
ENDBRANCH  21  22
ENDBRANCH  20  21
ENDBRANCH  17  20
ENDBRANCH  13  14
ENDBRANCH  10  13
ENDBRANCH   8   9
TORSDOF 6
ENDMDL
MODEL      287
REMARK 921   NORMALIZED FREE ENERGY PREDICTED BY IDOCK:   20.46 KCAL/MOL
REMARK 922        TOTAL FREE ENERGY PREDICTED BY IDOCK:   26.37 KCAL/MOL
REMARK 923 INTER-LIGAND FREE ENERGY PREDICTED BY IDOCK:    3.13 KCAL/MOL
REMARK 924 INTRA-LIGAND FREE ENERGY PREDICTED BY IDOCK:   23.24 KCAL/MOL
REMARK 927      BINDING AFFINITY PREDICTED BY RF-SCORE:    0.00 PKD
ROOT
HETATM    1  C   UNL     1     -11.033   5.472  70.937  1.00  0.00    -0.194 C  
HETATM    2  C   UNL     1     -10.558   5.110  69.555  1.00  0.00    -0.130 A  
HETATM    3  C   UNL     1     -10.102   3.789  69.367  1.00  0.00     0.441 A  
HETATM    4  C   UNL     1      -9.546   3.386  68.160  1.00  0.00    -0.158 A  
HETATM    5  C   UNL     1      -9.408   4.306  67.128  1.00  0.00    -0.187 A  
HETATM    6  C   UNL     1      -9.851   5.634  67.279  1.00  0.00    -0.163 A  
HETATM    7  C   UNL     1      -9.680   6.568  66.110  1.00  0.00     0.015 C  
HETATM    8  C   UNL     1     -10.483   6.030  68.481  1.00  0.00    -0.234 A  
ENDROOT
BRANCH   8   9
HETATM    9  N   UNL     1     -10.994   7.356  68.571  1.00  0.00    -0.434 N  
HETATM   10  C   UNL     1     -11.132   8.196  67.477  1.00  0.00     0.375 C  
HETATM   11  H   UNL     1     -11.273   7.706  69.487  1.00  0.00     0.000 HD 
HETATM   12  O   UNL     1     -10.833   7.903  66.322  1.00  0.00     0.572 OA 
BRANCH  10  13
HETATM   13  C   UNL     1     -11.553   9.639  67.791  1.00  0.00     1.135 C  
BRANCH  13  14
HETATM   14  N   UNL     1     -11.377  10.061  69.205  1.00  0.00    -0.148 NA 
HETATM   15  C   UNL     1     -11.830   8.961  70.101  1.00  0.00     0.238 C  
HETATM   16  C   UNL     1     -10.884   7.731  70.199  1.00  0.00    -0.244 C  
HETATM   17  N   UNL     1      -9.466   8.047  70.464  1.00  0.00    -0.165 NA 
HETATM   18  C   UNL     1      -9.023   9.128  69.568  1.00  0.00    -0.151 C  
HETATM   19  C   UNL     1      -9.963  10.354  69.535  1.00  0.00    -0.202 C  
BRANCH  17  20
HETATM   20  C   UNL     1      -9.204   8.358  71.876  1.00  0.00    -0.238 C  
BRANCH  20  21
HETATM   21  C   UNL     1      -7.951   9.229  72.051  1.00  0.00     0.668 C  
BRANCH  21  22
HETATM   22  C   UNL     1      -7.916  10.470  71.143  1.00  0.00     3.022 C  
HETATM   23  C   UNL     1      -6.596  10.655  70.348  1.00  0.00    -0.075 C  
HETATM   24  C   UNL     1      -6.511  12.002  69.628  1.00  0.00    -0.088 A  
HETATM   25  C   UNL     1      -6.361   9.466  69.420  1.00  0.00    -0.044 A  
HETATM   26  C   UNL     1      -7.248   9.187  68.366  1.00  0.00    -0.077 A  
HETATM   27  C   UNL     1      -5.249  12.592  69.422  1.00  0.00    -0.071 A  
HETATM   28  C   UNL     1      -5.137  13.846  68.817  1.00  0.00    -0.076 A  
HETATM   29  C   UNL     1      -7.104   8.027  67.605  1.00  0.00    -0.083 A  
HETATM   30  C   UNL     1      -6.284  14.512  68.405  1.00  0.00    -0.103 A  
HETATM   31  C   UNL     1      -6.070   7.146  67.888  1.00  0.00    -0.034 A  
HETATM   32  F   UNL     1      -5.951   6.019  67.175  1.00  0.00    -0.015 F  
HETATM   33  C   UNL     1      -5.165   7.410  68.909  1.00  0.00    -0.015 A  
HETATM   34  F   UNL     1      -6.179  15.721  67.838  1.00  0.00    -0.102 F  
HETATM   35  C   UNL     1      -7.537  13.945  68.575  1.00  0.00    -0.134 A  
HETATM   36  C   UNL     1      -7.650  12.693  69.179  1.00  0.00     0.254 A  
HETATM   37  C   UNL     1      -5.305   8.570  69.672  1.00  0.00    -0.030 A  
ENDBRANCH  21  22
ENDBRANCH  20  21
ENDBRANCH  17  20
ENDBRANCH  13  14
ENDBRANCH  10  13
ENDBRANCH   8   9
TORSDOF 6
ENDMDL
MODEL      288
REMARK 921   NORMALIZED FREE ENERGY PREDICTED BY IDOCK:   27.24 KCAL/MOL
REMARK 922        TOTAL FREE ENERGY PREDICTED BY IDOCK:   35.52 KCAL/MOL
REMARK 923 INTER-LIGAND FREE ENERGY PREDICTED BY IDOCK:   23.72 KCAL/MOL
REMARK 924 INTRA-LIGAND FREE ENERGY PREDICTED BY IDOCK:   11.80 KCAL/MOL
REMARK 927      BINDING AFFINITY PREDICTED BY RF-SCORE:    0.00 PKD
ROOT
HETATM    1  C   UNL     1      -8.554  15.757  68.718  1.00  0.00    -0.203 C  
HETATM    2  C   UNL     1      -9.734  16.316  69.468  1.00  0.00    -0.131 A  
HETATM    3  C   UNL     1      -9.529  17.527  70.159  1.00  0.00     1.927 A  
HETATM    4  C   UNL     1     -10.521  18.070  70.966  1.00  0.00     2.635 A  
HETATM    5  C   UNL     1     -11.726  17.395  71.119  1.00  0.00     2.628 A  
HETATM    6  C   UNL     1     -11.965  16.183  70.445  1.00  0.00    -0.106 A  
HETATM    7  C   UNL     1     -13.301  15.518  70.651  1.00  0.00    -0.201 C  
HETATM    8  C   UNL     1     -10.986  15.663  69.566  1.00  0.00    -0.281 A  
ENDROOT
BRANCH   8   9
HETATM    9  N   UNL     1     -11.292  14.480  68.836  1.00  0.00    -0.259 N  
HETATM   10  C   UNL     1     -10.695  13.253  69.083  1.00  0.00    -0.047 C  
HETATM   11  H   UNL     1     -11.988  14.537  68.092  1.00  0.00     0.000 HD 
HETATM   12  O   UNL     1      -9.842  13.047  69.944  1.00  0.00     1.577 OA 
BRANCH  10  13
HETATM   13  C   UNL     1     -11.038  12.130  68.094  1.00  0.00    -0.248 C  
BRANCH  13  14
HETATM   14  N   UNL     1     -10.057  11.923  66.999  1.00  0.00    -0.204 NA 
HETATM   15  C   UNL     1     -10.562  12.580  65.761  1.00  0.00    -0.270 C  
HETATM   16  C   UNL     1     -10.482  14.133  65.736  1.00  0.00    -0.311 C  
HETATM   17  N   UNL     1      -9.171  14.702  66.110  1.00  0.00    -0.230 NA 
HETATM   18  C   UNL     1      -8.683  14.053  67.339  1.00  0.00    -0.207 C  
HETATM   19  C   UNL     1      -8.732  12.510  67.309  1.00  0.00    -0.193 C  
BRANCH  17  20
HETATM   20  C   UNL     1      -8.186  14.635  65.022  1.00  0.00     6.370 C  
BRANCH  20  21
HETATM   21  C   UNL     1      -7.005  15.588  65.255  1.00  0.00     8.517 C  
BRANCH  21  22
HETATM   22  C   UNL     1      -6.797  15.986  66.726  1.00  0.00     0.043 C  
HETATM   23  C   UNL     1      -6.884  17.510  67.005  1.00  0.00    -0.208 C  
HETATM   24  C   UNL     1      -6.460  17.886  68.426  1.00  0.00    -0.198 A  
HETATM   25  C   UNL     1      -8.265  18.041  66.632  1.00  0.00    -0.285 A  
HETATM   26  C   UNL     1      -9.416  17.600  67.309  1.00  0.00    -0.257 A  
HETATM   27  C   UNL     1      -5.882  19.149  68.658  1.00  0.00    -0.230 A  
HETATM   28  C   UNL     1      -5.435  19.506  69.932  1.00  0.00    -0.243 A  
HETATM   29  C   UNL     1     -10.685  17.987  66.879  1.00  0.00    -0.214 A  
HETATM   30  C   UNL     1      -5.572  18.608  70.983  1.00  0.00    -0.099 A  
HETATM   31  C   UNL     1     -10.810  18.822  65.777  1.00  0.00    -0.082 A  
HETATM   32  F   UNL     1     -12.030  19.168  65.349  1.00  0.00     1.867 F  
HETATM   33  C   UNL     1      -9.688  19.292  65.105  1.00  0.00     1.728 A  
HETATM   34  F   UNL     1      -5.129  18.944  72.202  1.00  0.00    -0.311 F  
HETATM   35  C   UNL     1      -6.158  17.367  70.787  1.00  0.00     0.781 A  
HETATM   36  C   UNL     1      -6.606  17.009  69.515  1.00  0.00    -0.194 A  
HETATM   37  C   UNL     1      -8.416  18.908  65.534  1.00  0.00     0.860 A  
ENDBRANCH  21  22
ENDBRANCH  20  21
ENDBRANCH  17  20
ENDBRANCH  13  14
ENDBRANCH  10  13
ENDBRANCH   8   9
TORSDOF 6
ENDMDL
MODEL      289
REMARK 921   NORMALIZED FREE ENERGY PREDICTED BY IDOCK:   28.37 KCAL/MOL
REMARK 922        TOTAL FREE ENERGY PREDICTED BY IDOCK:   37.04 KCAL/MOL
REMARK 923 INTER-LIGAND FREE ENERGY PREDICTED BY IDOCK:   28.69 KCAL/MOL
REMARK 924 INTRA-LIGAND FREE ENERGY PREDICTED BY IDOCK:    8.36 KCAL/MOL
REMARK 927      BINDING AFFINITY PREDICTED BY RF-SCORE:    0.00 PKD
ROOT
HETATM    1  C   UNL     1     -13.194  10.317  64.968  1.00  0.00    11.481 C  
HETATM    2  C   UNL     1     -12.610  10.988  66.183  1.00  0.00     4.583 A  
HETATM    3  C   UNL     1     -13.492  11.757  66.968  1.00  0.00     8.755 A  
HETATM    4  C   UNL     1     -13.032  12.500  68.048  1.00  0.00     2.986 A  
HETATM    5  C   UNL     1     -11.674  12.510  68.343  1.00  0.00    -0.375 A  
HETATM    6  C   UNL     1     -10.763  11.754  67.581  1.00  0.00    -0.254 A  
HETATM    7  C   UNL     1      -9.310  11.805  67.972  1.00  0.00    -0.184 C  
HETATM    8  C   UNL     1     -11.237  10.940  66.525  1.00  0.00     0.067 A  
ENDROOT
BRANCH   8   9
HETATM    9  N   UNL     1     -10.301  10.125  65.828  1.00  0.00    -0.199 N  
HETATM   10  C   UNL     1      -9.572   9.112  66.432  1.00  0.00    -0.245 C  
HETATM   11  H   UNL     1     -10.159  10.295  64.832  1.00  0.00     0.000 HD 
HETATM   12  O   UNL     1      -9.643   8.806  67.620  1.00  0.00    -0.139 OA 
BRANCH  10  13
HETATM   13  C   UNL     1      -8.500   8.446  65.556  1.00  0.00    -0.168 C  
BRANCH  13  14
HETATM   14  N   UNL     1      -7.188   9.141  65.516  1.00  0.00    -0.081 NA 
HETATM   15  C   UNL     1      -7.344  10.435  64.794  1.00  0.00    -0.038 C  
HETATM   16  C   UNL     1      -8.080  11.562  65.572  1.00  0.00     0.504 C  
HETATM   17  N   UNL     1      -7.589  11.805  66.943  1.00  0.00    -0.144 NA 
HETATM   18  C   UNL     1      -7.446  10.522  67.653  1.00  0.00    -0.092 C  
HETATM   19  C   UNL     1      -6.667   9.443  66.869  1.00  0.00    -0.076 C  
BRANCH  17  20
HETATM   20  C   UNL     1      -6.350  12.594  66.976  1.00  0.00     0.188 C  
BRANCH  20  21
HETATM   21  C   UNL     1      -6.361  13.638  68.102  1.00  0.00    -0.123 C  
BRANCH  21  22
HETATM   22  C   UNL     1      -5.980  15.057  67.649  1.00  0.00    -0.089 C  
HETATM   23  C   UNL     1      -7.151  15.885  67.056  1.00  0.00    -0.207 C  
HETATM   24  C   UNL     1      -6.696  17.201  66.420  1.00  0.00    -0.271 A  
HETATM   25  C   UNL     1      -8.251  16.074  68.098  1.00  0.00    -0.152 A  
HETATM   26  C   UNL     1      -8.010  16.796  69.279  1.00  0.00    -0.024 A  
HETATM   27  C   UNL     1      -7.431  17.732  65.343  1.00  0.00     0.780 A  
HETATM   28  C   UNL     1      -7.015  18.902  64.704  1.00  0.00     1.145 A  
HETATM   29  C   UNL     1      -8.974  16.854  70.286  1.00  0.00     2.483 A  
HETATM   30  C   UNL     1      -5.869  19.553  65.144  1.00  0.00    -0.214 A  
HETATM   31  C   UNL     1     -10.185  16.197  70.113  1.00  0.00     0.054 A  
HETATM   32  F   UNL     1     -11.097  16.229  71.092  1.00  0.00    -0.325 F  
HETATM   33  C   UNL     1     -10.457  15.496  68.944  1.00  0.00    -0.223 A  
HETATM   34  F   UNL     1      -5.461  20.667  64.521  1.00  0.00    -0.200 F  
HETATM   35  C   UNL     1      -5.140  19.064  66.216  1.00  0.00    -0.154 A  
HETATM   36  C   UNL     1      -5.554  17.896  66.856  1.00  0.00    -0.170 A  
HETATM   37  C   UNL     1      -9.496  15.438  67.934  1.00  0.00    -0.197 A  
ENDBRANCH  21  22
ENDBRANCH  20  21
ENDBRANCH  17  20
ENDBRANCH  13  14
ENDBRANCH  10  13
ENDBRANCH   8   9
TORSDOF 6
ENDMDL
MODEL      290
REMARK 921   NORMALIZED FREE ENERGY PREDICTED BY IDOCK:   28.93 KCAL/MOL
REMARK 922        TOTAL FREE ENERGY PREDICTED BY IDOCK:   37.81 KCAL/MOL
REMARK 923 INTER-LIGAND FREE ENERGY PREDICTED BY IDOCK:   24.22 KCAL/MOL
REMARK 924 INTRA-LIGAND FREE ENERGY PREDICTED BY IDOCK:   13.59 KCAL/MOL
REMARK 927      BINDING AFFINITY PREDICTED BY RF-SCORE:    0.00 PKD
ROOT
HETATM    1  C   UNL     1     -12.934  14.452  63.519  1.00  0.00     1.519 C  
HETATM    2  C   UNL     1     -12.461  13.064  63.865  1.00  0.00    -0.377 A  
HETATM    3  C   UNL     1     -12.666  12.065  62.892  1.00  0.00     0.226 A  
HETATM    4  C   UNL     1     -12.363  10.734  63.154  1.00  0.00     2.624 A  
HETATM    5  C   UNL     1     -11.877  10.376  64.405  1.00  0.00     3.758 A  
HETATM    6  C   UNL     1     -11.661  11.347  65.402  1.00  0.00     0.144 A  
HETATM    7  C   UNL     1     -11.119  10.882  66.728  1.00  0.00    -0.196 C  
HETATM    8  C   UNL     1     -11.900  12.712  65.115  1.00  0.00    -0.396 A  
ENDROOT
BRANCH   8   9
HETATM    9  N   UNL     1     -11.592  13.676  66.116  1.00  0.00    -0.334 N  
HETATM   10  C   UNL     1     -10.350  13.776  66.725  1.00  0.00    -0.272 C  
HETATM   11  H   UNL     1     -12.324  14.327  66.402  1.00  0.00     0.000 HD 
HETATM   12  O   UNL     1      -9.386  13.055  66.478  1.00  0.00    -0.248 OA 
BRANCH  10  13
HETATM   13  C   UNL     1     -10.254  14.772  67.889  1.00  0.00    -0.229 C  
BRANCH  13  14
HETATM   14  N   UNL     1      -8.905  14.921  68.491  1.00  0.00    -0.168 NA 
HETATM   15  C   UNL     1      -7.978  13.942  67.857  1.00  0.00    -0.160 C  
HETATM   16  C   UNL     1      -7.527  14.275  66.407  1.00  0.00     2.096 C  
HETATM   17  N   UNL     1      -7.026  15.649  66.204  1.00  0.00     1.220 NA 
HETATM   18  C   UNL     1      -7.952  16.611  66.825  1.00  0.00    -0.249 C  
HETATM   19  C   UNL     1      -8.339  16.274  68.282  1.00  0.00    -0.185 C  
BRANCH  17  20
HETATM   20  C   UNL     1      -5.646  15.831  66.672  1.00  0.00     1.247 C  
BRANCH  20  21
HETATM   21  C   UNL     1      -5.503  17.057  67.587  1.00  0.00    -0.139 C  
BRANCH  21  22
HETATM   22  C   UNL     1      -6.744  17.347  68.448  1.00  0.00    -0.187 C  
HETATM   23  C   UNL     1      -7.005  18.852  68.724  1.00  0.00    -0.332 C  
HETATM   24  C   UNL     1      -8.111  19.092  69.754  1.00  0.00     0.654 A  
HETATM   25  C   UNL     1      -7.235  19.602  67.414  1.00  0.00    -0.256 A  
HETATM   26  C   UNL     1      -8.339  19.306  66.597  1.00  0.00    -0.319 A  
HETATM   27  C   UNL     1      -8.055  20.241  70.565  1.00  0.00     1.542 A  
HETATM   28  C   UNL     1      -9.018  20.465  71.552  1.00  0.00     2.206 A  
HETATM   29  C   UNL     1      -8.473  19.898  65.341  1.00  0.00     0.593 A  
HETATM   30  C   UNL     1     -10.047  19.548  71.726  1.00  0.00     3.203 A  
HETATM   31  C   UNL     1      -7.509  20.795  64.901  1.00  0.00     0.590 A  
HETATM   32  F   UNL     1      -7.624  21.340  63.684  1.00  0.00     0.213 F  
HETATM   33  C   UNL     1      -6.421  21.124  65.699  1.00  0.00    -0.074 A  
HETATM   34  F   UNL     1     -10.962  19.754  72.683  1.00  0.00     2.452 F  
HETATM   35  C   UNL     1     -10.138  18.420  70.926  1.00  0.00     2.916 A  
HETATM   36  C   UNL     1      -9.178  18.195  69.940  1.00  0.00     1.391 A  
HETATM   37  C   UNL     1      -6.284  20.534  66.957  1.00  0.00    -0.260 A  
ENDBRANCH  21  22
ENDBRANCH  20  21
ENDBRANCH  17  20
ENDBRANCH  13  14
ENDBRANCH  10  13
ENDBRANCH   8   9
TORSDOF 6
ENDMDL
MODEL      291
REMARK 921   NORMALIZED FREE ENERGY PREDICTED BY IDOCK:   32.50 KCAL/MOL
REMARK 922        TOTAL FREE ENERGY PREDICTED BY IDOCK:   42.63 KCAL/MOL
REMARK 923 INTER-LIGAND FREE ENERGY PREDICTED BY IDOCK:    8.62 KCAL/MOL
REMARK 924 INTRA-LIGAND FREE ENERGY PREDICTED BY IDOCK:   34.01 KCAL/MOL
REMARK 927      BINDING AFFINITY PREDICTED BY RF-SCORE:    0.00 PKD
ROOT
HETATM    1  C   UNL     1      -8.920   7.165  67.380  1.00  0.00    -0.122 C  
HETATM    2  C   UNL     1      -9.283   5.847  66.749  1.00  0.00    -0.139 A  
HETATM    3  C   UNL     1      -9.087   5.735  65.358  1.00  0.00     0.012 A  
HETATM    4  C   UNL     1      -9.488   4.600  64.665  1.00  0.00    -0.054 A  
HETATM    5  C   UNL     1     -10.121   3.569  65.347  1.00  0.00     0.117 A  
HETATM    6  C   UNL     1     -10.335   3.646  66.736  1.00  0.00     1.054 A  
HETATM    7  C   UNL     1     -11.015   2.481  67.407  1.00  0.00     6.534 C  
HETATM    8  C   UNL     1      -9.863   4.768  67.458  1.00  0.00    -0.162 A  
ENDROOT
BRANCH   8   9
HETATM    9  N   UNL     1     -10.021   4.776  68.873  1.00  0.00    -0.157 N  
HETATM   10  C   UNL     1     -11.133   5.302  69.514  1.00  0.00     0.673 C  
HETATM   11  H   UNL     1      -9.279   4.375  69.445  1.00  0.00     0.000 HD 
HETATM   12  O   UNL     1     -12.094   5.817  68.947  1.00  0.00     1.900 OA 
BRANCH  10  13
HETATM   13  C   UNL     1     -11.054   5.363  71.046  1.00  0.00     0.053 C  
BRANCH  13  14
HETATM   14  N   UNL     1      -9.746   5.795  71.601  1.00  0.00    -0.160 NA 
HETATM   15  C   UNL     1      -9.138   6.801  70.687  1.00  0.00    -0.155 C  
HETATM   16  C   UNL     1      -9.780   8.217  70.712  1.00  0.00    -0.170 C  
HETATM   17  N   UNL     1      -9.964   8.801  72.056  1.00  0.00    -0.329 NA 
HETATM   18  C   UNL     1     -10.574   7.803  72.951  1.00  0.00    -0.366 C  
HETATM   19  C   UNL     1      -9.879   6.424  72.936  1.00  0.00    -0.167 C  
BRANCH  17  20
HETATM   20  C   UNL     1      -8.724   9.357  72.613  1.00  0.00     2.107 C  
BRANCH  20  21
HETATM   21  C   UNL     1      -7.478   8.834  71.883  1.00  0.00    -0.051 C  
BRANCH  21  22
HETATM   22  C   UNL     1      -7.173   9.559  70.561  1.00  0.00    -0.141 C  
HETATM   23  C   UNL     1      -8.024   9.090  69.352  1.00  0.00    -0.100 C  
HETATM   24  C   UNL     1      -7.549   9.673  68.019  1.00  0.00    -0.083 A  
HETATM   25  C   UNL     1      -9.507   9.337  69.617  1.00  0.00    -0.188 A  
HETATM   26  C   UNL     1     -10.005  10.642  69.779  1.00  0.00    -0.002 A  
HETATM   27  C   UNL     1      -7.739   8.930  66.839  1.00  0.00    -0.098 A  
HETATM   28  C   UNL     1      -7.271   9.406  65.612  1.00  0.00    -0.091 A  
HETATM   29  C   UNL     1     -11.332  10.855  70.151  1.00  0.00    -0.367 A  
HETATM   30  C   UNL     1      -6.619  10.632  65.557  1.00  0.00    -0.052 A  
HETATM   31  C   UNL     1     -12.169   9.768  70.355  1.00  0.00    -0.057 A  
HETATM   32  F   UNL     1     -13.434   9.974  70.741  1.00  0.00    -0.438 F  
HETATM   33  C   UNL     1     -11.709   8.468  70.178  1.00  0.00     0.192 A  
HETATM   34  F   UNL     1      -6.155  11.082  64.384  1.00  0.00     0.025 F  
HETATM   35  C   UNL     1      -6.438  11.394  66.700  1.00  0.00    -0.117 A  
HETATM   36  C   UNL     1      -6.905  10.920  67.926  1.00  0.00    -0.068 A  
HETATM   37  C   UNL     1     -10.382   8.251  69.804  1.00  0.00    -0.216 A  
ENDBRANCH  21  22
ENDBRANCH  20  21
ENDBRANCH  17  20
ENDBRANCH  13  14
ENDBRANCH  10  13
ENDBRANCH   8   9
TORSDOF 6
ENDMDL
MODEL      292
REMARK 921   NORMALIZED FREE ENERGY PREDICTED BY IDOCK:   36.01 KCAL/MOL
REMARK 922        TOTAL FREE ENERGY PREDICTED BY IDOCK:   47.36 KCAL/MOL
REMARK 923 INTER-LIGAND FREE ENERGY PREDICTED BY IDOCK:   26.18 KCAL/MOL
REMARK 924 INTRA-LIGAND FREE ENERGY PREDICTED BY IDOCK:   21.19 KCAL/MOL
REMARK 927      BINDING AFFINITY PREDICTED BY RF-SCORE:    0.00 PKD
ROOT
HETATM    1  C   UNL     1      -6.160  15.023  66.669  1.00  0.00     2.149 C  
HETATM    2  C   UNL     1      -7.618  15.298  66.922  1.00  0.00    -0.051 A  
HETATM    3  C   UNL     1      -8.213  16.320  66.154  1.00  0.00    -0.204 A  
HETATM    4  C   UNL     1      -9.523  16.722  66.384  1.00  0.00    -0.307 A  
HETATM    5  C   UNL     1     -10.252  16.129  67.407  1.00  0.00    -0.272 A  
HETATM    6  C   UNL     1      -9.691  15.106  68.195  1.00  0.00    -0.217 A  
HETATM    7  C   UNL     1     -10.549  14.502  69.276  1.00  0.00    -0.224 C  
HETATM    8  C   UNL     1      -8.382  14.644  67.918  1.00  0.00    -0.152 A  
ENDROOT
BRANCH   8   9
HETATM    9  N   UNL     1      -7.876  13.552  68.679  1.00  0.00    -0.240 N  
HETATM   10  C   UNL     1      -6.774  12.801  68.298  1.00  0.00    -0.087 C  
HETATM   11  H   UNL     1      -8.348  13.309  69.550  1.00  0.00     0.000 HD 
HETATM   12  O   UNL     1      -6.118  12.984  67.274  1.00  0.00    -0.303 OA 
BRANCH  10  13
HETATM   13  C   UNL     1      -6.472  11.570  69.164  1.00  0.00    -0.092 C  
BRANCH  13  14
HETATM   14  N   UNL     1      -7.633  11.009  69.900  1.00  0.00     0.149 NA 
HETATM   15  C   UNL     1      -8.499  10.259  68.948  1.00  0.00    -0.138 C  
HETATM   16  C   UNL     1      -7.951   8.884  68.471  1.00  0.00    -0.104 C  
HETATM   17  N   UNL     1      -7.487   7.984  69.546  1.00  0.00    -0.089 NA 
HETATM   18  C   UNL     1      -6.625   8.731  70.478  1.00  0.00    -0.042 C  
HETATM   19  C   UNL     1      -7.223  10.067  70.969  1.00  0.00     0.532 C  
BRANCH  17  20
HETATM   20  C   UNL     1      -8.588   7.303  70.238  1.00  0.00    -0.142 C  
BRANCH  20  21
HETATM   21  C   UNL     1      -9.583   6.668  69.255  1.00  0.00    -0.145 C  
BRANCH  21  22
HETATM   22  C   UNL     1     -10.622   7.651  68.689  1.00  0.00    -0.161 C  
HETATM   23  C   UNL     1     -10.025   8.950  68.086  1.00  0.00    -0.208 C  
HETATM   24  C   UNL     1     -11.087   9.992  67.731  1.00  0.00    -0.246 A  
HETATM   25  C   UNL     1      -9.100   8.619  66.917  1.00  0.00    -0.175 A  
HETATM   26  C   UNL     1      -9.597   8.011  65.752  1.00  0.00     0.172 A  
HETATM   27  C   UNL     1     -10.754  11.359  67.791  1.00  0.00    -0.254 A  
HETATM   28  C   UNL     1     -11.713  12.340  67.526  1.00  0.00    -0.402 A  
HETATM   29  C   UNL     1      -8.730   7.591  64.744  1.00  0.00     0.288 A  
HETATM   30  C   UNL     1     -13.007  11.960  67.191  1.00  0.00     4.378 A  
HETATM   31  C   UNL     1      -7.363   7.784  64.892  1.00  0.00    -0.070 A  
HETATM   32  F   UNL     1      -6.530   7.353  63.936  1.00  0.00    -0.046 F  
HETATM   33  C   UNL     1      -6.847   8.404  66.023  1.00  0.00    -0.064 A  
HETATM   34  F   UNL     1     -13.931  12.900  66.953  1.00  0.00     5.081 F  
HETATM   35  C   UNL     1     -13.356  10.621  67.103  1.00  0.00    11.954 A  
HETATM   36  C   UNL     1     -12.399   9.641  67.367  1.00  0.00     6.005 A  
HETATM   37  C   UNL     1      -7.712   8.827  67.033  1.00  0.00    -0.095 A  
ENDBRANCH  21  22
ENDBRANCH  20  21
ENDBRANCH  17  20
ENDBRANCH  13  14
ENDBRANCH  10  13
ENDBRANCH   8   9
TORSDOF 6
ENDMDL
MODEL      293
REMARK 921   NORMALIZED FREE ENERGY PREDICTED BY IDOCK:   36.37 KCAL/MOL
REMARK 922        TOTAL FREE ENERGY PREDICTED BY IDOCK:   47.85 KCAL/MOL
REMARK 923 INTER-LIGAND FREE ENERGY PREDICTED BY IDOCK:   37.98 KCAL/MOL
REMARK 924 INTRA-LIGAND FREE ENERGY PREDICTED BY IDOCK:    9.87 KCAL/MOL
REMARK 927      BINDING AFFINITY PREDICTED BY RF-SCORE:    0.00 PKD
ROOT
HETATM    1  C   UNL     1      -8.420  15.754  68.780  1.00  0.00    -0.198 C  
HETATM    2  C   UNL     1      -9.474  15.452  69.812  1.00  0.00    -0.156 A  
HETATM    3  C   UNL     1     -10.015  16.553  70.506  1.00  0.00     1.352 A  
HETATM    4  C   UNL     1     -10.915  16.372  71.549  1.00  0.00     0.527 A  
HETATM    5  C   UNL     1     -11.267  15.085  71.935  1.00  0.00    -0.142 A  
HETATM    6  C   UNL     1     -10.746  13.962  71.266  1.00  0.00     2.966 A  
HETATM    7  C   UNL     1     -11.186  12.600  71.734  1.00  0.00     4.909 C  
HETATM    8  C   UNL     1      -9.885  14.142  70.157  1.00  0.00     1.468 A  
ENDROOT
BRANCH   8   9
HETATM    9  N   UNL     1      -9.443  12.988  69.451  1.00  0.00     0.310 N  
HETATM   10  C   UNL     1      -8.206  12.396  69.654  1.00  0.00     1.633 C  
HETATM   11  H   UNL     1     -10.068  12.575  68.759  1.00  0.00     0.000 HD 
HETATM   12  O   UNL     1      -7.358  12.793  70.451  1.00  0.00     1.410 OA 
BRANCH  10  13
HETATM   13  C   UNL     1      -7.844  11.256  68.691  1.00  0.00    -0.139 C  
BRANCH  13  14
HETATM   14  N   UNL     1      -7.030  11.650  67.513  1.00  0.00    -0.095 NA 
HETATM   15  C   UNL     1      -7.904  11.687  66.308  1.00  0.00     0.117 C  
HETATM   16  C   UNL     1      -8.884  12.891  66.216  1.00  0.00     0.170 C  
HETATM   17  N   UNL     1      -8.274  14.217  66.437  1.00  0.00     0.537 NA 
HETATM   18  C   UNL     1      -7.418  14.175  67.636  1.00  0.00    -0.178 C  
HETATM   19  C   UNL     1      -6.424  12.993  67.669  1.00  0.00    -0.160 C  
BRANCH  17  20
HETATM   20  C   UNL     1      -7.551  14.719  65.261  1.00  0.00     8.170 C  
BRANCH  20  21
HETATM   21  C   UNL     1      -7.372  16.244  65.301  1.00  0.00     4.541 C  
BRANCH  21  22
HETATM   22  C   UNL     1      -8.282  16.958  66.314  1.00  0.00    -0.344 C  
HETATM   23  C   UNL     1      -9.716  17.257  65.802  1.00  0.00    -0.007 C  
HETATM   24  C   UNL     1     -10.518  18.153  66.747  1.00  0.00    -0.363 A  
HETATM   25  C   UNL     1     -10.438  15.958  65.453  1.00  0.00    -0.429 A  
HETATM   26  C   UNL     1     -10.724  15.002  66.443  1.00  0.00    -0.322 A  
HETATM   27  C   UNL     1     -11.501  19.008  66.213  1.00  0.00     1.090 A  
HETATM   28  C   UNL     1     -12.215  19.879  67.039  1.00  0.00     2.971 A  
HETATM   29  C   UNL     1     -11.263  13.763  66.099  1.00  0.00    -0.301 A  
HETATM   30  C   UNL     1     -11.959  19.892  68.404  1.00  0.00     3.602 A  
HETATM   31  C   UNL     1     -11.527  13.476  64.768  1.00  0.00    -0.346 A  
HETATM   32  F   UNL     1     -12.018  12.275  64.437  1.00  0.00    -0.399 F  
HETATM   33  C   UNL     1     -11.277  14.412  63.772  1.00  0.00     0.741 A  
HETATM   34  F   UNL     1     -12.633  20.738  69.195  1.00  0.00     3.166 F  
HETATM   35  C   UNL     1     -11.013  19.045  68.959  1.00  0.00     1.315 A  
HETATM   36  C   UNL     1     -10.299  18.175  68.136  1.00  0.00    -0.393 A  
HETATM   37  C   UNL     1     -10.739  15.654  64.112  1.00  0.00     0.959 A  
ENDBRANCH  21  22
ENDBRANCH  20  21
ENDBRANCH  17  20
ENDBRANCH  13  14
ENDBRANCH  10  13
ENDBRANCH   8   9
TORSDOF 6
ENDMDL
MODEL      294
REMARK 921   NORMALIZED FREE ENERGY PREDICTED BY IDOCK:   37.46 KCAL/MOL
REMARK 922        TOTAL FREE ENERGY PREDICTED BY IDOCK:   49.33 KCAL/MOL
REMARK 923 INTER-LIGAND FREE ENERGY PREDICTED BY IDOCK:   14.91 KCAL/MOL
REMARK 924 INTRA-LIGAND FREE ENERGY PREDICTED BY IDOCK:   34.43 KCAL/MOL
REMARK 927      BINDING AFFINITY PREDICTED BY RF-SCORE:    0.00 PKD
ROOT
HETATM    1  C   UNL     1     -13.173  11.035  67.010  1.00  0.00     9.342 C  
HETATM    2  C   UNL     1     -12.174  10.840  68.120  1.00  0.00     0.736 A  
HETATM    3  C   UNL     1     -12.248  11.740  69.203  1.00  0.00    -0.169 A  
HETATM    4  C   UNL     1     -11.307  11.712  70.225  1.00  0.00     0.038 A  
HETATM    5  C   UNL     1     -10.258  10.803  70.166  1.00  0.00     0.383 A  
HETATM    6  C   UNL     1     -10.153   9.889  69.100  1.00  0.00    -0.210 A  
HETATM    7  C   UNL     1      -8.996   8.925  69.115  1.00  0.00    -0.140 C  
HETATM    8  C   UNL     1     -11.148   9.866  68.095  1.00  0.00    -0.156 A  
ENDROOT
BRANCH   8   9
HETATM    9  N   UNL     1     -11.056   8.876  67.076  1.00  0.00    -0.136 N  
HETATM   10  C   UNL     1     -11.737   7.669  67.121  1.00  0.00     2.347 C  
HETATM   11  H   UNL     1     -10.458   9.064  66.271  1.00  0.00     0.000 HD 
HETATM   12  O   UNL     1     -12.484   7.316  68.031  1.00  0.00     3.425 OA 
BRANCH  10  13
HETATM   13  C   UNL     1     -11.392   6.665  66.011  1.00  0.00     2.387 C  
BRANCH  13  14
HETATM   14  N   UNL     1      -9.958   6.293  65.911  1.00  0.00     0.244 NA 
HETATM   15  C   UNL     1      -9.186   7.048  66.937  1.00  0.00    -0.150 C  
HETATM   16  C   UNL     1      -9.358   6.568  68.406  1.00  0.00    -0.122 C  
HETATM   17  N   UNL     1      -9.191   5.116  68.616  1.00  0.00    -0.114 NA 
HETATM   18  C   UNL     1      -9.964   4.376  67.604  1.00  0.00    -0.053 C  
HETATM   19  C   UNL     1      -9.731   4.849  66.152  1.00  0.00    -0.190 C  
BRANCH  17  20
HETATM   20  C   UNL     1      -7.783   4.699  68.647  1.00  0.00    -0.072 C  
BRANCH  20  21
HETATM   21  C   UNL     1      -7.027   5.306  69.838  1.00  0.00    -0.057 C  
BRANCH  21  22
HETATM   22  C   UNL     1      -6.528   6.741  69.602  1.00  0.00    -0.044 C  
HETATM   23  C   UNL     1      -7.621   7.741  69.138  1.00  0.00    -0.099 C  
HETATM   24  C   UNL     1      -7.054   9.095  68.706  1.00  0.00    -0.073 A  
HETATM   25  C   UNL     1      -8.716   7.860  70.194  1.00  0.00    -0.136 A  
HETATM   26  C   UNL     1      -8.435   8.377  71.471  1.00  0.00    -0.202 A  
HETATM   27  C   UNL     1      -7.729   9.838  67.719  1.00  0.00    -0.091 A  
HETATM   28  C   UNL     1      -7.212  11.053  67.263  1.00  0.00    -0.102 A  
HETATM   29  C   UNL     1      -9.406   8.362  72.473  1.00  0.00    -0.346 A  
HETATM   30  C   UNL     1      -6.025  11.536  67.797  1.00  0.00    -0.049 A  
HETATM   31  C   UNL     1     -10.662   7.839  72.202  1.00  0.00    -0.248 A  
HETATM   32  F   UNL     1     -11.582   7.799  73.173  1.00  0.00    -0.402 F  
HETATM   33  C   UNL     1     -10.974   7.344  70.941  1.00  0.00    -0.271 A  
HETATM   34  F   UNL     1      -5.520  12.693  67.348  1.00  0.00    -0.106 F  
HETATM   35  C   UNL     1      -5.351  10.836  68.786  1.00  0.00    -0.041 A  
HETATM   36  C   UNL     1      -5.866   9.623  69.243  1.00  0.00    -0.034 A  
HETATM   37  C   UNL     1     -10.006   7.359  69.936  1.00  0.00    -0.188 A  
ENDBRANCH  21  22
ENDBRANCH  20  21
ENDBRANCH  17  20
ENDBRANCH  13  14
ENDBRANCH  10  13
ENDBRANCH   8   9
TORSDOF 6
ENDMDL
MODEL      295
REMARK 921   NORMALIZED FREE ENERGY PREDICTED BY IDOCK:   39.43 KCAL/MOL
REMARK 922        TOTAL FREE ENERGY PREDICTED BY IDOCK:   51.98 KCAL/MOL
REMARK 923 INTER-LIGAND FREE ENERGY PREDICTED BY IDOCK:   48.90 KCAL/MOL
REMARK 924 INTRA-LIGAND FREE ENERGY PREDICTED BY IDOCK:    3.08 KCAL/MOL
REMARK 927      BINDING AFFINITY PREDICTED BY RF-SCORE:    0.00 PKD
ROOT
HETATM    1  C   UNL     1     -13.567   5.583  66.036  1.00  0.00    12.978 C  
HETATM    2  C   UNL     1     -12.607   4.712  65.269  1.00  0.00     5.724 A  
HETATM    3  C   UNL     1     -13.104   3.477  64.806  1.00  0.00    13.126 A  
HETATM    4  C   UNL     1     -12.271   2.557  64.180  1.00  0.00     5.531 A  
HETATM    5  C   UNL     1     -10.920   2.844  64.035  1.00  0.00     0.204 A  
HETATM    6  C   UNL     1     -10.388   4.068  64.487  1.00  0.00    -0.221 A  
HETATM    7  C   UNL     1      -8.916   4.311  64.280  1.00  0.00    -0.148 C  
HETATM    8  C   UNL     1     -11.246   5.037  65.059  1.00  0.00     0.869 A  
ENDROOT
BRANCH   8   9
HETATM    9  N   UNL     1     -10.691   6.295  65.429  1.00  0.00     1.539 N  
HETATM   10  C   UNL     1      -9.594   6.861  64.798  1.00  0.00     2.113 C  
HETATM   11  H   UNL     1     -11.123   6.806  66.198  1.00  0.00     0.000 HD 
HETATM   12  O   UNL     1      -8.979   6.351  63.864  1.00  0.00     0.596 OA 
BRANCH  10  13
HETATM   13  C   UNL     1      -9.045   8.145  65.436  1.00  0.00     0.110 C  
BRANCH  13  14
HETATM   14  N   UNL     1      -9.859   8.704  66.545  1.00  0.00    -0.259 NA 
HETATM   15  C   UNL     1      -9.427   8.082  67.828  1.00  0.00    -0.145 C  
HETATM   16  C   UNL     1      -8.062   8.567  68.392  1.00  0.00    -0.122 C  
HETATM   17  N   UNL     1      -7.894  10.033  68.460  1.00  0.00    -0.091 NA 
HETATM   18  C   UNL     1      -8.314  10.639  67.185  1.00  0.00    -0.125 C  
HETATM   19  C   UNL     1      -9.697  10.171  66.682  1.00  0.00    -0.192 C  
BRANCH  17  20
HETATM   20  C   UNL     1      -8.580  10.635  69.610  1.00  0.00     0.148 C  
BRANCH  20  21
HETATM   21  C   UNL     1      -9.188  12.003  69.268  1.00  0.00     0.722 C  
BRANCH  21  22
HETATM   22  C   UNL     1     -10.241  12.494  70.276  1.00  0.00     3.021 C  
HETATM   23  C   UNL     1     -10.876  13.868  69.934  1.00  0.00     0.217 C  
HETATM   24  C   UNL     1     -11.752  14.423  71.060  1.00  0.00    -0.256 A  
HETATM   25  C   UNL     1     -11.601  13.800  68.592  1.00  0.00    -0.369 A  
HETATM   26  C   UNL     1     -12.714  12.962  68.414  1.00  0.00     1.247 A  
HETATM   27  C   UNL     1     -11.870  15.818  71.213  1.00  0.00    -0.491 A  
HETATM   28  C   UNL     1     -12.617  16.360  72.261  1.00  0.00    -0.033 A  
HETATM   29  C   UNL     1     -13.290  12.804  67.153  1.00  0.00     5.075 A  
HETATM   30  C   UNL     1     -13.258  15.512  73.156  1.00  0.00    -0.549 A  
HETATM   31  C   UNL     1     -12.762  13.488  66.068  1.00  0.00    -0.245 A  
HETATM   32  F   UNL     1     -13.297  13.313  64.854  1.00  0.00    -0.258 F  
HETATM   33  C   UNL     1     -11.676  14.343  66.222  1.00  0.00    -0.394 A  
HETATM   34  F   UNL     1     -13.961  16.031  74.171  1.00  0.00     0.432 F  
HETATM   35  C   UNL     1     -13.176  14.136  73.015  1.00  0.00    -0.436 A  
HETATM   36  C   UNL     1     -12.431  13.593  71.969  1.00  0.00    -0.098 A  
HETATM   37  C   UNL     1     -11.099  14.505  67.482  1.00  0.00    -0.316 A  
ENDBRANCH  21  22
ENDBRANCH  20  21
ENDBRANCH  17  20
ENDBRANCH  13  14
ENDBRANCH  10  13
ENDBRANCH   8   9
TORSDOF 6
ENDMDL
MODEL      296
REMARK 921   NORMALIZED FREE ENERGY PREDICTED BY IDOCK:   40.94 KCAL/MOL
REMARK 922        TOTAL FREE ENERGY PREDICTED BY IDOCK:   54.03 KCAL/MOL
REMARK 923 INTER-LIGAND FREE ENERGY PREDICTED BY IDOCK:   47.62 KCAL/MOL
REMARK 924 INTRA-LIGAND FREE ENERGY PREDICTED BY IDOCK:    6.41 KCAL/MOL
REMARK 927      BINDING AFFINITY PREDICTED BY RF-SCORE:    0.00 PKD
ROOT
HETATM    1  C   UNL     1      -8.611  17.197  72.908  1.00  0.00    17.624 C  
HETATM    2  C   UNL     1      -7.895  18.362  72.278  1.00  0.00    10.298 A  
HETATM    3  C   UNL     1      -8.433  19.642  72.522  1.00  0.00     4.249 A  
HETATM    4  C   UNL     1      -7.910  20.771  71.902  1.00  0.00     2.774 A  
HETATM    5  C   UNL     1      -6.859  20.634  71.004  1.00  0.00     1.108 A  
HETATM    6  C   UNL     1      -6.298  19.371  70.735  1.00  0.00     0.143 A  
HETATM    7  C   UNL     1      -5.152  19.306  69.760  1.00  0.00    -0.198 C  
HETATM    8  C   UNL     1      -6.779  18.229  71.418  1.00  0.00     3.233 A  
ENDROOT
BRANCH   8   9
HETATM    9  N   UNL     1      -6.135  16.981  71.185  1.00  0.00     1.074 N  
HETATM   10  C   UNL     1      -6.689  15.759  71.535  1.00  0.00     2.530 C  
HETATM   11  H   UNL     1      -5.218  16.986  70.739  1.00  0.00     0.000 HD 
HETATM   12  O   UNL     1      -7.780  15.611  72.080  1.00  0.00     5.477 OA 
BRANCH  10  13
HETATM   13  C   UNL     1      -5.780  14.535  71.347  1.00  0.00    -0.104 C  
BRANCH  13  14
HETATM   14  N   UNL     1      -6.212  13.575  70.300  1.00  0.00    -0.100 NA 
HETATM   15  C   UNL     1      -7.669  13.754  70.046  1.00  0.00     1.281 C  
HETATM   16  C   UNL     1      -8.068  15.027  69.248  1.00  0.00    -0.178 C  
HETATM   17  N   UNL     1      -7.307  15.254  68.003  1.00  0.00    -0.114 NA 
HETATM   18  C   UNL     1      -5.867  15.084  68.264  1.00  0.00    -0.119 C  
HETATM   19  C   UNL     1      -5.504  13.784  69.015  1.00  0.00    -0.076 C  
BRANCH  17  20
HETATM   20  C   UNL     1      -7.768  14.414  66.889  1.00  0.00     0.300 C  
BRANCH  20  21
HETATM   21  C   UNL     1      -8.970  13.543  67.282  1.00  0.00    -0.222 C  
BRANCH  21  22
HETATM   22  C   UNL     1      -8.593  12.242  68.010  1.00  0.00    -0.176 C  
HETATM   23  C   UNL     1      -9.642  11.104  67.890  1.00  0.00    -0.181 C  
HETATM   24  C   UNL     1      -9.339   9.909  68.797  1.00  0.00    -0.157 A  
HETATM   25  C   UNL     1      -9.836  10.710  66.428  1.00  0.00    -0.259 A  
HETATM   26  C   UNL     1      -8.782  10.153  65.684  1.00  0.00    -0.173 A  
HETATM   27  C   UNL     1     -10.407   9.137  69.294  1.00  0.00    -0.223 A  
HETATM   28  C   UNL     1     -10.173   8.073  70.167  1.00  0.00    -0.203 A  
HETATM   29  C   UNL     1      -8.924   9.918  64.317  1.00  0.00    -0.278 A  
HETATM   30  C   UNL     1      -8.870   7.767  70.541  1.00  0.00    -0.145 A  
HETATM   31  C   UNL     1     -10.121  10.230  63.689  1.00  0.00     0.163 A  
HETATM   32  F   UNL     1     -10.246  10.031  62.371  1.00  0.00     0.003 F  
HETATM   33  C   UNL     1     -11.188  10.759  64.406  1.00  0.00     0.607 A  
HETATM   34  F   UNL     1      -8.645   6.757  71.390  1.00  0.00    -0.121 F  
HETATM   35  C   UNL     1      -7.799   8.497  70.049  1.00  0.00    -0.102 A  
HETATM   36  C   UNL     1      -8.031   9.560  69.177  1.00  0.00    -0.094 A  
HETATM   37  C   UNL     1     -11.050  10.994  65.775  1.00  0.00    -0.018 A  
ENDBRANCH  21  22
ENDBRANCH  20  21
ENDBRANCH  17  20
ENDBRANCH  13  14
ENDBRANCH  10  13
ENDBRANCH   8   9
TORSDOF 6
ENDMDL
MODEL      297
REMARK 921   NORMALIZED FREE ENERGY PREDICTED BY IDOCK:   44.00 KCAL/MOL
REMARK 922        TOTAL FREE ENERGY PREDICTED BY IDOCK:   58.17 KCAL/MOL
REMARK 923 INTER-LIGAND FREE ENERGY PREDICTED BY IDOCK:   40.30 KCAL/MOL
REMARK 924 INTRA-LIGAND FREE ENERGY PREDICTED BY IDOCK:   17.87 KCAL/MOL
REMARK 927      BINDING AFFINITY PREDICTED BY RF-SCORE:    0.00 PKD
ROOT
HETATM    1  C   UNL     1     -11.102   8.059  64.130  1.00  0.00    14.095 C  
HETATM    2  C   UNL     1      -9.663   8.027  64.570  1.00  0.00     2.632 A  
HETATM    3  C   UNL     1      -8.755   7.364  63.720  1.00  0.00     0.690 A  
HETATM    4  C   UNL     1      -7.426   7.188  64.085  1.00  0.00    -0.099 A  
HETATM    5  C   UNL     1      -6.989   7.645  65.322  1.00  0.00    -0.058 A  
HETATM    6  C   UNL     1      -7.868   8.311  66.198  1.00  0.00    -0.098 A  
HETATM    7  C   UNL     1      -7.316   8.790  67.515  1.00  0.00    -0.081 C  
HETATM    8  C   UNL     1      -9.203   8.556  65.800  1.00  0.00    -0.146 A  
ENDROOT
BRANCH   8   9
HETATM    9  N   UNL     1     -10.042   9.304  66.674  1.00  0.00    -0.263 N  
HETATM   10  C   UNL     1     -10.393   8.878  67.946  1.00  0.00    -0.230 C  
HETATM   11  H   UNL     1     -10.404  10.200  66.347  1.00  0.00     0.000 HD 
HETATM   12  O   UNL     1     -10.031   7.822  68.459  1.00  0.00    -0.171 OA 
BRANCH  10  13
HETATM   13  C   UNL     1     -11.429   9.743  68.678  1.00  0.00     0.198 C  
BRANCH  13  14
HETATM   14  N   UNL     1     -11.883   9.219  69.991  1.00  0.00     0.092 NA 
HETATM   15  C   UNL     1     -13.358   9.018  69.952  1.00  0.00     2.469 C  
HETATM   16  C   UNL     1     -13.856   7.796  69.129  1.00  0.00     9.995 C  
HETATM   17  N   UNL     1     -13.180   6.518  69.429  1.00  0.00     4.727 NA 
HETATM   18  C   UNL     1     -11.722   6.723  69.458  1.00  0.00    -0.033 C  
HETATM   19  C   UNL     1     -11.262   7.915  70.325  1.00  0.00    -0.200 C  
BRANCH  17  20
HETATM   20  C   UNL     1     -13.672   5.886  70.660  1.00  0.00     4.818 C  
BRANCH  20  21
HETATM   21  C   UNL     1     -12.530   5.528  71.622  1.00  0.00     1.403 C  
BRANCH  21  22
HETATM   22  C   UNL     1     -11.461   6.624  71.765  1.00  0.00    -0.334 C  
HETATM   23  C   UNL     1     -10.004   6.101  71.870  1.00  0.00    -0.187 C  
HETATM   24  C   UNL     1      -8.996   7.195  72.227  1.00  0.00    -0.147 A  
HETATM   25  C   UNL     1      -9.624   5.326  70.611  1.00  0.00    -0.235 A  
HETATM   26  C   UNL     1      -9.568   5.963  69.360  1.00  0.00    -0.171 A  
HETATM   27  C   UNL     1      -7.841   6.853  72.956  1.00  0.00    -0.104 A  
HETATM   28  C   UNL     1      -6.925   7.834  73.345  1.00  0.00    -0.106 A  
HETATM   29  C   UNL     1      -9.350   5.226  68.196  1.00  0.00    -0.139 A  
HETATM   30  C   UNL     1      -7.154   9.160  72.999  1.00  0.00     0.648 A  
HETATM   31  C   UNL     1      -9.180   3.851  68.278  1.00  0.00    -0.155 A  
HETATM   32  F   UNL     1      -9.001   3.142  67.157  1.00  0.00    -0.120 F  
HETATM   33  C   UNL     1      -9.207   3.199  69.505  1.00  0.00    -0.222 A  
HETATM   34  F   UNL     1      -6.285  10.103  73.385  1.00  0.00     0.656 F  
HETATM   35  C   UNL     1      -8.271   9.521  72.262  1.00  0.00     1.749 A  
HETATM   36  C   UNL     1      -9.186   8.543  71.873  1.00  0.00    -0.326 A  
HETATM   37  C   UNL     1      -9.423   3.934  70.672  1.00  0.00    -0.244 A  
ENDBRANCH  21  22
ENDBRANCH  20  21
ENDBRANCH  17  20
ENDBRANCH  13  14
ENDBRANCH  10  13
ENDBRANCH   8   9
TORSDOF 6
ENDMDL
MODEL      298
REMARK 921   NORMALIZED FREE ENERGY PREDICTED BY IDOCK:   47.29 KCAL/MOL
REMARK 922        TOTAL FREE ENERGY PREDICTED BY IDOCK:   62.60 KCAL/MOL
REMARK 923 INTER-LIGAND FREE ENERGY PREDICTED BY IDOCK:   19.22 KCAL/MOL
REMARK 924 INTRA-LIGAND FREE ENERGY PREDICTED BY IDOCK:   43.38 KCAL/MOL
REMARK 927      BINDING AFFINITY PREDICTED BY RF-SCORE:    0.00 PKD
ROOT
HETATM    1  C   UNL     1     -11.555  14.065  72.287  1.00  0.00     1.377 C  
HETATM    2  C   UNL     1     -12.207  12.773  71.870  1.00  0.00     0.719 A  
HETATM    3  C   UNL     1     -13.301  12.337  72.644  1.00  0.00     0.449 A  
HETATM    4  C   UNL     1     -13.903  11.107  72.406  1.00  0.00     0.527 A  
HETATM    5  C   UNL     1     -13.402  10.279  71.410  1.00  0.00    -0.395 A  
HETATM    6  C   UNL     1     -12.310  10.682  70.617  1.00  0.00    -0.462 A  
HETATM    7  C   UNL     1     -11.834   9.735  69.547  1.00  0.00     0.204 C  
HETATM    8  C   UNL     1     -11.739  11.963  70.807  1.00  0.00     0.324 A  
ENDROOT
BRANCH   8   9
HETATM    9  N   UNL     1     -10.691  12.371  69.935  1.00  0.00     0.027 N  
HETATM   10  C   UNL     1      -9.804  13.395  70.233  1.00  0.00     3.255 C  
HETATM   11  H   UNL     1     -10.588  11.887  69.044  1.00  0.00     0.000 HD 
HETATM   12  O   UNL     1      -9.820  14.060  71.266  1.00  0.00     3.949 OA 
BRANCH  10  13
HETATM   13  C   UNL     1      -8.842  13.795  69.106  1.00  0.00     0.436 C  
BRANCH  13  14
HETATM   14  N   UNL     1      -9.480  14.401  67.909  1.00  0.00    -0.209 NA 
HETATM   15  C   UNL     1      -8.736  13.971  66.691  1.00  0.00    -0.028 C  
HETATM   16  C   UNL     1      -8.958  12.499  66.244  1.00  0.00    -0.003 C  
HETATM   17  N   UNL     1     -10.369  12.076  66.148  1.00  0.00    -0.219 NA 
HETATM   18  C   UNL     1     -11.095  12.496  67.359  1.00  0.00    -0.272 C  
HETATM   19  C   UNL     1     -10.890  13.978  67.744  1.00  0.00    -0.247 C  
BRANCH  17  20
HETATM   20  C   UNL     1     -11.026  12.545  64.921  1.00  0.00    -0.300 C  
BRANCH  20  21
HETATM   21  C   UNL     1     -10.826  14.051  64.699  1.00  0.00    -0.416 C  
BRANCH  21  22
HETATM   22  C   UNL     1      -9.651  14.653  65.488  1.00  0.00    -0.139 C  
HETATM   23  C   UNL     1      -9.937  16.040  66.122  1.00  0.00    -0.347 C  
HETATM   24  C   UNL     1      -8.690  16.702  66.711  1.00  0.00    -0.256 A  
HETATM   25  C   UNL     1     -11.089  15.942  67.120  1.00  0.00    -0.148 A  
HETATM   26  C   UNL     1     -10.973  15.159  68.281  1.00  0.00    -0.276 A  
HETATM   27  C   UNL     1      -8.604  18.107  66.732  1.00  0.00    -0.272 A  
HETATM   28  C   UNL     1      -7.458  18.746  67.213  1.00  0.00    -0.230 A  
HETATM   29  C   UNL     1     -12.070  14.966  69.121  1.00  0.00    -0.267 A  
HETATM   30  C   UNL     1      -6.396  17.984  67.683  1.00  0.00    -0.173 A  
HETATM   31  C   UNL     1     -13.284  15.562  68.809  1.00  0.00     2.412 A  
HETATM   32  F   UNL     1     -14.343  15.352  69.600  1.00  0.00     1.732 F  
HETATM   33  C   UNL     1     -13.419  16.361  67.680  1.00  0.00     6.259 A  
HETATM   34  F   UNL     1      -5.290  18.594  68.128  1.00  0.00    -0.167 F  
HETATM   35  C   UNL     1      -6.463  16.599  67.693  1.00  0.00    -0.174 A  
HETATM   36  C   UNL     1      -7.606  15.961  67.214  1.00  0.00    -0.236 A  
HETATM   37  C   UNL     1     -12.323  16.557  66.839  1.00  0.00     2.786 A  
ENDBRANCH  21  22
ENDBRANCH  20  21
ENDBRANCH  17  20
ENDBRANCH  13  14
ENDBRANCH  10  13
ENDBRANCH   8   9
TORSDOF 6
ENDMDL
MODEL      299
REMARK 921   NORMALIZED FREE ENERGY PREDICTED BY IDOCK:   50.45 KCAL/MOL
REMARK 922        TOTAL FREE ENERGY PREDICTED BY IDOCK:   66.88 KCAL/MOL
REMARK 923 INTER-LIGAND FREE ENERGY PREDICTED BY IDOCK:   64.60 KCAL/MOL
REMARK 924 INTRA-LIGAND FREE ENERGY PREDICTED BY IDOCK:    2.28 KCAL/MOL
REMARK 927      BINDING AFFINITY PREDICTED BY RF-SCORE:    0.00 PKD
ROOT
HETATM    1  C   UNL     1      -8.963   6.397  71.862  1.00  0.00    -0.138 C  
HETATM    2  C   UNL     1      -9.500   4.997  71.720  1.00  0.00    -0.194 A  
HETATM    3  C   UNL     1      -9.431   4.173  72.861  1.00  0.00    -0.153 A  
HETATM    4  C   UNL     1      -9.802   2.835  72.805  1.00  0.00    -0.193 A  
HETATM    5  C   UNL     1     -10.220   2.291  71.597  1.00  0.00     0.040 A  
HETATM    6  C   UNL     1     -10.301   3.084  70.436  1.00  0.00     1.258 A  
HETATM    7  C   UNL     1     -10.777   2.424  69.169  1.00  0.00     3.760 C  
HETATM    8  C   UNL     1      -9.993   4.463  70.506  1.00  0.00    -0.185 A  
ENDROOT
BRANCH   8   9
HETATM    9  N   UNL     1     -10.165   5.253  69.334  1.00  0.00    -0.244 N  
HETATM   10  C   UNL     1     -11.392   5.453  68.721  1.00  0.00     1.296 C  
HETATM   11  H   UNL     1      -9.343   5.695  68.924  1.00  0.00     0.000 HD 
HETATM   12  O   UNL     1     -12.458   4.977  69.107  1.00  0.00     7.987 OA 
BRANCH  10  13
HETATM   13  C   UNL     1     -11.357   6.204  67.382  1.00  0.00     0.185 C  
BRANCH  13  14
HETATM   14  N   UNL     1     -10.942   7.628  67.461  1.00  0.00    -0.110 NA 
HETATM   15  C   UNL     1      -9.742   7.834  66.604  1.00  0.00    -0.222 C  
HETATM   16  C   UNL     1      -9.996   7.842  65.070  1.00  0.00     2.605 C  
HETATM   17  N   UNL     1     -11.095   8.720  64.619  1.00  0.00     7.562 NA 
HETATM   18  C   UNL     1     -12.281   8.504  65.466  1.00  0.00    13.331 C  
HETATM   19  C   UNL     1     -11.998   8.552  66.984  1.00  0.00     5.263 C  
BRANCH  17  20
HETATM   20  C   UNL     1     -10.710  10.136  64.561  1.00  0.00     1.144 C  
BRANCH  20  21
HETATM   21  C   UNL     1      -9.746  10.519  65.693  1.00  0.00    -0.289 C  
BRANCH  21  22
HETATM   22  C   UNL     1     -10.432  10.772  67.046  1.00  0.00    -0.297 C  
HETATM   23  C   UNL     1      -9.480  11.233  68.181  1.00  0.00    -0.184 C  
HETATM   24  C   UNL     1     -10.153  11.265  69.555  1.00  0.00     0.195 A  
HETATM   25  C   UNL     1      -8.812  12.555  67.812  1.00  0.00    -0.178 A  
HETATM   26  C   UNL     1      -9.572  13.724  67.637  1.00  0.00    -0.219 A  
HETATM   27  C   UNL     1      -9.376  11.031  70.705  1.00  0.00     3.972 A  
HETATM   28  C   UNL     1      -9.965  10.999  71.971  1.00  0.00     9.798 A  
HETATM   29  C   UNL     1      -8.976  14.896  67.172  1.00  0.00    -0.230 A  
HETATM   30  C   UNL     1     -11.332  11.211  72.095  1.00  0.00     4.525 A  
HETATM   31  C   UNL     1      -7.618  14.908  66.888  1.00  0.00     0.176 A  
HETATM   32  F   UNL     1      -7.054  16.025  66.414  1.00  0.00    -0.173 F  
HETATM   33  C   UNL     1      -6.839  13.773  67.075  1.00  0.00     0.712 A  
HETATM   34  F   UNL     1     -11.901  11.165  73.307  1.00  0.00     4.625 F  
HETATM   35  C   UNL     1     -12.118  11.466  70.982  1.00  0.00    -0.303 A  
HETATM   36  C   UNL     1     -11.530  11.498  69.717  1.00  0.00    -0.362 A  
HETATM   37  C   UNL     1      -7.432  12.598  67.542  1.00  0.00    -0.155 A  
ENDBRANCH  21  22
ENDBRANCH  20  21
ENDBRANCH  17  20
ENDBRANCH  13  14
ENDBRANCH  10  13
ENDBRANCH   8   9
TORSDOF 6
ENDMDL
MODEL      300
REMARK 921   NORMALIZED FREE ENERGY PREDICTED BY IDOCK:   53.38 KCAL/MOL
REMARK 922        TOTAL FREE ENERGY PREDICTED BY IDOCK:   70.83 KCAL/MOL
REMARK 923 INTER-LIGAND FREE ENERGY PREDICTED BY IDOCK:   69.95 KCAL/MOL
REMARK 924 INTRA-LIGAND FREE ENERGY PREDICTED BY IDOCK:    0.88 KCAL/MOL
REMARK 927      BINDING AFFINITY PREDICTED BY RF-SCORE:    0.00 PKD
ROOT
HETATM    1  C   UNL     1     -11.809   2.512  65.890  1.00  0.00    10.795 C  
HETATM    2  C   UNL     1     -10.436   3.036  65.558  1.00  0.00     1.251 A  
HETATM    3  C   UNL     1      -9.905   2.672  64.304  1.00  0.00    -0.105 A  
HETATM    4  C   UNL     1      -8.607   3.015  63.947  1.00  0.00    -0.089 A  
HETATM    5  C   UNL     1      -7.807   3.703  64.850  1.00  0.00    -0.085 A  
HETATM    6  C   UNL     1      -8.303   4.082  66.112  1.00  0.00    -0.108 A  
HETATM    7  C   UNL     1      -7.379   4.838  67.030  1.00  0.00    -0.081 C  
HETATM    8  C   UNL     1      -9.647   3.798  66.452  1.00  0.00    -0.161 A  
ENDROOT
BRANCH   8   9
HETATM    9  N   UNL     1     -10.141   4.269  67.702  1.00  0.00    -0.013 N  
HETATM   10  C   UNL     1     -10.280   3.462  68.821  1.00  0.00     1.097 C  
HETATM   11  H   UNL     1     -10.408   5.250  67.777  1.00  0.00     0.000 HD 
HETATM   12  O   UNL     1     -10.001   2.266  68.865  1.00  0.00     0.207 OA 
BRANCH  10  13
HETATM   13  C   UNL     1     -10.974   4.107  70.028  1.00  0.00     2.898 C  
BRANCH  13  14
HETATM   14  N   UNL     1     -11.655   5.399  69.757  1.00  0.00     1.334 NA 
HETATM   15  C   UNL     1     -13.075   5.304  70.196  1.00  0.00     9.979 C  
HETATM   16  C   UNL     1     -13.314   5.334  71.732  1.00  0.00     3.210 C  
HETATM   17  N   UNL     1     -12.636   6.429  72.454  1.00  0.00    -0.020 NA 
HETATM   18  C   UNL     1     -11.230   6.512  72.020  1.00  0.00    -0.273 C  
HETATM   19  C   UNL     1     -11.035   6.529  70.488  1.00  0.00    -0.294 C  
BRANCH  17  20
HETATM   20  C   UNL     1     -13.329   7.717  72.323  1.00  0.00     0.027 C  
BRANCH  20  21
HETATM   21  C   UNL     1     -12.477   8.759  71.583  1.00  0.00    -0.392 C  
BRANCH  21  22
HETATM   22  C   UNL     1     -11.249   9.242  72.372  1.00  0.00     0.398 C  
HETATM   23  C   UNL     1     -10.209  10.033  71.534  1.00  0.00     1.270 C  
HETATM   24  C   UNL     1      -8.909  10.308  72.293  1.00  0.00     6.873 A  
HETATM   25  C   UNL     1     -10.841  11.296  70.955  1.00  0.00     2.270 A  
HETATM   26  C   UNL     1     -11.311  12.319  71.796  1.00  0.00     4.341 A  
HETATM   27  C   UNL     1      -7.703  10.411  71.573  1.00  0.00     3.324 A  
HETATM   28  C   UNL     1      -6.490  10.608  72.237  1.00  0.00     2.489 A  
HETATM   29  C   UNL     1     -12.005  13.409  71.269  1.00  0.00     0.228 A  
HETATM   30  C   UNL     1      -6.476  10.713  73.622  1.00  0.00     3.168 A  
HETATM   31  C   UNL     1     -12.226  13.484  69.902  1.00  0.00    -0.292 A  
HETATM   32  F   UNL     1     -12.918  14.515  69.402  1.00  0.00    -0.084 F  
HETATM   33  C   UNL     1     -11.751  12.498  69.045  1.00  0.00    -0.368 A  
HETATM   34  F   UNL     1      -5.312  10.886  74.261  1.00  0.00     0.031 F  
HETATM   35  C   UNL     1      -7.652  10.637  74.354  1.00  0.00     6.134 A  
HETATM   36  C   UNL     1      -8.864  10.441  73.692  1.00  0.00    11.264 A  
HETATM   37  C   UNL     1     -11.054  11.407  69.568  1.00  0.00    -0.274 A  
ENDBRANCH  21  22
ENDBRANCH  20  21
ENDBRANCH  17  20
ENDBRANCH  13  14
ENDBRANCH  10  13
ENDBRANCH   8   9
TORSDOF 6
ENDMDL
MODEL      301
REMARK 921   NORMALIZED FREE ENERGY PREDICTED BY IDOCK:   54.50 KCAL/MOL
REMARK 922        TOTAL FREE ENERGY PREDICTED BY IDOCK:   72.34 KCAL/MOL
REMARK 923 INTER-LIGAND FREE ENERGY PREDICTED BY IDOCK:   66.63 KCAL/MOL
REMARK 924 INTRA-LIGAND FREE ENERGY PREDICTED BY IDOCK:    5.72 KCAL/MOL
REMARK 927      BINDING AFFINITY PREDICTED BY RF-SCORE:    0.00 PKD
ROOT
HETATM    1  C   UNL     1      -9.193  17.089  73.391  1.00  0.00    15.671 C  
HETATM    2  C   UNL     1      -8.520  18.297  72.796  1.00  0.00    13.581 A  
HETATM    3  C   UNL     1      -9.121  19.546  73.051  1.00  0.00     4.737 A  
HETATM    4  C   UNL     1      -8.639  20.708  72.461  1.00  0.00     3.032 A  
HETATM    5  C   UNL     1      -7.565  20.637  71.582  1.00  0.00     2.207 A  
HETATM    6  C   UNL     1      -6.940  19.406  71.304  1.00  0.00     1.512 A  
HETATM    7  C   UNL     1      -5.773  19.412  70.352  1.00  0.00    -0.267 C  
HETATM    8  C   UNL     1      -7.381  18.231  71.957  1.00  0.00     7.503 A  
ENDROOT
BRANCH   8   9
HETATM    9  N   UNL     1      -6.675  17.019  71.717  1.00  0.00     4.384 N  
HETATM   10  C   UNL     1      -7.124  15.777  72.140  1.00  0.00     5.287 C  
HETATM   11  H   UNL     1      -5.793  17.066  71.207  1.00  0.00     0.000 HD 
HETATM   12  O   UNL     1      -8.164  15.580  72.764  1.00  0.00     8.101 OA 
BRANCH  10  13
HETATM   13  C   UNL     1      -6.153  14.607  71.926  1.00  0.00     0.415 C  
BRANCH  13  14
HETATM   14  N   UNL     1      -6.475  13.712  70.785  1.00  0.00     0.131 NA 
HETATM   15  C   UNL     1      -7.923  13.840  70.459  1.00  0.00     3.044 C  
HETATM   16  C   UNL     1      -8.342  15.152  69.736  1.00  0.00     0.043 C  
HETATM   17  N   UNL     1      -7.526  15.511  68.559  1.00  0.00    -0.114 NA 
HETATM   18  C   UNL     1      -6.096  15.390  68.893  1.00  0.00    -0.098 C  
HETATM   19  C   UNL     1      -5.708  14.054  69.564  1.00  0.00    -0.092 C  
BRANCH  17  20
HETATM   20  C   UNL     1      -7.880  14.740  67.360  1.00  0.00    -0.200 C  
BRANCH  20  21
HETATM   21  C   UNL     1      -8.282  13.297  67.700  1.00  0.00    -0.179 C  
BRANCH  21  22
HETATM   22  C   UNL     1      -7.879  12.264  66.634  1.00  0.00     0.140 C  
HETATM   23  C   UNL     1      -8.988  11.243  66.266  1.00  0.00    -0.204 C  
HETATM   24  C   UNL     1      -8.488  10.107  65.372  1.00  0.00    -0.162 A  
HETATM   25  C   UNL     1     -10.206  11.964  65.693  1.00  0.00    -0.280 A  
HETATM   26  C   UNL     1     -10.119  12.680  64.486  1.00  0.00    -0.271 A  
HETATM   27  C   UNL     1      -9.102   8.843  65.461  1.00  0.00    -0.248 A  
HETATM   28  C   UNL     1      -8.638   7.769  64.699  1.00  0.00     0.155 A  
HETATM   29  C   UNL     1     -11.194  13.444  64.035  1.00  0.00    -0.318 A  
HETATM   30  C   UNL     1      -7.564   7.953  63.837  1.00  0.00    -0.121 A  
HETATM   31  C   UNL     1     -12.363  13.490  64.781  1.00  0.00    -0.392 A  
HETATM   32  F   UNL     1     -13.384  14.248  64.361  1.00  0.00     0.345 F  
HETATM   33  C   UNL     1     -12.484  12.772  65.965  1.00  0.00    -0.076 A  
HETATM   34  F   UNL     1      -7.108   6.920  63.118  1.00  0.00    -0.051 F  
HETATM   35  C   UNL     1      -6.956   9.193  63.714  1.00  0.00    -0.089 A  
HETATM   36  C   UNL     1      -7.419  10.267  64.474  1.00  0.00    -0.088 A  
HETATM   37  C   UNL     1     -11.410  12.005  66.419  1.00  0.00    -0.411 A  
ENDBRANCH  21  22
ENDBRANCH  20  21
ENDBRANCH  17  20
ENDBRANCH  13  14
ENDBRANCH  10  13
ENDBRANCH   8   9
TORSDOF 6
ENDMDL
MODEL      302
REMARK 921   NORMALIZED FREE ENERGY PREDICTED BY IDOCK:   55.81 KCAL/MOL
REMARK 922        TOTAL FREE ENERGY PREDICTED BY IDOCK:   74.11 KCAL/MOL
REMARK 923 INTER-LIGAND FREE ENERGY PREDICTED BY IDOCK:   62.65 KCAL/MOL
REMARK 924 INTRA-LIGAND FREE ENERGY PREDICTED BY IDOCK:   11.46 KCAL/MOL
REMARK 927      BINDING AFFINITY PREDICTED BY RF-SCORE:    0.00 PKD
ROOT
HETATM    1  C   UNL     1     -10.459  13.988  70.761  1.00  0.00     2.069 C  
HETATM    2  C   UNL     1      -9.264  13.136  70.420  1.00  0.00     5.184 A  
HETATM    3  C   UNL     1      -8.339  12.900  71.456  1.00  0.00    13.428 A  
HETATM    4  C   UNL     1      -7.153  12.217  71.218  1.00  0.00     5.042 A  
HETATM    5  C   UNL     1      -6.858  11.784  69.931  1.00  0.00     0.184 A  
HETATM    6  C   UNL     1      -7.758  12.003  68.871  1.00  0.00     0.014 A  
HETATM    7  C   UNL     1      -7.374  11.491  67.508  1.00  0.00    -0.112 C  
HETATM    8  C   UNL     1      -8.999  12.634  69.123  1.00  0.00     0.732 A  
ENDROOT
BRANCH   8   9
HETATM    9  N   UNL     1      -9.921  12.766  68.047  1.00  0.00    -0.219 N  
HETATM   10  C   UNL     1     -10.443  13.982  67.632  1.00  0.00    -0.245 C  
HETATM   11  H   UNL     1     -10.214  11.922  67.555  1.00  0.00     0.000 HD 
HETATM   12  O   UNL     1     -10.179  15.070  68.138  1.00  0.00    -0.218 OA 
BRANCH  10  13
HETATM   13  C   UNL     1     -11.539  13.908  66.560  1.00  0.00    -0.369 C  
BRANCH  13  14
HETATM   14  N   UNL     1     -11.568  12.655  65.763  1.00  0.00    -0.365 NA 
HETATM   15  C   UNL     1     -10.209  12.045  65.764  1.00  0.00    -0.242 C  
HETATM   16  C   UNL     1      -9.772  11.363  67.091  1.00  0.00    -0.182 C  
HETATM   17  N   UNL     1     -10.750  10.416  67.663  1.00  0.00    -0.264 NA 
HETATM   18  C   UNL     1     -12.089  11.029  67.667  1.00  0.00     0.738 C  
HETATM   19  C   UNL     1     -12.509  11.654  66.318  1.00  0.00     2.159 C  
BRANCH  17  20
HETATM   20  C   UNL     1     -10.744   9.110  66.992  1.00  0.00    -0.118 C  
BRANCH  20  21
HETATM   21  C   UNL     1     -10.333   7.974  67.941  1.00  0.00    -0.282 C  
BRANCH  21  22
HETATM   22  C   UNL     1     -10.657   6.566  67.415  1.00  0.00    -0.364 C  
HETATM   23  C   UNL     1     -10.754   6.457  65.870  1.00  0.00     1.156 C  
HETATM   24  C   UNL     1     -11.286   5.103  65.395  1.00  0.00     0.823 A  
HETATM   25  C   UNL     1      -9.423   6.835  65.225  1.00  0.00     0.850 A  
HETATM   26  C   UNL     1      -8.266   6.071  65.455  1.00  0.00    -0.141 A  
HETATM   27  C   UNL     1     -12.012   5.036  64.190  1.00  0.00     3.637 A  
HETATM   28  C   UNL     1     -12.559   3.827  63.753  1.00  0.00     6.546 A  
HETATM   29  C   UNL     1      -7.028   6.495  64.972  1.00  0.00    -0.051 A  
HETATM   30  C   UNL     1     -12.374   2.678  64.511  1.00  0.00     7.720 A  
HETATM   31  C   UNL     1      -6.942   7.677  64.251  1.00  0.00    -0.060 A  
HETATM   32  F   UNL     1      -5.748   8.097  63.813  1.00  0.00    -0.056 F  
HETATM   33  C   UNL     1      -8.074   8.439  63.988  1.00  0.00    -0.142 A  
HETATM   34  F   UNL     1     -12.912   1.522  64.100  1.00  0.00     4.901 F  
HETATM   35  C   UNL     1     -11.645   2.711  65.689  1.00  0.00     7.118 A  
HETATM   36  C   UNL     1     -11.098   3.918  66.127  1.00  0.00     2.349 A  
HETATM   37  C   UNL     1      -9.315   8.018  64.469  1.00  0.00     1.436 A  
ENDBRANCH  21  22
ENDBRANCH  20  21
ENDBRANCH  17  20
ENDBRANCH  13  14
ENDBRANCH  10  13
ENDBRANCH   8   9
TORSDOF 6
ENDMDL
MODEL      303
REMARK 921   NORMALIZED FREE ENERGY PREDICTED BY IDOCK:   57.43 KCAL/MOL
REMARK 922        TOTAL FREE ENERGY PREDICTED BY IDOCK:   76.30 KCAL/MOL
REMARK 923 INTER-LIGAND FREE ENERGY PREDICTED BY IDOCK:    7.63 KCAL/MOL
REMARK 924 INTRA-LIGAND FREE ENERGY PREDICTED BY IDOCK:   68.67 KCAL/MOL
REMARK 927      BINDING AFFINITY PREDICTED BY RF-SCORE:    0.00 PKD
ROOT
HETATM    1  C   UNL     1     -10.590  15.812  64.040  1.00  0.00     1.848 C  
HETATM    2  C   UNL     1     -11.205  15.249  65.294  1.00  0.00    -0.338 A  
HETATM    3  C   UNL     1     -12.392  15.860  65.747  1.00  0.00     1.670 A  
HETATM    4  C   UNL     1     -12.979  15.485  66.949  1.00  0.00     2.948 A  
HETATM    5  C   UNL     1     -12.373  14.513  67.734  1.00  0.00     0.032 A  
HETATM    6  C   UNL     1     -11.186  13.881  67.314  1.00  0.00    -0.329 A  
HETATM    7  C   UNL     1     -10.597  12.827  68.214  1.00  0.00    -0.251 C  
HETATM    8  C   UNL     1     -10.624  14.209  66.058  1.00  0.00    -0.297 A  
ENDROOT
BRANCH   8   9
HETATM    9  N   UNL     1      -9.471  13.493  65.627  1.00  0.00    -0.488 N  
HETATM   10  C   UNL     1      -9.462  12.653  64.523  1.00  0.00     0.421 C  
HETATM   11  H   UNL     1      -8.607  13.603  66.157  1.00  0.00     0.000 HD 
HETATM   12  O   UNL     1     -10.431  12.429  63.802  1.00  0.00    -0.406 OA 
BRANCH  10  13
HETATM   13  C   UNL     1      -8.172  11.849  64.306  1.00  0.00     2.016 C  
BRANCH  13  14
HETATM   14  N   UNL     1      -7.448  11.459  65.543  1.00  0.00     0.472 NA 
HETATM   15  C   UNL     1      -8.298  10.522  66.329  1.00  0.00    -0.152 C  
HETATM   16  C   UNL     1      -8.414   9.077  65.768  1.00  0.00    -0.141 C  
HETATM   17  N   UNL     1      -7.131   8.429  65.426  1.00  0.00    -0.080 NA 
HETATM   18  C   UNL     1      -6.301   9.359  64.640  1.00  0.00    -0.079 C  
HETATM   19  C   UNL     1      -6.169  10.770  65.254  1.00  0.00     0.026 C  
BRANCH  17  20
HETATM   20  C   UNL     1      -6.419   7.913  66.602  1.00  0.00    -0.055 C  
BRANCH  20  21
HETATM   21  C   UNL     1      -6.919   6.520  67.014  1.00  0.00    -0.068 C  
BRANCH  21  22
HETATM   22  C   UNL     1      -8.172   6.541  67.906  1.00  0.00    -0.116 C  
HETATM   23  C   UNL     1      -8.725   7.957  68.217  1.00  0.00    -0.130 C  
HETATM   24  C   UNL     1      -9.831   7.952  69.274  1.00  0.00    -0.177 A  
HETATM   25  C   UNL     1      -9.134   8.663  66.927  1.00  0.00    -0.175 A  
HETATM   26  C   UNL     1     -10.175   8.162  66.127  1.00  0.00     0.261 A  
HETATM   27  C   UNL     1      -9.989   9.077  70.106  1.00  0.00    -0.216 A  
HETATM   28  C   UNL     1     -10.953   9.087  71.117  1.00  0.00    -0.371 A  
HETATM   29  C   UNL     1     -10.456   8.733  64.886  1.00  0.00     3.707 A  
HETATM   30  C   UNL     1     -11.771   7.978  71.295  1.00  0.00    -0.282 A  
HETATM   31  C   UNL     1      -9.705   9.813  64.444  1.00  0.00     0.021 A  
HETATM   32  F   UNL     1      -9.958  10.342  63.240  1.00  0.00    -0.341 F  
HETATM   33  C   UNL     1      -8.687  10.344  65.225  1.00  0.00    -0.192 A  
HETATM   34  F   UNL     1     -12.684   7.980  72.274  1.00  0.00    -0.317 F  
HETATM   35  C   UNL     1     -11.651   6.866  70.475  1.00  0.00    -0.396 A  
HETATM   36  C   UNL     1     -10.689   6.855  69.465  1.00  0.00    -0.276 A  
HETATM   37  C   UNL     1      -8.403   9.776  66.468  1.00  0.00    -0.124 A  
ENDBRANCH  21  22
ENDBRANCH  20  21
ENDBRANCH  17  20
ENDBRANCH  13  14
ENDBRANCH  10  13
ENDBRANCH   8   9
TORSDOF 6
ENDMDL
MODEL      304
REMARK 921   NORMALIZED FREE ENERGY PREDICTED BY IDOCK:   58.36 KCAL/MOL
REMARK 922        TOTAL FREE ENERGY PREDICTED BY IDOCK:   77.57 KCAL/MOL
REMARK 923 INTER-LIGAND FREE ENERGY PREDICTED BY IDOCK:   72.54 KCAL/MOL
REMARK 924 INTRA-LIGAND FREE ENERGY PREDICTED BY IDOCK:    5.02 KCAL/MOL
REMARK 927      BINDING AFFINITY PREDICTED BY RF-SCORE:    0.00 PKD
ROOT
HETATM    1  C   UNL     1      -8.660  16.358  74.203  1.00  0.00    19.454 C  
HETATM    2  C   UNL     1      -7.979  17.562  73.608  1.00  0.00    15.026 A  
HETATM    3  C   UNL     1      -8.488  18.824  73.978  1.00  0.00     7.956 A  
HETATM    4  C   UNL     1      -7.999  19.991  73.404  1.00  0.00     5.365 A  
HETATM    5  C   UNL     1      -7.014  19.914  72.428  1.00  0.00     1.562 A  
HETATM    6  C   UNL     1      -6.482  18.672  72.034  1.00  0.00     2.486 A  
HETATM    7  C   UNL     1      -5.406  18.672  70.980  1.00  0.00    -0.248 C  
HETATM    8  C   UNL     1      -6.926  17.486  72.666  1.00  0.00     8.246 A  
ENDROOT
BRANCH   8   9
HETATM    9  N   UNL     1      -6.309  16.255  72.303  1.00  0.00     3.055 N  
HETATM   10  C   UNL     1      -6.819  15.014  72.651  1.00  0.00     3.022 C  
HETATM   11  H   UNL     1      -5.448  16.289  71.758  1.00  0.00     0.000 HD 
HETATM   12  O   UNL     1      -7.843  14.832  73.306  1.00  0.00     4.973 OA 
BRANCH  10  13
HETATM   13  C   UNL     1      -5.935  13.807  72.305  1.00  0.00     0.511 C  
BRANCH  13  14
HETATM   14  N   UNL     1      -6.277  13.108  71.040  1.00  0.00     0.019 NA 
HETATM   15  C   UNL     1      -7.660  13.485  70.634  1.00  0.00     3.113 C  
HETATM   16  C   UNL     1      -7.833  14.919  70.059  1.00  0.00     0.308 C  
HETATM   17  N   UNL     1      -6.877  15.289  68.996  1.00  0.00    -0.121 NA 
HETATM   18  C   UNL     1      -5.511  14.923  69.408  1.00  0.00    -0.091 C  
HETATM   19  C   UNL     1      -5.369  13.475  69.928  1.00  0.00    -0.090 C  
BRANCH  17  20
HETATM   20  C   UNL     1      -7.228  14.724  67.687  1.00  0.00    -0.188 C  
BRANCH  20  21
HETATM   21  C   UNL     1      -8.258  13.590  67.805  1.00  0.00    -0.176 C  
BRANCH  21  22
HETATM   22  C   UNL     1      -8.077  12.466  66.772  1.00  0.00     0.009 C  
HETATM   23  C   UNL     1      -7.832  11.059  67.379  1.00  0.00    -0.118 C  
HETATM   24  C   UNL     1      -7.443  10.012  66.334  1.00  0.00    -0.104 A  
HETATM   25  C   UNL     1      -9.021  10.635  68.238  1.00  0.00    -0.143 A  
HETATM   26  C   UNL     1     -10.290  10.439  67.667  1.00  0.00    -0.260 A  
HETATM   27  C   UNL     1      -6.609   8.942  66.711  1.00  0.00    -0.064 A  
HETATM   28  C   UNL     1      -6.190   7.997  65.772  1.00  0.00    -0.041 A  
HETATM   29  C   UNL     1     -11.399  10.181  68.473  1.00  0.00    -0.172 A  
HETATM   30  C   UNL     1      -6.612   8.110  64.453  1.00  0.00    -0.065 A  
HETATM   31  C   UNL     1     -11.243  10.109  69.850  1.00  0.00    -0.287 A  
HETATM   32  F   UNL     1     -12.314   9.890  70.624  1.00  0.00    -0.322 F  
HETATM   33  C   UNL     1      -9.995  10.274  70.438  1.00  0.00     0.176 A  
HETATM   34  F   UNL     1      -6.198   7.213  63.548  1.00  0.00    -0.041 F  
HETATM   35  C   UNL     1      -7.452   9.140  64.059  1.00  0.00    -0.110 A  
HETATM   36  C   UNL     1      -7.870  10.084  64.996  1.00  0.00    -0.137 A  
HETATM   37  C   UNL     1      -8.883  10.531  69.635  1.00  0.00     0.042 A  
ENDBRANCH  21  22
ENDBRANCH  20  21
ENDBRANCH  17  20
ENDBRANCH  13  14
ENDBRANCH  10  13
ENDBRANCH   8   9
TORSDOF 6
ENDMDL
MODEL      305
REMARK 921   NORMALIZED FREE ENERGY PREDICTED BY IDOCK:   58.64 KCAL/MOL
REMARK 922        TOTAL FREE ENERGY PREDICTED BY IDOCK:   77.94 KCAL/MOL
REMARK 923 INTER-LIGAND FREE ENERGY PREDICTED BY IDOCK:   70.69 KCAL/MOL
REMARK 924 INTRA-LIGAND FREE ENERGY PREDICTED BY IDOCK:    7.26 KCAL/MOL
REMARK 927      BINDING AFFINITY PREDICTED BY RF-SCORE:    0.00 PKD
ROOT
HETATM    1  C   UNL     1      -9.244  11.430  72.738  1.00  0.00    20.010 C  
HETATM    2  C   UNL     1      -9.302  12.878  72.331  1.00  0.00    20.135 A  
HETATM    3  C   UNL     1     -10.125  13.721  73.105  1.00  0.00     9.964 A  
HETATM    4  C   UNL     1     -10.329  15.049  72.749  1.00  0.00     3.339 A  
HETATM    5  C   UNL     1      -9.738  15.548  71.595  1.00  0.00     3.093 A  
HETATM    6  C   UNL     1      -8.911  14.735  70.797  1.00  0.00     2.340 A  
HETATM    7  C   UNL     1      -8.295  15.352  69.569  1.00  0.00    -0.204 C  
HETATM    8  C   UNL     1      -8.642  13.403  71.194  1.00  0.00     9.296 A  
ENDROOT
BRANCH   8   9
HETATM    9  N   UNL     1      -7.736  12.635  70.410  1.00  0.00     2.542 N  
HETATM   10  C   UNL     1      -7.923  12.376  69.061  1.00  0.00     0.270 C  
HETATM   11  H   UNL     1      -6.905  12.255  70.864  1.00  0.00     0.000 HD 
HETATM   12  O   UNL     1      -8.878  12.769  68.395  1.00  0.00    -0.179 OA 
BRANCH  10  13
HETATM   13  C   UNL     1      -6.923  11.401  68.422  1.00  0.00    -0.075 C  
BRANCH  13  14
HETATM   14  N   UNL     1      -6.266  10.456  69.361  1.00  0.00    -0.046 NA 
HETATM   15  C   UNL     1      -7.298   9.554  69.946  1.00  0.00    -0.103 C  
HETATM   16  C   UNL     1      -7.854   8.454  68.998  1.00  0.00    -0.102 C  
HETATM   17  N   UNL     1      -6.832   7.658  68.289  1.00  0.00    -0.065 NA 
HETATM   18  C   UNL     1      -5.821   8.557  67.706  1.00  0.00    -0.043 C  
HETATM   19  C   UNL     1      -5.256   9.605  68.690  1.00  0.00    -0.033 C  
BRANCH  17  20
HETATM   20  C   UNL     1      -6.226   6.621  69.134  1.00  0.00    -0.030 C  
BRANCH  20  21
HETATM   21  C   UNL     1      -6.803   6.626  70.557  1.00  0.00    -0.062 C  
BRANCH  21  22
HETATM   22  C   UNL     1      -8.009   7.562  70.745  1.00  0.00    -0.103 C  
HETATM   23  C   UNL     1      -9.390   6.900  70.493  1.00  0.00    -0.159 C  
HETATM   24  C   UNL     1     -10.544   7.905  70.476  1.00  0.00    -0.223 A  
HETATM   25  C   UNL     1      -9.614   5.749  71.470  1.00  0.00    -0.181 A  
HETATM   26  C   UNL     1      -9.700   5.981  72.853  1.00  0.00    -0.162 A  
HETATM   27  C   UNL     1     -11.674   7.637  69.680  1.00  0.00     0.473 A  
HETATM   28  C   UNL     1     -12.723   8.556  69.598  1.00  0.00     2.690 A  
HETATM   29  C   UNL     1      -9.773   4.915  73.750  1.00  0.00    -0.149 A  
HETATM   30  C   UNL     1     -12.653   9.742  70.317  1.00  0.00     0.183 A  
HETATM   31  C   UNL     1      -9.769   3.614  73.268  1.00  0.00    -0.114 A  
HETATM   32  F   UNL     1      -9.809   2.592  74.132  1.00  0.00    -0.107 F  
HETATM   33  C   UNL     1      -9.709   3.357  71.904  1.00  0.00    -0.235 A  
HETATM   34  F   UNL     1     -13.651  10.631  70.227  1.00  0.00    -0.163 F  
HETATM   35  C   UNL     1     -11.561  10.021  71.126  1.00  0.00    -0.460 A  
HETATM   36  C   UNL     1     -10.514   9.104  71.209  1.00  0.00    -0.398 A  
HETATM   37  C   UNL     1      -9.638   4.421  71.004  1.00  0.00    -0.249 A  
ENDBRANCH  21  22
ENDBRANCH  20  21
ENDBRANCH  17  20
ENDBRANCH  13  14
ENDBRANCH  10  13
ENDBRANCH   8   9
TORSDOF 6
ENDMDL
MODEL      306
REMARK 921   NORMALIZED FREE ENERGY PREDICTED BY IDOCK:   67.41 KCAL/MOL
REMARK 922        TOTAL FREE ENERGY PREDICTED BY IDOCK:   89.78 KCAL/MOL
REMARK 923 INTER-LIGAND FREE ENERGY PREDICTED BY IDOCK:   81.60 KCAL/MOL
REMARK 924 INTRA-LIGAND FREE ENERGY PREDICTED BY IDOCK:    8.18 KCAL/MOL
REMARK 927      BINDING AFFINITY PREDICTED BY RF-SCORE:    0.00 PKD
ROOT
HETATM    1  C   UNL     1     -13.327   8.671  64.320  1.00  0.00    22.103 C  
HETATM    2  C   UNL     1     -12.814   9.298  65.589  1.00  0.00    17.057 A  
HETATM    3  C   UNL     1     -13.780   9.821  66.473  1.00  0.00    21.802 A  
HETATM    4  C   UNL     1     -13.406  10.513  67.618  1.00  0.00    10.472 A  
HETATM    5  C   UNL     1     -12.058  10.719  67.885  1.00  0.00     0.731 A  
HETATM    6  C   UNL     1     -11.065  10.212  67.025  1.00  0.00    -0.061 A  
HETATM    7  C   UNL     1      -9.626  10.464  67.389  1.00  0.00    -0.178 C  
HETATM    8  C   UNL     1     -11.440   9.445  65.896  1.00  0.00     3.647 A  
ENDROOT
BRANCH   8   9
HETATM    9  N   UNL     1     -10.410   8.877  65.093  1.00  0.00     0.972 N  
HETATM   10  C   UNL     1      -9.294   8.244  65.619  1.00  0.00     0.052 C  
HETATM   11  H   UNL     1     -10.498   8.939  64.079  1.00  0.00     0.000 HD 
HETATM   12  O   UNL     1      -9.064   8.105  66.818  1.00  0.00    -0.142 OA 
BRANCH  10  13
HETATM   13  C   UNL     1      -8.218   7.833  64.603  1.00  0.00    -0.076 C  
BRANCH  13  14
HETATM   14  N   UNL     1      -7.057   8.753  64.498  1.00  0.00    -0.084 NA 
HETATM   15  C   UNL     1      -7.526  10.076  63.999  1.00  0.00    -0.135 C  
HETATM   16  C   UNL     1      -8.309  10.948  65.021  1.00  0.00     0.034 C  
HETATM   17  N   UNL     1      -7.661  11.106  66.339  1.00  0.00    -0.147 NA 
HETATM   18  C   UNL     1      -7.208   9.793  66.829  1.00  0.00    -0.090 C  
HETATM   19  C   UNL     1      -6.392   8.976  65.803  1.00  0.00    -0.060 C  
BRANCH  17  20
HETATM   20  C   UNL     1      -6.576  12.096  66.329  1.00  0.00     1.040 C  
BRANCH  20  21
HETATM   21  C   UNL     1      -6.583  12.974  67.588  1.00  0.00    -0.160 C  
BRANCH  21  22
HETATM   22  C   UNL     1      -6.242  14.451  67.328  1.00  0.00     0.418 C  
HETATM   23  C   UNL     1      -7.084  15.466  68.147  1.00  0.00    -0.128 C  
HETATM   24  C   UNL     1      -6.871  16.916  67.708  1.00  0.00    -0.157 A  
HETATM   25  C   UNL     1      -6.864  15.256  69.643  1.00  0.00    -0.187 A  
HETATM   26  C   UNL     1      -5.599  15.459  70.223  1.00  0.00    -0.142 A  
HETATM   27  C   UNL     1      -7.926  17.837  67.849  1.00  0.00    -0.233 A  
HETATM   28  C   UNL     1      -7.787  19.156  67.410  1.00  0.00    -0.267 A  
HETATM   29  C   UNL     1      -5.372  15.139  71.561  1.00  0.00    -0.009 A  
HETATM   30  C   UNL     1      -6.589  19.564  66.837  1.00  0.00    -0.193 A  
HETATM   31  C   UNL     1      -6.408  14.624  72.328  1.00  0.00     1.008 A  
HETATM   32  F   UNL     1      -6.179  14.290  73.604  1.00  0.00    -0.158 F  
HETATM   33  C   UNL     1      -7.673  14.436  71.786  1.00  0.00     4.493 A  
HETATM   34  F   UNL     1      -6.459  20.823  66.401  1.00  0.00    -0.240 F  
HETATM   35  C   UNL     1      -5.526  18.683  66.707  1.00  0.00    -0.158 A  
HETATM   36  C   UNL     1      -5.664  17.366  67.145  1.00  0.00    -0.169 A  
HETATM   37  C   UNL     1      -7.905  14.756  70.447  1.00  0.00     0.947 A  
ENDBRANCH  21  22
ENDBRANCH  20  21
ENDBRANCH  17  20
ENDBRANCH  13  14
ENDBRANCH  10  13
ENDBRANCH   8   9
TORSDOF 6
ENDMDL
MODEL      307
REMARK 921   NORMALIZED FREE ENERGY PREDICTED BY IDOCK:   69.38 KCAL/MOL
REMARK 922        TOTAL FREE ENERGY PREDICTED BY IDOCK:   92.45 KCAL/MOL
REMARK 923 INTER-LIGAND FREE ENERGY PREDICTED BY IDOCK:   44.31 KCAL/MOL
REMARK 924 INTRA-LIGAND FREE ENERGY PREDICTED BY IDOCK:   48.14 KCAL/MOL
REMARK 927      BINDING AFFINITY PREDICTED BY RF-SCORE:    0.00 PKD
ROOT
HETATM    1  C   UNL     1      -8.963   6.397  71.862  1.00  0.00    -0.138 C  
HETATM    2  C   UNL     1      -9.500   4.997  71.720  1.00  0.00    -0.194 A  
HETATM    3  C   UNL     1      -9.431   4.173  72.861  1.00  0.00    -0.153 A  
HETATM    4  C   UNL     1      -9.802   2.835  72.805  1.00  0.00    -0.193 A  
HETATM    5  C   UNL     1     -10.220   2.291  71.597  1.00  0.00     0.040 A  
HETATM    6  C   UNL     1     -10.301   3.084  70.436  1.00  0.00     1.258 A  
HETATM    7  C   UNL     1     -10.777   2.424  69.169  1.00  0.00     3.760 C  
HETATM    8  C   UNL     1      -9.993   4.463  70.506  1.00  0.00    -0.185 A  
ENDROOT
BRANCH   8   9
HETATM    9  N   UNL     1     -10.165   5.253  69.334  1.00  0.00    -0.244 N  
HETATM   10  C   UNL     1     -11.392   5.453  68.721  1.00  0.00     1.296 C  
HETATM   11  H   UNL     1      -9.343   5.695  68.924  1.00  0.00     0.000 HD 
HETATM   12  O   UNL     1     -12.458   4.977  69.107  1.00  0.00     7.987 OA 
BRANCH  10  13
HETATM   13  C   UNL     1     -11.357   6.204  67.382  1.00  0.00     0.185 C  
BRANCH  13  14
HETATM   14  N   UNL     1     -10.942   7.628  67.461  1.00  0.00    -0.110 NA 
HETATM   15  C   UNL     1      -9.742   7.834  66.604  1.00  0.00    -0.222 C  
HETATM   16  C   UNL     1      -9.996   7.842  65.070  1.00  0.00     2.605 C  
HETATM   17  N   UNL     1     -11.095   8.720  64.619  1.00  0.00     7.562 NA 
HETATM   18  C   UNL     1     -12.281   8.504  65.466  1.00  0.00    13.331 C  
HETATM   19  C   UNL     1     -11.998   8.552  66.984  1.00  0.00     5.263 C  
BRANCH  17  20
HETATM   20  C   UNL     1     -10.710  10.136  64.561  1.00  0.00     1.144 C  
BRANCH  20  21
HETATM   21  C   UNL     1      -9.746  10.519  65.693  1.00  0.00    -0.289 C  
BRANCH  21  22
HETATM   22  C   UNL     1     -10.432  10.772  67.046  1.00  0.00    -0.297 C  
HETATM   23  C   UNL     1     -10.900   9.490  67.786  1.00  0.00    -0.258 C  
HETATM   24  C   UNL     1     -11.765   9.786  69.013  1.00  0.00     0.312 A  
HETATM   25  C   UNL     1      -9.707   8.590  68.097  1.00  0.00    -0.175 A  
HETATM   26  C   UNL     1      -8.687   9.017  68.965  1.00  0.00    -0.138 A  
HETATM   27  C   UNL     1     -12.748   8.855  69.399  1.00  0.00     3.118 A  
HETATM   28  C   UNL     1     -13.591   9.116  70.482  1.00  0.00     0.639 A  
HETATM   29  C   UNL     1      -7.538   8.248  69.143  1.00  0.00    -0.088 A  
HETATM   30  C   UNL     1     -13.450  10.303  71.190  1.00  0.00    -0.148 A  
HETATM   31  C   UNL     1      -7.406   7.045  68.462  1.00  0.00    -0.100 A  
HETATM   32  F   UNL     1      -6.289   6.322  68.612  1.00  0.00    -0.033 F  
HETATM   33  C   UNL     1      -8.411   6.588  67.618  1.00  0.00    -0.121 A  
HETATM   34  F   UNL     1     -14.268  10.561  72.219  1.00  0.00    -0.029 F  
HETATM   35  C   UNL     1     -12.475  11.226  70.845  1.00  0.00    -0.493 A  
HETATM   36  C   UNL     1     -11.632  10.967  69.764  1.00  0.00    -0.399 A  
HETATM   37  C   UNL     1      -9.563   7.355  67.439  1.00  0.00    -0.184 A  
ENDBRANCH  21  22
ENDBRANCH  20  21
ENDBRANCH  17  20
ENDBRANCH  13  14
ENDBRANCH  10  13
ENDBRANCH   8   9
TORSDOF 6
ENDMDL
MODEL      308
REMARK 921   NORMALIZED FREE ENERGY PREDICTED BY IDOCK:   84.49 KCAL/MOL
REMARK 922        TOTAL FREE ENERGY PREDICTED BY IDOCK:  112.86 KCAL/MOL
REMARK 923 INTER-LIGAND FREE ENERGY PREDICTED BY IDOCK:  109.48 KCAL/MOL
REMARK 924 INTRA-LIGAND FREE ENERGY PREDICTED BY IDOCK:    3.38 KCAL/MOL
REMARK 927      BINDING AFFINITY PREDICTED BY RF-SCORE:    0.00 PKD
ROOT
HETATM    1  C   UNL     1     -13.823   5.506  66.193  1.00  0.00    15.488 C  
HETATM    2  C   UNL     1     -13.185   4.209  65.770  1.00  0.00    14.246 A  
HETATM    3  C   UNL     1     -14.012   3.067  65.769  1.00  0.00    23.993 A  
HETATM    4  C   UNL     1     -13.495   1.806  65.498  1.00  0.00    22.068 A  
HETATM    5  C   UNL     1     -12.135   1.662  65.252  1.00  0.00     9.244 A  
HETATM    6  C   UNL     1     -11.279   2.780  65.245  1.00  0.00     3.340 A  
HETATM    7  C   UNL     1      -9.820   2.544  64.956  1.00  0.00     0.223 C  
HETATM    8  C   UNL     1     -11.813   4.074  65.450  1.00  0.00     3.518 A  
ENDROOT
BRANCH   8   9
HETATM    9  N   UNL     1     -10.935   5.190  65.354  1.00  0.00    -0.542 N  
HETATM   10  C   UNL     1      -9.774   5.186  64.597  1.00  0.00     0.461 C  
HETATM   11  H   UNL     1     -11.172   6.037  65.870  1.00  0.00     0.000 HD 
HETATM   12  O   UNL     1      -9.371   4.233  63.933  1.00  0.00    -0.151 OA 
BRANCH  10  13
HETATM   13  C   UNL     1      -8.877   6.423  64.741  1.00  0.00     0.378 C  
BRANCH  13  14
HETATM   14  N   UNL     1      -9.441   7.529  65.556  1.00  0.00     0.417 NA 
HETATM   15  C   UNL     1      -8.918   7.424  66.947  1.00  0.00    -0.135 C  
HETATM   16  C   UNL     1      -7.434   7.841  67.147  1.00  0.00    -0.096 C  
HETATM   17  N   UNL     1      -7.062   9.146  66.565  1.00  0.00    -0.081 NA 
HETATM   18  C   UNL     1      -7.574   9.237  65.187  1.00  0.00    -0.106 C  
HETATM   19  C   UNL     1      -9.066   8.864  65.035  1.00  0.00    -0.050 C  
BRANCH  17  20
HETATM   20  C   UNL     1      -7.489  10.284  67.389  1.00  0.00    -0.094 C  
BRANCH  20  21
HETATM   21  C   UNL     1      -8.224  11.350  66.564  1.00  0.00    -0.152 C  
BRANCH  21  22
HETATM   22  C   UNL     1      -8.395  12.697  67.286  1.00  0.00    -0.189 C  
HETATM   23  C   UNL     1      -9.360  13.691  66.586  1.00  0.00    -0.265 C  
HETATM   24  C   UNL     1      -9.340  15.089  67.209  1.00  0.00    -0.209 A  
HETATM   25  C   UNL     1     -10.763  13.097  66.496  1.00  0.00    -0.288 A  
HETATM   26  C   UNL     1     -11.503  12.812  67.657  1.00  0.00    -0.387 A  
HETATM   27  C   UNL     1      -9.607  16.206  66.396  1.00  0.00    -0.312 A  
HETATM   28  C   UNL     1      -9.545  17.500  66.917  1.00  0.00    -0.279 A  
HETATM   29  C   UNL     1     -12.727  12.149  67.575  1.00  0.00     2.262 A  
HETATM   30  C   UNL     1      -9.225  17.684  68.257  1.00  0.00    -0.283 A  
HETATM   31  C   UNL     1     -13.222  11.777  66.333  1.00  0.00     6.180 A  
HETATM   32  F   UNL     1     -14.383  11.114  66.258  1.00  0.00    12.111 F  
HETATM   33  C   UNL     1     -12.523  12.069  65.168  1.00  0.00     0.194 A  
HETATM   34  F   UNL     1      -9.150  18.926  68.754  1.00  0.00    -0.352 F  
HETATM   35  C   UNL     1      -8.979  16.601  69.085  1.00  0.00    -0.145 A  
HETATM   36  C   UNL     1      -9.041  15.308  68.566  1.00  0.00    -0.192 A  
HETATM   37  C   UNL     1     -11.298  12.733  65.247  1.00  0.00    -0.338 A  
ENDBRANCH  21  22
ENDBRANCH  20  21
ENDBRANCH  17  20
ENDBRANCH  13  14
ENDBRANCH  10  13
ENDBRANCH   8   9
TORSDOF 6
ENDMDL
MODEL      309
REMARK 921   NORMALIZED FREE ENERGY PREDICTED BY IDOCK:   85.60 KCAL/MOL
REMARK 922        TOTAL FREE ENERGY PREDICTED BY IDOCK:  114.35 KCAL/MOL
REMARK 923 INTER-LIGAND FREE ENERGY PREDICTED BY IDOCK:  101.75 KCAL/MOL
REMARK 924 INTRA-LIGAND FREE ENERGY PREDICTED BY IDOCK:   12.60 KCAL/MOL
REMARK 927      BINDING AFFINITY PREDICTED BY RF-SCORE:    0.00 PKD
ROOT
HETATM    1  C   UNL     1     -11.238   7.992  63.972  1.00  0.00    15.873 C  
HETATM    2  C   UNL     1      -9.778   7.960  64.341  1.00  0.00     3.030 A  
HETATM    3  C   UNL     1      -8.936   7.176  63.528  1.00  0.00     1.289 A  
HETATM    4  C   UNL     1      -7.595   6.996  63.845  1.00  0.00    -0.109 A  
HETATM    5  C   UNL     1      -7.080   7.574  64.998  1.00  0.00    -0.060 A  
HETATM    6  C   UNL     1      -7.892   8.363  65.835  1.00  0.00    -0.095 A  
HETATM    7  C   UNL     1      -7.258   8.968  67.060  1.00  0.00    -0.086 C  
HETATM    8  C   UNL     1      -9.239   8.608  65.478  1.00  0.00    -0.091 A  
ENDROOT
BRANCH   8   9
HETATM    9  N   UNL     1     -10.009   9.478  66.302  1.00  0.00    -0.268 N  
HETATM   10  C   UNL     1     -10.276   9.226  67.639  1.00  0.00    -0.230 C  
HETATM   11  H   UNL     1     -10.384  10.331  65.887  1.00  0.00     0.000 HD 
HETATM   12  O   UNL     1      -9.889   8.238  68.260  1.00  0.00    -0.161 OA 
BRANCH  10  13
HETATM   13  C   UNL     1     -11.250  10.197  68.321  1.00  0.00    -0.183 C  
BRANCH  13  14
HETATM   14  N   UNL     1     -11.527   9.921  69.754  1.00  0.00    -0.189 NA 
HETATM   15  C   UNL     1     -12.974   9.610  69.919  1.00  0.00     1.078 C  
HETATM   16  C   UNL     1     -13.431   8.213  69.412  1.00  0.00     6.429 C  
HETATM   17  N   UNL     1     -12.614   7.076  69.881  1.00  0.00     0.656 NA 
HETATM   18  C   UNL     1     -11.185   7.387  69.705  1.00  0.00    -0.091 C  
HETATM   19  C   UNL     1     -10.758   8.762  70.265  1.00  0.00    -0.227 C  
BRANCH  17  20
HETATM   20  C   UNL     1     -12.926   6.675  71.259  1.00  0.00     0.000 C  
BRANCH  20  21
HETATM   21  C   UNL     1     -11.739   6.899  72.208  1.00  0.00    -0.296 C  
BRANCH  21  22
HETATM   22  C   UNL     1     -11.007   8.234  71.995  1.00  0.00    -0.374 C  
HETATM   23  C   UNL     1      -9.726   8.416  72.852  1.00  0.00    -0.253 C  
HETATM   24  C   UNL     1      -9.148   9.830  72.778  1.00  0.00     4.654 A  
HETATM   25  C   UNL     1      -8.703   7.334  72.515  1.00  0.00    -0.143 A  
HETATM   26  C   UNL     1      -8.133   7.252  71.233  1.00  0.00    -0.102 A  
HETATM   27  C   UNL     1      -8.449  10.345  73.887  1.00  0.00     9.721 A  
HETATM   28  C   UNL     1      -7.954  11.651  73.876  1.00  0.00    16.083 A  
HETATM   29  C   UNL     1      -7.301   6.186  70.892  1.00  0.00    -0.080 A  
HETATM   30  C   UNL     1      -8.145  12.446  72.753  1.00  0.00    19.476 A  
HETATM   31  C   UNL     1      -7.029   5.202  71.832  1.00  0.00    -0.065 A  
HETATM   32  F   UNL     1      -6.254   4.164  71.493  1.00  0.00    -0.015 F  
HETATM   33  C   UNL     1      -7.559   5.271  73.114  1.00  0.00    -0.096 A  
HETATM   34  F   UNL     1      -7.685  13.704  72.747  1.00  0.00     4.860 F  
HETATM   35  C   UNL     1      -8.810  11.957  71.639  1.00  0.00    15.413 A  
HETATM   36  C   UNL     1      -9.305  10.653  71.649  1.00  0.00     6.525 A  
HETATM   37  C   UNL     1      -8.391   6.338  73.460  1.00  0.00    -0.121 A  
ENDBRANCH  21  22
ENDBRANCH  20  21
ENDBRANCH  17  20
ENDBRANCH  13  14
ENDBRANCH  10  13
ENDBRANCH   8   9
TORSDOF 6
ENDMDL
