MODEL        1
REMARK 921   NORMALIZED FREE ENERGY PREDICTED BY IDOCK:   -9.60 KCAL/MOL
REMARK 922        TOTAL FREE ENERGY PREDICTED BY IDOCK:  -13.59 KCAL/MOL
REMARK 923 INTER-LIGAND FREE ENERGY PREDICTED BY IDOCK:  -12.96 KCAL/MOL
REMARK 924 INTRA-LIGAND FREE ENERGY PREDICTED BY IDOCK:   -0.62 KCAL/MOL
REMARK 927      BINDING AFFINITY PREDICTED BY RF-SCORE:    0.00 PKD
ROOT
HETATM    1  C   UNL     1      -6.520  19.809  69.537  1.00  0.00    -0.348 C  
HETATM    2  S   UNL     1      -6.366  19.975  67.775  1.00  0.00    -0.226 S  
HETATM    3  O   UNL     1      -6.177  21.376  67.465  1.00  0.00    -0.422 OA 
HETATM    4  O   UNL     1      -5.423  18.973  67.314  1.00  0.00    -0.158 OA 
ENDROOT
BRANCH   2   5
HETATM    5  C   UNL     1      -7.971  19.547  67.143  1.00  0.00    -0.268 A  
HETATM    6  C   UNL     1      -8.189  18.221  66.760  1.00  0.00    -0.269 A  
HETATM    7  C   UNL     1      -9.465  17.777  66.406  1.00  0.00    -0.277 A  
HETATM    8  C   UNL     1     -10.504  18.724  66.374  1.00  0.00    -0.485 A  
HETATM    9  C   UNL     1     -10.278  20.060  66.731  1.00  0.00    -0.592 A  
HETATM   10  C   UNL     1      -9.010  20.474  67.135  1.00  0.00    -0.417 A  
BRANCH   7  11
HETATM   11  C   UNL     1      -9.791  16.330  66.083  1.00  0.00    -0.358 C  
BRANCH  11  12
HETATM   12  CA  UNL     1     -11.264  15.866  66.038  1.00  0.00     0.090 C  
HETATM   13  C   UNL     1     -11.719  15.648  64.581  1.00  0.00    -0.190 C  
HETATM   14  OXT UNL     1     -11.289  16.253  63.612  1.00  0.00    -0.653 OA 
HETATM   15  O   UNL     1     -12.707  14.731  64.460  1.00  0.00    -0.569 OA 
BRANCH  12  16
HETATM   16  N   UNL     1     -11.562  14.707  66.930  1.00  0.00    -0.369 N  
HETATM   17  C   UNL     1     -11.330  14.711  68.293  1.00  0.00    -0.297 C  
HETATM   18  H   UNL     1     -11.960  13.866  66.512  1.00  0.00     0.000 HD 
HETATM   19  O   UNL     1     -10.844  15.695  68.840  1.00  0.00    -0.228 OA 
BRANCH  17  20
HETATM   20  C   UNL     1     -11.780  13.536  69.121  1.00  0.00    -0.374 A  
HETATM   21  C   UNL     1     -11.211  12.265  68.883  1.00  0.00    -0.273 A  
HETATM   22 CL   UNL     1     -10.446  11.894  67.364  1.00  0.00    -0.233 Cl 
HETATM   23  C   UNL     1     -11.325  11.220  69.835  1.00  0.00    -0.329 A  
HETATM   24  C   UNL     1     -12.213  11.350  70.922  1.00  0.00    -0.447 A  
HETATM   25  C   UNL     1     -12.846  12.585  71.114  1.00  0.00    -0.303 A  
HETATM   26  C   UNL     1     -12.463  10.198  71.899  1.00  0.00    -0.282 C  
HETATM   27  C   UNL     1     -12.593  13.678  70.260  1.00  0.00    -0.186 A  
HETATM   28  N   UNL     1     -11.643   9.007  71.615  1.00  0.00    -0.331 N  
HETATM   29 CL   UNL     1     -13.282  15.189  70.751  1.00  0.00    -0.449 Cl 
HETATM   30  C   UNL     1     -10.310   9.336  71.135  1.00  0.00    -0.322 C  
HETATM   31  C   UNL     1     -12.295   7.800  71.333  1.00  0.00    -0.323 C  
HETATM   32  C   UNL     1     -10.455   9.975  69.753  1.00  0.00    -0.291 C  
HETATM   33  O   UNL     1     -13.524   7.707  71.354  1.00  0.00    -0.341 OA 
BRANCH  31  34
HETATM   34  C   UNL     1     -11.543   6.553  70.972  1.00  0.00    -0.405 A  
HETATM   35  C   UNL     1     -11.068   5.761  72.037  1.00  0.00    -0.318 A  
HETATM   36  C   UNL     1     -10.248   4.639  71.822  1.00  0.00    -0.242 A  
HETATM   37  C   UNL     1      -9.896   4.310  70.504  1.00  0.00    -0.269 A  
HETATM   38  C   UNL     1      -9.093   3.313  69.889  1.00  0.00    -0.199 A  
HETATM   39  C   UNL     1      -9.149   3.554  68.536  1.00  0.00    -0.147 A  
HETATM   40  O   UNL     1      -9.929   4.636  68.273  1.00  0.00    -0.136 OA 
HETATM   41  C   UNL     1     -10.379   5.107  69.471  1.00  0.00    -0.222 A  
HETATM   42  C   UNL     1     -11.187   6.235  69.652  1.00  0.00    -0.506 A  
ENDBRANCH  31  34
ENDBRANCH  17  20
ENDBRANCH  12  16
ENDBRANCH  11  12
ENDBRANCH   7  11
ENDBRANCH   2   5
TORSDOF 6
ENDMDL
MODEL        2
REMARK 921   NORMALIZED FREE ENERGY PREDICTED BY IDOCK:   -8.21 KCAL/MOL
REMARK 922        TOTAL FREE ENERGY PREDICTED BY IDOCK:  -11.71 KCAL/MOL
REMARK 923 INTER-LIGAND FREE ENERGY PREDICTED BY IDOCK:  -10.25 KCAL/MOL
REMARK 924 INTRA-LIGAND FREE ENERGY PREDICTED BY IDOCK:   -1.46 KCAL/MOL
REMARK 927      BINDING AFFINITY PREDICTED BY RF-SCORE:    0.00 PKD
ROOT
HETATM    1  C   UNL     1     -10.002   2.078  72.014  1.00  0.00    -0.151 C  
HETATM    2  S   UNL     1      -9.654   3.538  72.963  1.00  0.00    -0.124 S  
HETATM    3  O   UNL     1     -10.324   3.420  74.242  1.00  0.00    -0.160 OA 
HETATM    4  O   UNL     1      -8.228   3.791  72.887  1.00  0.00    -0.087 OA 
ENDROOT
BRANCH   2   5
HETATM    5  C   UNL     1     -10.489   4.845  72.095  1.00  0.00    -0.192 A  
HETATM    6  C   UNL     1     -10.177   5.035  70.746  1.00  0.00    -0.299 A  
HETATM    7  C   UNL     1     -10.905   5.933  69.962  1.00  0.00    -0.421 A  
HETATM    8  C   UNL     1     -11.907   6.693  70.591  1.00  0.00    -0.443 A  
HETATM    9  C   UNL     1     -12.199   6.522  71.950  1.00  0.00    -0.373 A  
HETATM   10  C   UNL     1     -11.501   5.581  72.706  1.00  0.00    -0.339 A  
BRANCH   7  11
HETATM   11  C   UNL     1     -10.689   6.110  68.469  1.00  0.00    -0.365 C  
BRANCH  11  12
HETATM   12  CA  UNL     1      -9.746   7.219  67.955  1.00  0.00    -0.140 C  
HETATM   13  C   UNL     1      -9.376   6.974  66.477  1.00  0.00    -0.159 C  
HETATM   14  OXT UNL     1      -9.302   5.879  65.944  1.00  0.00    -0.140 OA 
HETATM   15  O   UNL     1      -9.080   8.110  65.804  1.00  0.00    -0.162 OA 
BRANCH  12  16
HETATM   16  N   UNL     1     -10.236   8.603  68.219  1.00  0.00    -0.193 N  
HETATM   17  C   UNL     1      -9.842   9.360  69.307  1.00  0.00    -0.174 C  
HETATM   18  H   UNL     1     -10.899   9.014  67.561  1.00  0.00     0.000 HD 
HETATM   19  O   UNL     1      -9.056   8.905  70.131  1.00  0.00    -0.155 OA 
BRANCH  17  20
HETATM   20  C   UNL     1     -10.302  10.791  69.416  1.00  0.00    -0.207 A  
HETATM   21  C   UNL     1      -9.567  11.803  68.760  1.00  0.00    -0.042 A  
HETATM   22 CL   UNL     1      -7.903  11.556  68.308  1.00  0.00    -0.130 Cl 
HETATM   23  C   UNL     1     -10.126  13.086  68.532  1.00  0.00    -0.195 A  
HETATM   24  C   UNL     1     -11.329  13.454  69.168  1.00  0.00    -0.333 A  
HETATM   25  C   UNL     1     -12.022  12.472  69.891  1.00  0.00    -0.371 A  
HETATM   26  C   UNL     1     -11.901  14.869  69.052  1.00  0.00    -0.301 C  
HETATM   27  C   UNL     1     -11.544  11.148  69.969  1.00  0.00    -0.338 A  
HETATM   28  N   UNL     1     -11.106  15.746  68.175  1.00  0.00    -0.328 N  
HETATM   29 CL   UNL     1     -12.614  10.008  70.715  1.00  0.00    -0.385 Cl 
HETATM   30  C   UNL     1     -10.543  15.046  67.031  1.00  0.00    -0.293 C  
HETATM   31  C   UNL     1     -10.558  16.915  68.719  1.00  0.00    -0.355 C  
HETATM   32  C   UNL     1      -9.493  14.065  67.555  1.00  0.00    -0.221 C  
HETATM   33  O   UNL     1     -10.756  17.238  69.892  1.00  0.00    -0.040 OA 
BRANCH  31  34
HETATM   34  C   UNL     1      -9.686  17.834  67.917  1.00  0.00    -0.294 A  
HETATM   35  C   UNL     1     -10.334  18.785  67.103  1.00  0.00    -0.455 A  
HETATM   36  C   UNL     1      -9.624  19.615  66.218  1.00  0.00    -0.488 A  
HETATM   37  C   UNL     1      -8.230  19.481  66.148  1.00  0.00    -0.336 A  
HETATM   38  C   UNL     1      -7.191  20.084  65.389  1.00  0.00    -0.258 A  
HETATM   39  C   UNL     1      -6.020  19.486  65.795  1.00  0.00    -0.176 A  
HETATM   40  O   UNL     1      -6.266  18.550  66.750  1.00  0.00    -0.166 OA 
HETATM   41  C   UNL     1      -7.614  18.537  66.962  1.00  0.00    -0.223 A  
HETATM   42  C   UNL     1      -8.291  17.688  67.845  1.00  0.00    -0.235 A  
ENDBRANCH  31  34
ENDBRANCH  17  20
ENDBRANCH  12  16
ENDBRANCH  11  12
ENDBRANCH   7  11
ENDBRANCH   2   5
TORSDOF 6
ENDMDL
MODEL        3
REMARK 921   NORMALIZED FREE ENERGY PREDICTED BY IDOCK:   -8.06 KCAL/MOL
REMARK 922        TOTAL FREE ENERGY PREDICTED BY IDOCK:  -11.51 KCAL/MOL
REMARK 923 INTER-LIGAND FREE ENERGY PREDICTED BY IDOCK:  -10.18 KCAL/MOL
REMARK 924 INTRA-LIGAND FREE ENERGY PREDICTED BY IDOCK:   -1.34 KCAL/MOL
REMARK 927      BINDING AFFINITY PREDICTED BY RF-SCORE:    0.00 PKD
ROOT
HETATM    1  C   UNL     1      -5.570  18.545  68.184  1.00  0.00    -0.177 C  
HETATM    2  S   UNL     1      -6.076  17.379  66.944  1.00  0.00    -0.196 S  
HETATM    3  O   UNL     1      -5.862  17.977  65.643  1.00  0.00    -0.193 OA 
HETATM    4  O   UNL     1      -5.496  16.091  67.279  1.00  0.00    -0.285 OA 
ENDROOT
BRANCH   2   5
HETATM    5  C   UNL     1      -7.837  17.253  67.139  1.00  0.00    -0.198 A  
HETATM    6  C   UNL     1      -8.569  16.669  66.101  1.00  0.00    -0.324 A  
HETATM    7  C   UNL     1      -9.929  16.393  66.250  1.00  0.00    -0.341 A  
HETATM    8  C   UNL     1     -10.554  16.788  67.446  1.00  0.00    -0.291 A  
HETATM    9  C   UNL     1      -9.825  17.399  68.476  1.00  0.00    -0.320 A  
HETATM   10  C   UNL     1      -8.455  17.618  68.333  1.00  0.00    -0.287 A  
BRANCH   7  11
HETATM   11  C   UNL     1     -10.758  15.666  65.205  1.00  0.00    -0.463 C  
BRANCH  11  12
HETATM   12  CA  UNL     1     -11.471  14.346  65.572  1.00  0.00    -0.340 C  
HETATM   13  C   UNL     1     -12.122  13.716  64.324  1.00  0.00    -0.434 C  
HETATM   14  OXT UNL     1     -12.546  14.337  63.363  1.00  0.00    -0.777 OA 
HETATM   15  O   UNL     1     -12.234  12.369  64.400  1.00  0.00    -0.411 OA 
BRANCH  12  16
HETATM   16  N   UNL     1     -10.621  13.390  66.341  1.00  0.00    -0.283 N  
HETATM   17  C   UNL     1     -10.728  13.199  67.706  1.00  0.00    -0.240 C  
HETATM   18  H   UNL     1      -9.922  12.849  65.832  1.00  0.00     0.000 HD 
HETATM   19  O   UNL     1     -11.546  13.834  68.363  1.00  0.00    -0.291 OA 
BRANCH  17  20
HETATM   20  C   UNL     1      -9.907  12.122  68.367  1.00  0.00    -0.200 A  
HETATM   21  C   UNL     1     -10.560  11.006  68.936  1.00  0.00    -0.207 A  
HETATM   22 CL   UNL     1     -12.242  11.083  69.383  1.00  0.00    -0.392 Cl 
HETATM   23  C   UNL     1      -9.850   9.820  69.248  1.00  0.00    -0.208 A  
HETATM   24  C   UNL     1      -8.441   9.815  69.225  1.00  0.00    -0.152 A  
HETATM   25  C   UNL     1      -7.784  10.954  68.739  1.00  0.00    -0.129 A  
HETATM   26  C   UNL     1      -7.633   8.596  69.679  1.00  0.00    -0.080 C  
HETATM   27  C   UNL     1      -8.505  12.069  68.266  1.00  0.00    -0.167 A  
HETATM   28  N   UNL     1      -8.475   7.451  70.062  1.00  0.00    -0.137 N  
HETATM   29 CL   UNL     1      -7.561  13.305  67.504  1.00  0.00    -0.165 Cl 
HETATM   30  C   UNL     1      -9.668   7.322  69.240  1.00  0.00    -0.161 C  
HETATM   31  C   UNL     1      -8.374   6.955  71.368  1.00  0.00    -0.115 C  
HETATM   32  C   UNL     1     -10.576   8.516  69.543  1.00  0.00    -0.215 C  
HETATM   33  O   UNL     1      -7.578   7.429  72.181  1.00  0.00    -0.081 OA 
BRANCH  31  34
HETATM   34  C   UNL     1      -9.237   5.832  71.864  1.00  0.00    -0.155 A  
HETATM   35  C   UNL     1     -10.174   6.140  72.870  1.00  0.00    -0.206 A  
HETATM   36  C   UNL     1     -10.949   5.147  73.495  1.00  0.00    -0.370 A  
HETATM   37  C   UNL     1     -10.772   3.813  73.100  1.00  0.00    -0.267 A  
HETATM   38  C   UNL     1     -11.316   2.560  73.491  1.00  0.00    -0.295 A  
HETATM   39  C   UNL     1     -10.700   1.612  72.707  1.00  0.00    -0.150 A  
HETATM   40  O   UNL     1      -9.809   2.193  71.861  1.00  0.00    -0.134 OA 
HETATM   41  C   UNL     1      -9.842   3.536  72.103  1.00  0.00    -0.168 A  
HETATM   42  C   UNL     1      -9.048   4.498  71.469  1.00  0.00    -0.174 A  
ENDBRANCH  31  34
ENDBRANCH  17  20
ENDBRANCH  12  16
ENDBRANCH  11  12
ENDBRANCH   7  11
ENDBRANCH   2   5
TORSDOF 6
ENDMDL
MODEL        4
REMARK 921   NORMALIZED FREE ENERGY PREDICTED BY IDOCK:   -8.02 KCAL/MOL
REMARK 922        TOTAL FREE ENERGY PREDICTED BY IDOCK:  -11.45 KCAL/MOL
REMARK 923 INTER-LIGAND FREE ENERGY PREDICTED BY IDOCK:  -10.70 KCAL/MOL
REMARK 924 INTRA-LIGAND FREE ENERGY PREDICTED BY IDOCK:   -0.76 KCAL/MOL
REMARK 927      BINDING AFFINITY PREDICTED BY RF-SCORE:    0.00 PKD
ROOT
HETATM    1  C   UNL     1     -12.541  14.874  72.906  1.00  0.00    -0.406 C  
HETATM    2  S   UNL     1     -13.042  14.194  71.344  1.00  0.00    -0.360 S  
HETATM    3  O   UNL     1     -12.693  12.788  71.326  1.00  0.00    -0.368 OA 
HETATM    4  O   UNL     1     -14.401  14.629  71.082  1.00  0.00    -0.318 OA 
ENDROOT
BRANCH   2   5
HETATM    5  C   UNL     1     -11.979  14.975  70.154  1.00  0.00    -0.320 A  
HETATM    6  C   UNL     1     -11.889  14.401  68.882  1.00  0.00    -0.355 A  
HETATM    7  C   UNL     1     -11.202  15.046  67.852  1.00  0.00    -0.330 A  
HETATM    8  C   UNL     1     -10.542  16.250  68.154  1.00  0.00    -0.307 A  
HETATM    9  C   UNL     1     -10.609  16.810  69.437  1.00  0.00    -0.318 A  
HETATM   10  C   UNL     1     -11.345  16.182  70.440  1.00  0.00    -0.377 A  
BRANCH   7  11
HETATM   11  C   UNL     1     -11.155  14.531  66.424  1.00  0.00    -0.331 C  
BRANCH  11  12
HETATM   12  CA  UNL     1     -12.131  13.422  65.975  1.00  0.00    -0.438 C  
HETATM   13  C   UNL     1     -12.660  13.708  64.554  1.00  0.00    -0.197 C  
HETATM   14  OXT UNL     1     -12.808  14.818  64.070  1.00  0.00    -0.697 OA 
HETATM   15  O   UNL     1     -13.008  12.589  63.877  1.00  0.00    -0.730 OA 
BRANCH  12  16
HETATM   16  N   UNL     1     -11.593  12.039  66.137  1.00  0.00    -0.354 N  
HETATM   17  C   UNL     1     -10.255  11.718  66.004  1.00  0.00    -0.230 C  
HETATM   18  H   UNL     1     -12.249  11.289  66.358  1.00  0.00     0.000 HD 
HETATM   19  O   UNL     1      -9.431  12.582  65.729  1.00  0.00    -0.183 OA 
BRANCH  17  20
HETATM   20  C   UNL     1      -9.800  10.314  66.309  1.00  0.00    -0.276 A  
HETATM   21  C   UNL     1     -10.138   9.733  67.552  1.00  0.00    -0.197 A  
HETATM   22 CL   UNL     1     -10.565  10.723  68.919  1.00  0.00    -0.222 Cl 
HETATM   23  C   UNL     1     -10.050   8.333  67.756  1.00  0.00    -0.262 A  
HETATM   24  C   UNL     1      -9.394   7.522  66.808  1.00  0.00    -0.209 A  
HETATM   25  C   UNL     1      -8.981   8.113  65.606  1.00  0.00    -0.128 A  
HETATM   26  C   UNL     1      -9.164   6.028  67.049  1.00  0.00    -0.121 C  
HETATM   27  C   UNL     1      -9.228   9.475  65.337  1.00  0.00    -0.247 A  
HETATM   28  N   UNL     1      -9.748   5.546  68.312  1.00  0.00    -0.126 N  
HETATM   29 CL   UNL     1      -8.850  10.003  63.731  1.00  0.00    -0.222 Cl 
HETATM   30  C   UNL     1     -11.009   6.195  68.638  1.00  0.00    -0.336 C  
HETATM   31  C   UNL     1      -8.897   4.976  69.267  1.00  0.00    -0.091 C  
HETATM   32  C   UNL     1     -10.712   7.663  68.950  1.00  0.00    -0.117 C  
HETATM   33  O   UNL     1      -7.690   4.838  69.058  1.00  0.00    -0.070 OA 
BRANCH  31  34
HETATM   34  C   UNL     1      -9.394   4.515  70.605  1.00  0.00    -0.223 A  
HETATM   35  C   UNL     1      -9.277   5.421  71.678  1.00  0.00    -0.166 A  
HETATM   36  C   UNL     1      -9.596   5.056  72.998  1.00  0.00    -0.160 A  
HETATM   37  C   UNL     1     -10.040   3.748  73.242  1.00  0.00    -0.207 A  
HETATM   38  C   UNL     1     -10.419   3.004  74.392  1.00  0.00    -0.224 A  
HETATM   39  C   UNL     1     -10.744   1.744  73.946  1.00  0.00    -0.129 A  
HETATM   40  O   UNL     1     -10.588   1.657  72.598  1.00  0.00    -0.144 OA 
HETATM   41  C   UNL     1     -10.149   2.874  72.165  1.00  0.00    -0.135 A  
HETATM   42  C   UNL     1      -9.829   3.202  70.843  1.00  0.00    -0.065 A  
ENDBRANCH  31  34
ENDBRANCH  17  20
ENDBRANCH  12  16
ENDBRANCH  11  12
ENDBRANCH   7  11
ENDBRANCH   2   5
TORSDOF 6
ENDMDL
MODEL        5
REMARK 921   NORMALIZED FREE ENERGY PREDICTED BY IDOCK:   -7.98 KCAL/MOL
REMARK 922        TOTAL FREE ENERGY PREDICTED BY IDOCK:  -11.40 KCAL/MOL
REMARK 923 INTER-LIGAND FREE ENERGY PREDICTED BY IDOCK:   -9.52 KCAL/MOL
REMARK 924 INTRA-LIGAND FREE ENERGY PREDICTED BY IDOCK:   -1.88 KCAL/MOL
REMARK 927      BINDING AFFINITY PREDICTED BY RF-SCORE:    0.00 PKD
ROOT
HETATM    1  C   UNL     1     -13.082   9.875  70.834  1.00  0.00    -0.274 C  
HETATM    2  S   UNL     1     -13.559   8.465  71.803  1.00  0.00    -0.375 S  
HETATM    3  O   UNL     1     -14.142   8.939  73.040  1.00  0.00    -0.396 OA 
HETATM    4  O   UNL     1     -14.283   7.553  70.936  1.00  0.00    -0.155 OA 
ENDROOT
BRANCH   2   5
HETATM    5  C   UNL     1     -12.024   7.690  72.252  1.00  0.00    -0.285 A  
HETATM    6  C   UNL     1     -11.721   6.457  71.668  1.00  0.00    -0.367 A  
HETATM    7  C   UNL     1     -10.468   5.868  71.849  1.00  0.00    -0.267 A  
HETATM    8  C   UNL     1      -9.553   6.516  72.697  1.00  0.00    -0.156 A  
HETATM    9  C   UNL     1      -9.869   7.738  73.305  1.00  0.00    -0.362 A  
HETATM   10  C   UNL     1     -11.104   8.341  73.070  1.00  0.00    -0.020 A  
BRANCH   7  11
HETATM   11  C   UNL     1     -10.035   4.586  71.160  1.00  0.00    -0.257 C  
BRANCH  11  12
HETATM   12  CA  UNL     1      -9.295   4.654  69.806  1.00  0.00    -0.145 C  
HETATM   13  C   UNL     1      -9.468   3.334  69.027  1.00  0.00    -0.117 C  
HETATM   14  OXT UNL     1      -9.617   2.233  69.532  1.00  0.00    -0.083 OA 
HETATM   15  O   UNL     1      -9.389   3.490  67.684  1.00  0.00    -0.180 OA 
BRANCH  12  16
HETATM   16  N   UNL     1      -9.620   5.865  68.997  1.00  0.00    -0.126 N  
HETATM   17  C   UNL     1      -8.758   6.934  68.839  1.00  0.00    -0.130 C  
HETATM   18  H   UNL     1     -10.528   5.906  68.535  1.00  0.00     0.000 HD 
HETATM   19  O   UNL     1      -7.659   6.934  69.384  1.00  0.00    -0.095 OA 
BRANCH  17  20
HETATM   20  C   UNL     1      -9.133   8.052  67.902  1.00  0.00    -0.134 A  
HETATM   21  C   UNL     1      -9.185   9.376  68.393  1.00  0.00    -0.127 A  
HETATM   22 CL   UNL     1      -9.368   9.697  70.095  1.00  0.00    -0.281 Cl 
HETATM   23  C   UNL     1      -9.183  10.487  67.511  1.00  0.00    -0.152 A  
HETATM   24  C   UNL     1      -9.377  10.289  66.129  1.00  0.00    -0.211 A  
HETATM   25  C   UNL     1      -9.411   8.974  65.647  1.00  0.00    -0.289 A  
HETATM   26  C   UNL     1      -9.511  11.467  65.159  1.00  0.00    -0.199 C  
HETATM   27  C   UNL     1      -9.237   7.873  66.511  1.00  0.00    -0.191 A  
HETATM   28  N   UNL     1      -9.351  12.777  65.812  1.00  0.00    -0.005 N  
HETATM   29 CL   UNL     1      -9.092   6.330  65.740  1.00  0.00    -0.094 Cl 
HETATM   30  C   UNL     1      -8.360  12.765  66.877  1.00  0.00    -0.058 C  
HETATM   31  C   UNL     1     -10.412  13.690  65.747  1.00  0.00    -0.293 C  
HETATM   32  C   UNL     1      -8.906  11.896  68.012  1.00  0.00    -0.177 C  
HETATM   33  O   UNL     1     -11.449  13.434  65.132  1.00  0.00    -0.290 OA 
BRANCH  31  34
HETATM   34  C   UNL     1     -10.361  15.022  66.434  1.00  0.00    -0.293 A  
HETATM   35  C   UNL     1     -11.029  15.132  67.670  1.00  0.00    -0.308 A  
HETATM   36  C   UNL     1     -11.151  16.360  68.343  1.00  0.00    -0.351 A  
HETATM   37  C   UNL     1     -10.591  17.504  67.756  1.00  0.00    -0.375 A  
HETATM   38  C   UNL     1     -10.527  18.885  68.086  1.00  0.00    -0.387 A  
HETATM   39  C   UNL     1      -9.832  19.493  67.066  1.00  0.00    -0.360 A  
HETATM   40  O   UNL     1      -9.467  18.582  66.125  1.00  0.00    -0.453 OA 
HETATM   41  C   UNL     1      -9.936  17.369  66.536  1.00  0.00    -0.311 A  
HETATM   42  C   UNL     1      -9.806  16.165  65.835  1.00  0.00    -0.384 A  
ENDBRANCH  31  34
ENDBRANCH  17  20
ENDBRANCH  12  16
ENDBRANCH  11  12
ENDBRANCH   7  11
ENDBRANCH   2   5
TORSDOF 6
ENDMDL
MODEL        6
REMARK 921   NORMALIZED FREE ENERGY PREDICTED BY IDOCK:   -7.94 KCAL/MOL
REMARK 922        TOTAL FREE ENERGY PREDICTED BY IDOCK:  -11.34 KCAL/MOL
REMARK 923 INTER-LIGAND FREE ENERGY PREDICTED BY IDOCK:   -9.96 KCAL/MOL
REMARK 924 INTRA-LIGAND FREE ENERGY PREDICTED BY IDOCK:   -1.38 KCAL/MOL
REMARK 927      BINDING AFFINITY PREDICTED BY RF-SCORE:    0.00 PKD
ROOT
HETATM    1  C   UNL     1     -10.372  11.100  63.726  1.00  0.00    -0.386 C  
HETATM    2  S   UNL     1      -8.897  10.326  63.108  1.00  0.00    -0.251 S  
HETATM    3  O   UNL     1      -9.283   9.157  62.346  1.00  0.00    -0.163 OA 
HETATM    4  O   UNL     1      -8.063  11.359  62.522  1.00  0.00    -0.056 OA 
ENDROOT
BRANCH   2   5
HETATM    5  C   UNL     1      -8.072   9.714  64.558  1.00  0.00    -0.143 A  
HETATM    6  C   UNL     1      -8.752   8.785  65.352  1.00  0.00    -0.217 A  
HETATM    7  C   UNL     1      -8.109   8.143  66.413  1.00  0.00    -0.106 A  
HETATM    8  C   UNL     1      -6.785   8.516  66.702  1.00  0.00    -0.068 A  
HETATM    9  C   UNL     1      -6.114   9.468  65.922  1.00  0.00    -0.063 A  
HETATM   10  C   UNL     1      -6.751  10.059  64.832  1.00  0.00    -0.126 A  
BRANCH   7  11
HETATM   11  C   UNL     1      -8.754   7.050  67.247  1.00  0.00    -0.120 C  
BRANCH  11  12
HETATM   12  CA  UNL     1     -10.246   7.156  67.631  1.00  0.00    -0.198 C  
HETATM   13  C   UNL     1     -10.617   6.075  68.667  1.00  0.00    -0.266 C  
HETATM   14  OXT UNL     1     -10.088   4.979  68.759  1.00  0.00    -0.170 OA 
HETATM   15  O   UNL     1     -11.649   6.431  69.467  1.00  0.00    -0.404 OA 
BRANCH  12  16
HETATM   16  N   UNL     1     -10.673   8.529  68.032  1.00  0.00    -0.450 N  
HETATM   17  C   UNL     1     -10.131   9.217  69.102  1.00  0.00    -0.199 C  
HETATM   18  H   UNL     1     -11.405   8.985  67.487  1.00  0.00     0.000 HD 
HETATM   19  O   UNL     1      -9.256   8.707  69.792  1.00  0.00    -0.150 OA 
BRANCH  17  20
HETATM   20  C   UNL     1     -10.545  10.645  69.347  1.00  0.00    -0.270 A  
HETATM   21  C   UNL     1      -9.846  11.688  68.699  1.00  0.00    -0.165 A  
HETATM   22 CL   UNL     1      -8.234  11.443  68.087  1.00  0.00    -0.136 Cl 
HETATM   23  C   UNL     1     -10.392  12.993  68.608  1.00  0.00    -0.203 A  
HETATM   24  C   UNL     1     -11.528  13.336  69.370  1.00  0.00    -0.323 A  
HETATM   25  C   UNL     1     -12.178  12.319  70.083  1.00  0.00    -0.302 A  
HETATM   26  C   UNL     1     -12.073  14.766  69.401  1.00  0.00    -0.270 C  
HETATM   27  C   UNL     1     -11.727  10.984  70.029  1.00  0.00    -0.355 A  
HETATM   28  N   UNL     1     -11.337  15.688  68.519  1.00  0.00    -0.342 N  
HETATM   29 CL   UNL     1     -12.754   9.815  70.787  1.00  0.00    -0.295 Cl 
HETATM   30  C   UNL     1     -10.891  15.059  67.285  1.00  0.00    -0.310 C  
HETATM   31  C   UNL     1     -10.717  16.806  69.091  1.00  0.00    -0.329 C  
HETATM   32  C   UNL     1      -9.823  14.025  67.647  1.00  0.00    -0.233 C  
HETATM   33  O   UNL     1     -10.805  17.050  70.295  1.00  0.00    -0.034 OA 
BRANCH  31  34
HETATM   34  C   UNL     1      -9.896  17.764  68.279  1.00  0.00    -0.340 A  
HETATM   35  C   UNL     1     -10.595  18.728  67.525  1.00  0.00    -0.497 A  
HETATM   36  C   UNL     1      -9.938  19.596  66.635  1.00  0.00    -0.532 A  
HETATM   37  C   UNL     1      -8.546  19.487  66.498  1.00  0.00    -0.374 A  
HETATM   38  C   UNL     1      -7.552  20.130  65.713  1.00  0.00    -0.240 A  
HETATM   39  C   UNL     1      -6.355  19.539  66.047  1.00  0.00    -0.194 A  
HETATM   40  O   UNL     1      -6.543  18.571  66.983  1.00  0.00    -0.185 OA 
HETATM   41  C   UNL     1      -7.880  18.529  67.254  1.00  0.00    -0.235 A  
HETATM   42  C   UNL     1      -8.504  17.643  68.140  1.00  0.00    -0.260 A  
ENDBRANCH  31  34
ENDBRANCH  17  20
ENDBRANCH  12  16
ENDBRANCH  11  12
ENDBRANCH   7  11
ENDBRANCH   2   5
TORSDOF 6
ENDMDL
MODEL        7
REMARK 921   NORMALIZED FREE ENERGY PREDICTED BY IDOCK:   -7.93 KCAL/MOL
REMARK 922        TOTAL FREE ENERGY PREDICTED BY IDOCK:  -11.34 KCAL/MOL
REMARK 923 INTER-LIGAND FREE ENERGY PREDICTED BY IDOCK:   -9.66 KCAL/MOL
REMARK 924 INTRA-LIGAND FREE ENERGY PREDICTED BY IDOCK:   -1.67 KCAL/MOL
REMARK 927      BINDING AFFINITY PREDICTED BY RF-SCORE:    0.00 PKD
ROOT
HETATM    1  C   UNL     1     -11.409   6.173  69.921  1.00  0.00    -0.384 C  
HETATM    2  S   UNL     1     -10.120   5.716  71.054  1.00  0.00    -0.217 S  
HETATM    3  O   UNL     1     -10.042   6.729  72.086  1.00  0.00    -0.181 OA 
HETATM    4  O   UNL     1     -10.299   4.316  71.392  1.00  0.00    -0.103 OA 
ENDROOT
BRANCH   2   5
HETATM    5  C   UNL     1      -8.621   5.864  70.110  1.00  0.00    -0.134 A  
HETATM    6  C   UNL     1      -8.551   5.190  68.888  1.00  0.00    -0.092 A  
HETATM    7  C   UNL     1      -7.474   5.388  68.022  1.00  0.00    -0.077 A  
HETATM    8  C   UNL     1      -6.429   6.225  68.452  1.00  0.00    -0.049 A  
HETATM    9  C   UNL     1      -6.487   6.878  69.690  1.00  0.00    -0.044 A  
HETATM   10  C   UNL     1      -7.596   6.713  70.520  1.00  0.00    -0.099 A  
BRANCH   7  11
HETATM   11  C   UNL     1      -7.386   4.772  66.636  1.00  0.00    -0.082 C  
BRANCH  11  12
HETATM   12  CA  UNL     1      -8.475   5.084  65.587  1.00  0.00    -0.127 C  
HETATM   13  C   UNL     1      -9.568   3.995  65.599  1.00  0.00    -0.190 C  
HETATM   14  OXT UNL     1      -9.390   2.825  65.895  1.00  0.00    -0.122 OA 
HETATM   15  O   UNL     1     -10.777   4.446  65.191  1.00  0.00    -0.255 OA 
BRANCH  12  16
HETATM   16  N   UNL     1      -9.021   6.470  65.673  1.00  0.00    -0.352 N  
HETATM   17  C   UNL     1      -8.277   7.604  65.405  1.00  0.00    -0.136 C  
HETATM   18  H   UNL     1      -9.997   6.588  65.946  1.00  0.00     0.000 HD 
HETATM   19  O   UNL     1      -7.098   7.514  65.084  1.00  0.00    -0.060 OA 
BRANCH  17  20
HETATM   20  C   UNL     1      -8.957   8.949  65.403  1.00  0.00    -0.232 A  
HETATM   21  C   UNL     1      -9.272   9.565  66.634  1.00  0.00    -0.152 A  
HETATM   22 CL   UNL     1      -9.408   8.631  68.098  1.00  0.00    -0.142 Cl 
HETATM   23  C   UNL     1      -9.579  10.947  66.706  1.00  0.00    -0.210 A  
HETATM   24  C   UNL     1      -9.817  11.679  65.525  1.00  0.00    -0.264 A  
HETATM   25  C   UNL     1      -9.586  11.044  64.297  1.00  0.00    -0.303 A  
HETATM   26  C   UNL     1     -10.277  13.139  65.561  1.00  0.00    -0.287 C  
HETATM   27  C   UNL     1      -9.111   9.718  64.236  1.00  0.00    -0.246 A  
HETATM   28  N   UNL     1     -10.372  13.684  66.926  1.00  0.00    -0.260 N  
HETATM   29 CL   UNL     1      -8.674   9.149  62.660  1.00  0.00    -0.219 Cl 
HETATM   30  C   UNL     1      -9.335  13.180  67.813  1.00  0.00    -0.206 C  
HETATM   31  C   UNL     1     -11.613  14.157  67.371  1.00  0.00    -0.372 C  
HETATM   32  C   UNL     1      -9.594  11.688  68.034  1.00  0.00    -0.184 C  
HETATM   33  O   UNL     1     -12.605  14.160  66.639  1.00  0.00    -0.349 OA 
BRANCH  31  34
HETATM   34  C   UNL     1     -11.817  14.672  68.765  1.00  0.00    -0.348 A  
HETATM   35  C   UNL     1     -11.253  15.926  69.073  1.00  0.00    -0.327 A  
HETATM   36  C   UNL     1     -11.275  16.452  70.377  1.00  0.00    -0.253 A  
HETATM   37  C   UNL     1     -11.875  15.695  71.394  1.00  0.00    -0.482 A  
HETATM   38  C   UNL     1     -12.068  15.850  72.793  1.00  0.00    -0.611 A  
HETATM   39  C   UNL     1     -12.729  14.720  73.218  1.00  0.00    -0.482 A  
HETATM   40  O   UNL     1     -12.953  13.875  72.177  1.00  0.00    -0.348 OA 
HETATM   41  C   UNL     1     -12.425  14.461  71.063  1.00  0.00    -0.355 A  
HETATM   42  C   UNL     1     -12.411  13.905  69.779  1.00  0.00    -0.330 A  
ENDBRANCH  31  34
ENDBRANCH  17  20
ENDBRANCH  12  16
ENDBRANCH  11  12
ENDBRANCH   7  11
ENDBRANCH   2   5
TORSDOF 6
ENDMDL
MODEL        8
REMARK 921   NORMALIZED FREE ENERGY PREDICTED BY IDOCK:   -7.92 KCAL/MOL
REMARK 922        TOTAL FREE ENERGY PREDICTED BY IDOCK:  -11.32 KCAL/MOL
REMARK 923 INTER-LIGAND FREE ENERGY PREDICTED BY IDOCK:  -11.10 KCAL/MOL
REMARK 924 INTRA-LIGAND FREE ENERGY PREDICTED BY IDOCK:   -0.22 KCAL/MOL
REMARK 927      BINDING AFFINITY PREDICTED BY RF-SCORE:    0.00 PKD
ROOT
HETATM    1  C   UNL     1     -10.506  20.089  65.861  1.00  0.00    -0.406 C  
HETATM    2  S   UNL     1      -9.572  19.791  67.342  1.00  0.00    -0.380 S  
HETATM    3  O   UNL     1      -8.310  20.493  67.232  1.00  0.00    -0.337 OA 
HETATM    4  O   UNL     1     -10.452  20.008  68.475  1.00  0.00    -0.411 OA 
ENDROOT
BRANCH   2   5
HETATM    5  C   UNL     1      -9.175  18.061  67.280  1.00  0.00    -0.255 A  
HETATM    6  C   UNL     1      -9.866  17.265  66.362  1.00  0.00    -0.310 A  
HETATM    7  C   UNL     1      -9.498  15.935  66.146  1.00  0.00    -0.375 A  
HETATM    8  C   UNL     1      -8.463  15.403  66.934  1.00  0.00    -0.287 A  
HETATM    9  C   UNL     1      -7.788  16.194  67.874  1.00  0.00    -0.151 A  
HETATM   10  C   UNL     1      -8.132  17.536  68.039  1.00  0.00    -0.237 A  
BRANCH   7  11
HETATM   11  C   UNL     1     -10.136  15.048  65.091  1.00  0.00    -0.350 C  
BRANCH  11  12
HETATM   12  CA  UNL     1     -11.179  13.988  65.507  1.00  0.00    -0.311 C  
HETATM   13  C   UNL     1     -12.322  13.917  64.473  1.00  0.00    -0.372 C  
HETATM   14  OXT UNL     1     -12.709  14.850  63.788  1.00  0.00    -0.754 OA 
HETATM   15  O   UNL     1     -12.918  12.704  64.416  1.00  0.00    -0.740 OA 
BRANCH  12  16
HETATM   16  N   UNL     1     -10.593  12.655  65.832  1.00  0.00    -0.268 N  
HETATM   17  C   UNL     1     -11.082  11.825  66.824  1.00  0.00    -0.306 C  
HETATM   18  H   UNL     1      -9.787  12.338  65.293  1.00  0.00     0.000 HD 
HETATM   19  O   UNL     1     -12.042  12.167  67.505  1.00  0.00    -0.534 OA 
BRANCH  17  20
HETATM   20  C   UNL     1     -10.494  10.448  66.989  1.00  0.00    -0.309 A  
HETATM   21  C   UNL     1     -10.655   9.771  68.219  1.00  0.00    -0.229 A  
HETATM   22 CL   UNL     1     -11.008  10.644  69.684  1.00  0.00    -0.303 Cl 
HETATM   23  C   UNL     1     -10.443   8.373  68.322  1.00  0.00    -0.214 A  
HETATM   24  C   UNL     1      -9.833   7.673  67.261  1.00  0.00    -0.245 A  
HETATM   25  C   UNL     1      -9.594   8.363  66.065  1.00  0.00    -0.196 A  
HETATM   26  C   UNL     1      -9.468   6.191  67.380  1.00  0.00    -0.114 C  
HETATM   27  C   UNL     1      -9.968   9.714  65.911  1.00  0.00    -0.281 A  
HETATM   28  N   UNL     1      -9.879   5.593  68.661  1.00  0.00    -0.136 N  
HETATM   29 CL   UNL     1      -9.801  10.362  64.314  1.00  0.00    -0.392 Cl 
HETATM   30  C   UNL     1     -11.143   6.118  69.155  1.00  0.00    -0.378 C  
HETATM   31  C   UNL     1      -8.892   5.039  69.486  1.00  0.00    -0.095 C  
HETATM   32  C   UNL     1     -10.924   7.585  69.530  1.00  0.00    -0.127 C  
HETATM   33  O   UNL     1      -7.707   5.010  69.148  1.00  0.00    -0.074 OA 
BRANCH  31  34
HETATM   34  C   UNL     1      -9.210   4.464  70.835  1.00  0.00    -0.202 A  
HETATM   35  C   UNL     1      -8.712   5.153  71.959  1.00  0.00    -0.134 A  
HETATM   36  C   UNL     1      -8.844   4.644  73.263  1.00  0.00    -0.106 A  
HETATM   37  C   UNL     1      -9.488   3.410  73.437  1.00  0.00    -0.128 A  
HETATM   38  C   UNL     1      -9.784   2.569  74.544  1.00  0.00    -0.133 A  
HETATM   39  C   UNL     1     -10.434   1.471  74.030  1.00  0.00    -0.102 A  
HETATM   40  O   UNL     1     -10.556   1.573  72.679  1.00  0.00    -0.140 OA 
HETATM   41  C   UNL     1      -9.971   2.750  72.312  1.00  0.00    -0.169 A  
HETATM   42  C   UNL     1      -9.847   3.224  71.001  1.00  0.00    -0.113 A  
ENDBRANCH  31  34
ENDBRANCH  17  20
ENDBRANCH  12  16
ENDBRANCH  11  12
ENDBRANCH   7  11
ENDBRANCH   2   5
TORSDOF 6
ENDMDL
MODEL        9
REMARK 921   NORMALIZED FREE ENERGY PREDICTED BY IDOCK:   -7.91 KCAL/MOL
REMARK 922        TOTAL FREE ENERGY PREDICTED BY IDOCK:  -11.30 KCAL/MOL
REMARK 923 INTER-LIGAND FREE ENERGY PREDICTED BY IDOCK:  -10.16 KCAL/MOL
REMARK 924 INTRA-LIGAND FREE ENERGY PREDICTED BY IDOCK:   -1.14 KCAL/MOL
REMARK 927      BINDING AFFINITY PREDICTED BY RF-SCORE:    0.00 PKD
ROOT
HETATM    1  C   UNL     1      -7.915  20.168  67.444  1.00  0.00    -0.322 C  
HETATM    2  S   UNL     1      -6.761  19.263  68.446  1.00  0.00    -0.273 S  
HETATM    3  O   UNL     1      -5.615  18.927  67.627  1.00  0.00    -0.172 OA 
HETATM    4  O   UNL     1      -6.601  19.978  69.698  1.00  0.00    -0.341 OA 
ENDROOT
BRANCH   2   5
HETATM    5  C   UNL     1      -7.580  17.725  68.793  1.00  0.00    -0.260 A  
HETATM    6  C   UNL     1      -8.906  17.583  68.375  1.00  0.00    -0.276 A  
HETATM    7  C   UNL     1      -9.560  16.352  68.471  1.00  0.00    -0.229 A  
HETATM    8  C   UNL     1      -8.867  15.285  69.069  1.00  0.00    -0.226 A  
HETATM    9  C   UNL     1      -7.547  15.436  69.514  1.00  0.00    -0.212 A  
HETATM   10  C   UNL     1      -6.890  16.656  69.361  1.00  0.00    -0.218 A  
BRANCH   7  11
HETATM   11  C   UNL     1     -10.960  16.102  67.940  1.00  0.00    -0.318 C  
BRANCH  11  12
HETATM   12  CA  UNL     1     -11.161  15.208  66.696  1.00  0.00    -0.274 C  
HETATM   13  C   UNL     1     -10.637  15.916  65.430  1.00  0.00    -0.419 C  
HETATM   14  OXT UNL     1     -10.615  17.124  65.258  1.00  0.00    -0.662 OA 
HETATM   15  O   UNL     1     -10.232  15.058  64.465  1.00  0.00    -0.060 OA 
BRANCH  12  16
HETATM   16  N   UNL     1     -10.638  13.820  66.856  1.00  0.00    -0.275 N  
HETATM   17  C   UNL     1     -11.375  12.687  66.565  1.00  0.00    -0.326 C  
HETATM   18  H   UNL     1      -9.685  13.700  67.199  1.00  0.00     0.000 HD 
HETATM   19  O   UNL     1     -12.528  12.780  66.160  1.00  0.00    -0.512 OA 
BRANCH  17  20
HETATM   20  C   UNL     1     -10.712  11.336  66.644  1.00  0.00    -0.321 A  
HETATM   21  C   UNL     1     -10.858  10.563  67.817  1.00  0.00    -0.294 A  
HETATM   22 CL   UNL     1     -11.290  11.304  69.333  1.00  0.00    -0.326 Cl 
HETATM   23  C   UNL     1     -10.568   9.175  67.823  1.00  0.00    -0.289 A  
HETATM   24  C   UNL     1      -9.897   8.590  66.730  1.00  0.00    -0.327 A  
HETATM   25  C   UNL     1      -9.674   9.379  65.593  1.00  0.00    -0.336 A  
HETATM   26  C   UNL     1      -9.450   7.126  66.750  1.00  0.00    -0.169 C  
HETATM   27  C   UNL     1     -10.122  10.714  65.529  1.00  0.00    -0.280 A  
HETATM   28  N   UNL     1      -9.850   6.413  67.974  1.00  0.00    -0.121 N  
HETATM   29 CL   UNL     1      -9.962  11.486  63.987  1.00  0.00    -0.310 Cl 
HETATM   30  C   UNL     1     -11.152   6.829  68.474  1.00  0.00    -0.142 C  
HETATM   31  C   UNL     1      -8.849   5.856  68.781  1.00  0.00    -0.111 C  
HETATM   32  C   UNL     1     -11.026   8.274  68.960  1.00  0.00     0.095 C  
HETATM   33  O   UNL     1      -7.658   5.919  68.470  1.00  0.00    -0.087 OA 
BRANCH  31  34
HETATM   34  C   UNL     1      -9.161   5.167  70.076  1.00  0.00    -0.163 A  
HETATM   35  C   UNL     1      -9.400   3.779  70.021  1.00  0.00    -0.250 A  
HETATM   36  C   UNL     1      -9.819   3.051  71.149  1.00  0.00    -0.106 A  
HETATM   37  C   UNL     1     -10.006   3.738  72.358  1.00  0.00    -0.232 A  
HETATM   38  C   UNL     1     -10.436   3.388  73.666  1.00  0.00    -0.259 A  
HETATM   39  C   UNL     1     -10.412   4.550  74.403  1.00  0.00    -0.270 A  
HETATM   40  O   UNL     1     -10.002   5.596  73.636  1.00  0.00    -0.164 OA 
HETATM   41  C   UNL     1      -9.762   5.107  72.385  1.00  0.00    -0.153 A  
HETATM   42  C   UNL     1      -9.354   5.862  71.280  1.00  0.00    -0.172 A  
ENDBRANCH  31  34
ENDBRANCH  17  20
ENDBRANCH  12  16
ENDBRANCH  11  12
ENDBRANCH   7  11
ENDBRANCH   2   5
TORSDOF 6
ENDMDL
MODEL       10
REMARK 921   NORMALIZED FREE ENERGY PREDICTED BY IDOCK:   -7.87 KCAL/MOL
REMARK 922        TOTAL FREE ENERGY PREDICTED BY IDOCK:  -11.26 KCAL/MOL
REMARK 923 INTER-LIGAND FREE ENERGY PREDICTED BY IDOCK:  -10.16 KCAL/MOL
REMARK 924 INTRA-LIGAND FREE ENERGY PREDICTED BY IDOCK:   -1.10 KCAL/MOL
REMARK 927      BINDING AFFINITY PREDICTED BY RF-SCORE:    0.00 PKD
ROOT
HETATM    1  C   UNL     1      -9.072   2.745  67.075  1.00  0.00    -0.159 C  
HETATM    2  S   UNL     1      -9.339   4.446  67.511  1.00  0.00    -0.166 S  
HETATM    3  O   UNL     1      -8.100   5.167  67.308  1.00  0.00    -0.103 OA 
HETATM    4  O   UNL     1     -10.569   4.882  66.877  1.00  0.00    -0.199 OA 
ENDROOT
BRANCH   2   5
HETATM    5  C   UNL     1      -9.607   4.421  69.268  1.00  0.00    -0.191 A  
HETATM    6  C   UNL     1     -10.372   5.450  69.825  1.00  0.00    -0.375 A  
HETATM    7  C   UNL     1     -10.756   5.410  71.167  1.00  0.00    -0.239 A  
HETATM    8  C   UNL     1     -10.286   4.344  71.955  1.00  0.00    -0.167 A  
HETATM    9  C   UNL     1      -9.495   3.328  71.401  1.00  0.00    -0.221 A  
HETATM   10  C   UNL     1      -9.166   3.353  70.046  1.00  0.00    -0.220 A  
BRANCH   7  11
HETATM   11  C   UNL     1     -11.673   6.436  71.809  1.00  0.00    -0.376 C  
BRANCH  11  12
HETATM   12  CA  UNL     1     -11.142   7.854  72.117  1.00  0.00    -0.294 C  
HETATM   13  C   UNL     1      -9.972   7.788  73.120  1.00  0.00    -0.311 C  
HETATM   14  OXT UNL     1      -9.830   6.934  73.980  1.00  0.00    -0.261 OA 
HETATM   15  O   UNL     1      -9.104   8.820  72.998  1.00  0.00    -0.279 OA 
BRANCH  12  16
HETATM   16  N   UNL     1     -10.834   8.664  70.902  1.00  0.00    -0.229 N  
HETATM   17  C   UNL     1     -11.746   9.504  70.291  1.00  0.00    -0.117 C  
HETATM   18  H   UNL     1      -9.899   8.593  70.499  1.00  0.00     0.000 HD 
HETATM   19  O   UNL     1     -12.885   9.614  70.732  1.00  0.00    -0.226 OA 
BRANCH  17  20
HETATM   20  C   UNL     1     -11.297  10.370  69.142  1.00  0.00    -0.286 A  
HETATM   21  C   UNL     1     -11.133  11.758  69.347  1.00  0.00    -0.181 A  
HETATM   22 CL   UNL     1     -11.927  12.571  70.667  1.00  0.00    -0.317 Cl 
HETATM   23  C   UNL     1     -10.393  12.552  68.435  1.00  0.00    -0.237 A  
HETATM   24  C   UNL     1     -10.017  12.023  67.184  1.00  0.00    -0.208 A  
HETATM   25  C   UNL     1     -10.254  10.662  66.943  1.00  0.00    -0.272 A  
HETATM   26  C   UNL     1      -9.331  12.883  66.119  1.00  0.00    -0.092 C  
HETATM   27  C   UNL     1     -10.836   9.836  67.926  1.00  0.00    -0.242 A  
HETATM   28  N   UNL     1      -9.063  14.260  66.570  1.00  0.00    -0.226 N  
HETATM   29 CL   UNL     1     -10.869   8.144  67.559  1.00  0.00    -0.204 Cl 
HETATM   30  C   UNL     1      -8.698  14.337  67.976  1.00  0.00    -0.177 C  
HETATM   31  C   UNL     1      -9.637  15.320  65.856  1.00  0.00    -0.342 C  
HETATM   32  C   UNL     1      -9.929  13.954  68.800  1.00  0.00    -0.139 C  
HETATM   33  O   UNL     1     -10.323  15.127  64.851  1.00  0.00    -0.371 OA 
BRANCH  31  34
HETATM   34  C   UNL     1      -9.468  16.749  66.279  1.00  0.00    -0.314 A  
HETATM   35  C   UNL     1     -10.639  17.525  66.395  1.00  0.00    -0.195 A  
HETATM   36  C   UNL     1     -10.594  18.905  66.664  1.00  0.00    -0.469 A  
HETATM   37  C   UNL     1      -9.341  19.516  66.816  1.00  0.00    -0.431 A  
HETATM   38  C   UNL     1      -8.881  20.839  67.055  1.00  0.00    -0.207 A  
HETATM   39  C   UNL     1      -7.507  20.771  67.082  1.00  0.00    -0.312 A  
HETATM   40  O   UNL     1      -7.086  19.495  66.871  1.00  0.00    -0.205 OA 
HETATM   41  C   UNL     1      -8.201  18.728  66.698  1.00  0.00    -0.289 A  
HETATM   42  C   UNL     1      -8.210  17.356  66.421  1.00  0.00    -0.306 A  
ENDBRANCH  31  34
ENDBRANCH  17  20
ENDBRANCH  12  16
ENDBRANCH  11  12
ENDBRANCH   7  11
ENDBRANCH   2   5
TORSDOF 6
ENDMDL
MODEL       11
REMARK 921   NORMALIZED FREE ENERGY PREDICTED BY IDOCK:   -7.57 KCAL/MOL
REMARK 922        TOTAL FREE ENERGY PREDICTED BY IDOCK:  -10.85 KCAL/MOL
REMARK 923 INTER-LIGAND FREE ENERGY PREDICTED BY IDOCK:  -10.00 KCAL/MOL
REMARK 924 INTRA-LIGAND FREE ENERGY PREDICTED BY IDOCK:   -0.85 KCAL/MOL
REMARK 927      BINDING AFFINITY PREDICTED BY RF-SCORE:    0.00 PKD
ROOT
HETATM    1  C   UNL     1      -6.375  19.761  69.858  1.00  0.00    -0.342 C  
HETATM    2  S   UNL     1      -6.554  18.351  68.792  1.00  0.00    -0.254 S  
HETATM    3  O   UNL     1      -5.702  18.544  67.637  1.00  0.00    -0.157 OA 
HETATM    4  O   UNL     1      -6.445  17.158  69.610  1.00  0.00    -0.241 OA 
ENDROOT
BRANCH   2   5
HETATM    5  C   UNL     1      -8.223  18.453  68.191  1.00  0.00    -0.287 A  
HETATM    6  C   UNL     1      -9.055  17.347  68.386  1.00  0.00    -0.274 A  
HETATM    7  C   UNL     1     -10.417  17.413  68.085  1.00  0.00    -0.389 A  
HETATM    8  C   UNL     1     -10.906  18.599  67.510  1.00  0.00    -0.373 A  
HETATM    9  C   UNL     1     -10.065  19.698  67.288  1.00  0.00    -0.534 A  
HETATM   10  C   UNL     1      -8.719  19.635  67.646  1.00  0.00    -0.372 A  
BRANCH   7  11
HETATM   11  C   UNL     1     -11.396  16.288  68.371  1.00  0.00    -0.312 C  
BRANCH  11  12
HETATM   12  CA  UNL     1     -11.081  15.259  69.479  1.00  0.00    -0.281 C  
HETATM   13  C   UNL     1     -12.291  15.090  70.421  1.00  0.00    -0.348 C  
HETATM   14  OXT UNL     1     -13.111  15.957  70.674  1.00  0.00    -0.467 OA 
HETATM   15  O   UNL     1     -12.347  13.871  71.007  1.00  0.00    -0.346 OA 
BRANCH  12  16
HETATM   16  N   UNL     1     -10.544  13.964  68.969  1.00  0.00    -0.368 N  
HETATM   17  C   UNL     1     -11.216  13.157  68.070  1.00  0.00    -0.277 C  
HETATM   18  H   UNL     1      -9.630  13.656  69.303  1.00  0.00     0.000 HD 
HETATM   19  O   UNL     1     -12.322  13.480  67.649  1.00  0.00    -0.248 OA 
BRANCH  17  20
HETATM   20  C   UNL     1     -10.533  11.930  67.525  1.00  0.00    -0.233 A  
HETATM   21  C   UNL     1     -10.585  10.726  68.262  1.00  0.00    -0.200 A  
HETATM   22 CL   UNL     1     -10.917  10.733  69.971  1.00  0.00    -0.314 Cl 
HETATM   23  C   UNL     1     -10.278   9.481  67.657  1.00  0.00    -0.273 A  
HETATM   24  C   UNL     1      -9.679   9.446  66.381  1.00  0.00    -0.315 A  
HETATM   25  C   UNL     1      -9.548  10.652  65.679  1.00  0.00    -0.268 A  
HETATM   26  C   UNL     1      -9.213   8.133  65.746  1.00  0.00    -0.034 C  
HETATM   27  C   UNL     1     -10.017  11.868  66.218  1.00  0.00    -0.220 A  
HETATM   28  N   UNL     1      -9.517   6.950  66.570  1.00  0.00    -0.169 N  
HETATM   29 CL   UNL     1      -9.976  13.229  65.148  1.00  0.00    -0.223 Cl 
HETATM   30  C   UNL     1     -10.785   7.059  67.275  1.00  0.00    -0.342 C  
HETATM   31  C   UNL     1      -8.454   6.146  67.000  1.00  0.00    -0.105 C  
HETATM   32  C   UNL     1     -10.643   8.164  68.324  1.00  0.00    -0.153 C  
HETATM   33  O   UNL     1      -7.289   6.385  66.676  1.00  0.00    -0.075 OA 
BRANCH  31  34
HETATM   34  C   UNL     1      -8.664   4.958  67.892  1.00  0.00    -0.106 A  
HETATM   35  C   UNL     1      -9.094   3.765  67.278  1.00  0.00    -0.181 A  
HETATM   36  C   UNL     1      -9.440   2.625  68.027  1.00  0.00    -0.205 A  
HETATM   37  C   UNL     1      -9.353   2.692  69.426  1.00  0.00    -0.183 A  
HETATM   38  C   UNL     1      -9.631   1.807  70.501  1.00  0.00    -0.128 A  
HETATM   39  C   UNL     1      -9.343   2.499  71.655  1.00  0.00    -0.119 A  
HETATM   40  O   UNL     1      -8.911   3.755  71.365  1.00  0.00    -0.090 OA 
HETATM   41  C   UNL     1      -8.924   3.881  70.006  1.00  0.00    -0.100 A  
HETATM   42  C   UNL     1      -8.584   5.035  69.291  1.00  0.00    -0.096 A  
ENDBRANCH  31  34
ENDBRANCH  17  20
ENDBRANCH  12  16
ENDBRANCH  11  12
ENDBRANCH   7  11
ENDBRANCH   2   5
TORSDOF 6
ENDMDL
MODEL       12
REMARK 921   NORMALIZED FREE ENERGY PREDICTED BY IDOCK:   -7.54 KCAL/MOL
REMARK 922        TOTAL FREE ENERGY PREDICTED BY IDOCK:  -10.80 KCAL/MOL
REMARK 923 INTER-LIGAND FREE ENERGY PREDICTED BY IDOCK:   -9.32 KCAL/MOL
REMARK 924 INTRA-LIGAND FREE ENERGY PREDICTED BY IDOCK:   -1.48 KCAL/MOL
REMARK 927      BINDING AFFINITY PREDICTED BY RF-SCORE:    0.00 PKD
ROOT
HETATM    1  C   UNL     1      -9.174   3.169  65.710  1.00  0.00    -0.138 C  
HETATM    2  S   UNL     1      -8.474   2.278  67.078  1.00  0.00    -0.102 S  
HETATM    3  O   UNL     1      -9.544   1.587  67.766  1.00  0.00    -0.124 OA 
HETATM    4  O   UNL     1      -7.310   1.559  66.594  1.00  0.00    -0.053 OA 
ENDROOT
BRANCH   2   5
HETATM    5  C   UNL     1      -7.912   3.542  68.194  1.00  0.00    -0.071 A  
HETATM    6  C   UNL     1      -8.673   3.784  69.341  1.00  0.00    -0.127 A  
HETATM    7  C   UNL     1      -8.212   4.646  70.339  1.00  0.00    -0.075 A  
HETATM    8  C   UNL     1      -6.996   5.317  70.117  1.00  0.00    -0.056 A  
HETATM    9  C   UNL     1      -6.247   5.094  68.954  1.00  0.00    -0.030 A  
HETATM   10  C   UNL     1      -6.695   4.189  67.993  1.00  0.00    -0.047 A  
BRANCH   7  11
HETATM   11  C   UNL     1      -8.936   4.873  71.654  1.00  0.00    -0.161 C  
BRANCH  11  12
HETATM   12  CA  UNL     1      -9.723   6.182  71.882  1.00  0.00    -0.152 C  
HETATM   13  C   UNL     1      -9.298   6.845  73.208  1.00  0.00    -0.145 C  
HETATM   14  OXT UNL     1      -8.897   6.250  74.195  1.00  0.00    -0.128 OA 
HETATM   15  O   UNL     1      -9.457   8.190  73.210  1.00  0.00    -0.270 OA 
BRANCH  12  16
HETATM   16  N   UNL     1      -9.695   7.117  70.719  1.00  0.00    -0.172 N  
HETATM   17  C   UNL     1     -10.724   7.227  69.802  1.00  0.00    -0.239 C  
HETATM   18  H   UNL     1      -8.872   7.706  70.593  1.00  0.00     0.000 HD 
HETATM   19  O   UNL     1     -11.728   6.532  69.905  1.00  0.00    -0.406 OA 
BRANCH  17  20
HETATM   20  C   UNL     1     -10.650   8.288  68.734  1.00  0.00    -0.152 A  
HETATM   21  C   UNL     1     -10.623   9.649  69.114  1.00  0.00    -0.220 A  
HETATM   22 CL   UNL     1     -11.209  10.157  70.673  1.00  0.00    -0.396 Cl 
HETATM   23  C   UNL     1     -10.207  10.656  68.208  1.00  0.00    -0.187 A  
HETATM   24  C   UNL     1     -10.047  10.352  66.840  1.00  0.00    -0.269 A  
HETATM   25  C   UNL     1     -10.155   9.011  66.445  1.00  0.00    -0.351 A  
HETATM   26  C   UNL     1      -9.725  11.435  65.807  1.00  0.00    -0.233 C  
HETATM   27  C   UNL     1     -10.399   7.988  67.384  1.00  0.00    -0.284 A  
HETATM   28  N   UNL     1      -9.544  12.770  66.403  1.00  0.00    -0.256 N  
HETATM   29 CL   UNL     1     -10.294   6.371  66.774  1.00  0.00    -0.279 Cl 
HETATM   30  C   UNL     1      -8.895  12.728  67.704  1.00  0.00    -0.189 C  
HETATM   31  C   UNL     1     -10.390  13.806  65.988  1.00  0.00    -0.308 C  
HETATM   32  C   UNL     1      -9.858  12.057  68.685  1.00  0.00    -0.126 C  
HETATM   33  O   UNL     1     -11.248  13.633  65.120  1.00  0.00    -0.298 OA 
BRANCH  31  34
HETATM   34  C   UNL     1     -10.318  15.180  66.584  1.00  0.00    -0.274 A  
HETATM   35  C   UNL     1     -11.004  15.389  67.797  1.00  0.00    -0.311 A  
HETATM   36  C   UNL     1     -11.108  16.663  68.384  1.00  0.00    -0.305 A  
HETATM   37  C   UNL     1     -10.510  17.751  67.731  1.00  0.00    -0.402 A  
HETATM   38  C   UNL     1     -10.418  19.149  67.969  1.00  0.00    -0.461 A  
HETATM   39  C   UNL     1      -9.692  19.670  66.923  1.00  0.00    -0.369 A  
HETATM   40  O   UNL     1      -9.333  18.690  66.052  1.00  0.00    -0.490 OA 
HETATM   41  C   UNL     1      -9.838  17.518  66.536  1.00  0.00    -0.310 A  
HETATM   42  C   UNL     1      -9.725  16.267  65.921  1.00  0.00    -0.354 A  
ENDBRANCH  31  34
ENDBRANCH  17  20
ENDBRANCH  12  16
ENDBRANCH  11  12
ENDBRANCH   7  11
ENDBRANCH   2   5
TORSDOF 6
ENDMDL
MODEL       13
REMARK 921   NORMALIZED FREE ENERGY PREDICTED BY IDOCK:   -7.42 KCAL/MOL
REMARK 922        TOTAL FREE ENERGY PREDICTED BY IDOCK:  -10.65 KCAL/MOL
REMARK 923 INTER-LIGAND FREE ENERGY PREDICTED BY IDOCK:  -10.99 KCAL/MOL
REMARK 924 INTRA-LIGAND FREE ENERGY PREDICTED BY IDOCK:    0.34 KCAL/MOL
REMARK 927      BINDING AFFINITY PREDICTED BY RF-SCORE:    0.00 PKD
ROOT
HETATM    1  C   UNL     1      -8.128  18.957  66.520  1.00  0.00    -0.287 C  
HETATM    2  S   UNL     1      -9.860  19.093  66.888  1.00  0.00    -0.361 S  
HETATM    3  O   UNL     1     -10.002  19.751  68.169  1.00  0.00    -0.393 OA 
HETATM    4  O   UNL     1     -10.528  19.606  65.706  1.00  0.00    -0.495 OA 
ENDROOT
BRANCH   2   5
HETATM    5  C   UNL     1     -10.397  17.418  67.137  1.00  0.00    -0.325 A  
HETATM    6  C   UNL     1     -10.462  16.580  66.019  1.00  0.00    -0.320 A  
HETATM    7  C   UNL     1     -10.721  15.215  66.161  1.00  0.00    -0.327 A  
HETATM    8  C   UNL     1     -10.988  14.727  67.452  1.00  0.00    -0.313 A  
HETATM    9  C   UNL     1     -10.951  15.573  68.568  1.00  0.00    -0.288 A  
HETATM   10  C   UNL     1     -10.637  16.923  68.417  1.00  0.00    -0.365 A  
BRANCH   7  11
HETATM   11  C   UNL     1     -10.700  14.233  65.003  1.00  0.00    -0.435 C  
BRANCH  11  12
HETATM   12  CA  UNL     1     -11.712  13.066  64.968  1.00  0.00    -0.339 C  
HETATM   13  C   UNL     1     -12.504  13.075  63.644  1.00  0.00    -0.315 C  
HETATM   14  OXT UNL     1     -12.769  14.070  62.991  1.00  0.00    -0.586 OA 
HETATM   15  O   UNL     1     -12.941  11.849  63.273  1.00  0.00    -0.707 OA 
BRANCH  12  16
HETATM   16  N   UNL     1     -11.116  11.736  65.291  1.00  0.00    -0.297 N  
HETATM   17  C   UNL     1     -10.036  11.198  64.616  1.00  0.00    -0.292 C  
HETATM   18  H   UNL     1     -11.528  11.195  66.051  1.00  0.00     0.000 HD 
HETATM   19  O   UNL     1      -9.514  11.807  63.689  1.00  0.00    -0.190 OA 
BRANCH  17  20
HETATM   20  C   UNL     1      -9.434   9.904  65.101  1.00  0.00    -0.338 A  
HETATM   21  C   UNL     1      -9.849   9.372  66.342  1.00  0.00    -0.269 A  
HETATM   22 CL   UNL     1     -10.587  10.384  67.552  1.00  0.00    -0.288 Cl 
HETATM   23  C   UNL     1      -9.595   8.019  66.682  1.00  0.00    -0.297 A  
HETATM   24  C   UNL     1      -8.713   7.248  65.897  1.00  0.00    -0.150 A  
HETATM   25  C   UNL     1      -8.232   7.805  64.704  1.00  0.00    -0.080 A  
HETATM   26  C   UNL     1      -8.311   5.827  66.300  1.00  0.00    -0.115 C  
HETATM   27  C   UNL     1      -8.628   9.091  64.285  1.00  0.00    -0.148 A  
HETATM   28  N   UNL     1      -8.985   5.357  67.522  1.00  0.00    -0.109 N  
HETATM   29 CL   UNL     1      -8.119   9.551  62.694  1.00  0.00    -0.124 Cl 
HETATM   30  C   UNL     1     -10.355   5.832  67.635  1.00  0.00    -0.217 C  
HETATM   31  C   UNL     1      -8.195   4.992  68.621  1.00  0.00    -0.085 C  
HETATM   32  C   UNL     1     -10.309   7.347  67.844  1.00  0.00    -0.258 C  
HETATM   33  O   UNL     1      -6.964   5.021  68.572  1.00  0.00    -0.054 OA 
BRANCH  31  34
HETATM   34  C   UNL     1      -8.796   4.561  69.926  1.00  0.00    -0.129 A  
HETATM   35  C   UNL     1      -9.026   3.182  70.101  1.00  0.00    -0.172 A  
HETATM   36  C   UNL     1      -9.695   2.675  71.230  1.00  0.00    -0.202 A  
HETATM   37  C   UNL     1     -10.146   3.581  72.202  1.00  0.00    -0.205 A  
HETATM   38  C   UNL     1     -10.863   3.480  73.424  1.00  0.00    -0.312 A  
HETATM   39  C   UNL     1     -10.999   4.765  73.897  1.00  0.00    -0.255 A  
HETATM   40  O   UNL     1     -10.419   5.654  73.047  1.00  0.00    -0.191 OA 
HETATM   41  C   UNL     1      -9.906   4.937  72.006  1.00  0.00    -0.177 A  
HETATM   42  C   UNL     1      -9.253   5.473  70.890  1.00  0.00    -0.179 A  
ENDBRANCH  31  34
ENDBRANCH  17  20
ENDBRANCH  12  16
ENDBRANCH  11  12
ENDBRANCH   7  11
ENDBRANCH   2   5
TORSDOF 6
ENDMDL
MODEL       14
REMARK 921   NORMALIZED FREE ENERGY PREDICTED BY IDOCK:   -7.26 KCAL/MOL
REMARK 922        TOTAL FREE ENERGY PREDICTED BY IDOCK:  -10.43 KCAL/MOL
REMARK 923 INTER-LIGAND FREE ENERGY PREDICTED BY IDOCK:  -10.46 KCAL/MOL
REMARK 924 INTRA-LIGAND FREE ENERGY PREDICTED BY IDOCK:    0.03 KCAL/MOL
REMARK 927      BINDING AFFINITY PREDICTED BY RF-SCORE:    0.00 PKD
ROOT
HETATM    1  C   UNL     1     -10.014   3.667  71.291  1.00  0.00    -0.074 C  
HETATM    2  S   UNL     1      -9.594   4.362  72.870  1.00  0.00    -0.134 S  
HETATM    3  O   UNL     1     -10.768   4.312  73.716  1.00  0.00    -0.209 OA 
HETATM    4  O   UNL     1      -8.339   3.772  73.298  1.00  0.00    -0.086 OA 
ENDROOT
BRANCH   2   5
HETATM    5  C   UNL     1      -9.305   6.084  72.540  1.00  0.00    -0.141 A  
HETATM    6  C   UNL     1      -9.721   6.590  71.305  1.00  0.00    -0.186 A  
HETATM    7  C   UNL     1      -9.672   7.960  71.038  1.00  0.00    -0.178 A  
HETATM    8  C   UNL     1      -9.121   8.801  72.021  1.00  0.00    -0.259 A  
HETATM    9  C   UNL     1      -8.678   8.290  73.247  1.00  0.00    -0.285 A  
HETATM   10  C   UNL     1      -8.784   6.926  73.519  1.00  0.00    -0.156 A  
BRANCH   7  11
HETATM   11  C   UNL     1     -10.206   8.586  69.762  1.00  0.00    -0.206 C  
BRANCH  11  12
HETATM   12  CA  UNL     1     -11.382   9.586  69.831  1.00  0.00    -0.126 C  
HETATM   13  C   UNL     1     -12.352   9.204  70.967  1.00  0.00    -0.214 C  
HETATM   14  OXT UNL     1     -12.553   8.069  71.368  1.00  0.00    -0.312 OA 
HETATM   15  O   UNL     1     -13.026  10.263  71.474  1.00  0.00    -0.381 OA 
BRANCH  12  16
HETATM   16  N   UNL     1     -10.959  11.017  69.870  1.00  0.00    -0.449 N  
HETATM   17  C   UNL     1     -11.348  11.955  68.932  1.00  0.00    -0.278 C  
HETATM   18  H   UNL     1     -10.350  11.319  70.630  1.00  0.00     0.000 HD 
HETATM   19  O   UNL     1     -12.071  11.637  67.994  1.00  0.00    -0.597 OA 
BRANCH  17  20
HETATM   20  C   UNL     1     -10.967  13.399  69.131  1.00  0.00    -0.213 A  
HETATM   21  C   UNL     1     -10.092  14.016  68.209  1.00  0.00    -0.246 A  
HETATM   22 CL   UNL     1      -9.035  13.067  67.202  1.00  0.00    -0.216 Cl 
HETATM   23  C   UNL     1      -9.977  15.427  68.137  1.00  0.00    -0.221 A  
HETATM   24  C   UNL     1     -10.545  16.233  69.145  1.00  0.00    -0.292 A  
HETATM   25  C   UNL     1     -11.347  15.613  70.113  1.00  0.00    -0.354 A  
HETATM   26  C   UNL     1     -10.335  17.749  69.176  1.00  0.00    -0.157 C  
HETATM   27  C   UNL     1     -11.599  14.227  70.076  1.00  0.00    -0.261 A  
HETATM   28  N   UNL     1      -9.555  18.251  68.032  1.00  0.00    -0.293 N  
HETATM   29 CL   UNL     1     -12.774  13.648  71.209  1.00  0.00    -0.435 Cl 
HETATM   30  C   UNL     1      -9.834  17.537  66.796  1.00  0.00    -0.306 C  
HETATM   31  C   UNL     1      -8.352  18.923  68.288  1.00  0.00    -0.330 C  
HETATM   32  C   UNL     1      -9.308  16.109  66.953  1.00  0.00    -0.245 C  
HETATM   33  O   UNL     1      -7.958  19.131  69.437  1.00  0.00    -0.123 OA 
BRANCH  31  34
HETATM   34  C   UNL     1      -7.463  19.414  67.184  1.00  0.00    -0.248 A  
HETATM   35  C   UNL     1      -7.003  20.742  67.275  1.00  0.00    -0.414 A  
HETATM   36  C   UNL     1      -6.266  21.348  66.241  1.00  0.00    -0.217 A  
HETATM   37  C   UNL     1      -5.991  20.598  65.088  1.00  0.00    -0.278 A  
HETATM   38  C   UNL     1      -5.331  20.843  63.854  1.00  0.00    -0.252 A  
HETATM   39  C   UNL     1      -5.421  19.676  63.130  1.00  0.00    -0.317 A  
HETATM   40  O   UNL     1      -6.098  18.727  63.832  1.00  0.00    -0.259 OA 
HETATM   41  C   UNL     1      -6.456  19.288  65.023  1.00  0.00    -0.221 A  
HETATM   42  C   UNL     1      -7.200  18.660  66.029  1.00  0.00    -0.293 A  
ENDBRANCH  31  34
ENDBRANCH  17  20
ENDBRANCH  12  16
ENDBRANCH  11  12
ENDBRANCH   7  11
ENDBRANCH   2   5
TORSDOF 6
ENDMDL
MODEL       15
REMARK 921   NORMALIZED FREE ENERGY PREDICTED BY IDOCK:   -7.20 KCAL/MOL
REMARK 922        TOTAL FREE ENERGY PREDICTED BY IDOCK:  -10.34 KCAL/MOL
REMARK 923 INTER-LIGAND FREE ENERGY PREDICTED BY IDOCK:   -9.20 KCAL/MOL
REMARK 924 INTRA-LIGAND FREE ENERGY PREDICTED BY IDOCK:   -1.14 KCAL/MOL
REMARK 927      BINDING AFFINITY PREDICTED BY RF-SCORE:    0.00 PKD
ROOT
HETATM    1  C   UNL     1      -6.949  10.086  63.221  1.00  0.00    -0.130 C  
HETATM    2  S   UNL     1      -7.689  10.043  64.835  1.00  0.00    -0.140 S  
HETATM    3  O   UNL     1      -6.733  10.567  65.787  1.00  0.00    -0.122 OA 
HETATM    4  O   UNL     1      -9.023  10.605  64.728  1.00  0.00    -0.190 OA 
ENDROOT
BRANCH   2   5
HETATM    5  C   UNL     1      -7.852   8.313  65.207  1.00  0.00    -0.120 A  
HETATM    6  C   UNL     1      -8.098   7.953  66.535  1.00  0.00    -0.107 A  
HETATM    7  C   UNL     1      -8.394   6.631  66.876  1.00  0.00    -0.114 A  
HETATM    8  C   UNL     1      -8.364   5.666  65.853  1.00  0.00    -0.128 A  
HETATM    9  C   UNL     1      -8.090   6.025  64.527  1.00  0.00    -0.126 A  
HETATM   10  C   UNL     1      -7.850   7.357  64.194  1.00  0.00    -0.120 A  
BRANCH   7  11
HETATM   11  C   UNL     1      -8.774   6.191  68.279  1.00  0.00    -0.114 C  
BRANCH  11  12
HETATM   12  CA  UNL     1     -10.252   6.233  68.723  1.00  0.00    -0.178 C  
HETATM   13  C   UNL     1     -10.501   5.236  69.873  1.00  0.00    -0.281 C  
HETATM   14  OXT UNL     1      -9.892   4.192  70.042  1.00  0.00    -0.217 OA 
HETATM   15  O   UNL     1     -11.522   5.598  70.685  1.00  0.00    -0.043 OA 
BRANCH  12  16
HETATM   16  N   UNL     1     -10.759   7.607  69.013  1.00  0.00    -0.371 N  
HETATM   17  C   UNL     1     -10.287   8.394  70.047  1.00  0.00    -0.211 C  
HETATM   18  H   UNL     1     -11.494   7.985  68.416  1.00  0.00     0.000 HD 
HETATM   19  O   UNL     1      -9.412   7.978  70.798  1.00  0.00    -0.160 OA 
BRANCH  17  20
HETATM   20  C   UNL     1     -10.780   9.812  70.178  1.00  0.00    -0.339 A  
HETATM   21  C   UNL     1     -10.112  10.842  69.478  1.00  0.00    -0.020 A  
HETATM   22 CL   UNL     1      -8.471  10.639  68.931  1.00  0.00    -0.148 Cl 
HETATM   23  C   UNL     1     -10.719  12.107  69.279  1.00  0.00    -0.031 A  
HETATM   24  C   UNL     1     -11.894  12.444  69.982  1.00  0.00    -0.363 A  
HETATM   25  C   UNL     1     -12.515  11.447  70.746  1.00  0.00    -0.460 A  
HETATM   26  C   UNL     1     -12.510  13.843  69.896  1.00  0.00    -0.229 C  
HETATM   27  C   UNL     1     -11.998  10.137  70.801  1.00  0.00    -0.348 A  
HETATM   28  N   UNL     1     -11.793  14.738  68.972  1.00  0.00    -0.307 N  
HETATM   29 CL   UNL     1     -12.990   8.972  71.610  1.00  0.00    -0.390 Cl 
HETATM   30  C   UNL     1     -11.277  14.049  67.799  1.00  0.00    -0.281 C  
HETATM   31  C   UNL     1     -11.247  15.924  69.479  1.00  0.00    -0.325 C  
HETATM   32  C   UNL     1     -10.172  13.099  68.264  1.00  0.00    -0.250 C  
HETATM   33  O   UNL     1     -11.385  16.246  70.661  1.00  0.00    -0.386 OA 
BRANCH  31  34
HETATM   34  C   UNL     1     -10.448  16.863  68.626  1.00  0.00    -0.352 A  
HETATM   35  C   UNL     1      -9.078  16.994  68.926  1.00  0.00    -0.208 A  
HETATM   36  C   UNL     1      -8.258  17.933  68.274  1.00  0.00    -0.292 A  
HETATM   37  C   UNL     1      -8.835  18.762  67.301  1.00  0.00    -0.287 A  
HETATM   38  C   UNL     1      -8.377  19.819  66.469  1.00  0.00    -0.373 A  
HETATM   39  C   UNL     1      -9.465  20.231  65.734  1.00  0.00     0.027 A  
HETATM   40  O   UNL     1     -10.567  19.504  66.060  1.00  0.00    -0.485 OA 
HETATM   41  C   UNL     1     -10.190  18.613  67.022  1.00  0.00    -0.381 A  
HETATM   42  C   UNL     1     -11.034  17.697  67.659  1.00  0.00    -0.103 A  
ENDBRANCH  31  34
ENDBRANCH  17  20
ENDBRANCH  12  16
ENDBRANCH  11  12
ENDBRANCH   7  11
ENDBRANCH   2   5
TORSDOF 6
ENDMDL
MODEL       16
REMARK 921   NORMALIZED FREE ENERGY PREDICTED BY IDOCK:   -7.17 KCAL/MOL
REMARK 922        TOTAL FREE ENERGY PREDICTED BY IDOCK:  -10.30 KCAL/MOL
REMARK 923 INTER-LIGAND FREE ENERGY PREDICTED BY IDOCK:   -8.97 KCAL/MOL
REMARK 924 INTRA-LIGAND FREE ENERGY PREDICTED BY IDOCK:   -1.33 KCAL/MOL
REMARK 927      BINDING AFFINITY PREDICTED BY RF-SCORE:    0.00 PKD
ROOT
HETATM    1  C   UNL     1     -14.380   7.724  71.226  1.00  0.00    -0.296 C  
HETATM    2  S   UNL     1     -13.122   8.835  71.806  1.00  0.00    -0.383 S  
HETATM    3  O   UNL     1     -12.940   9.874  70.814  1.00  0.00    -0.301 OA 
HETATM    4  O   UNL     1     -13.421   9.164  73.187  1.00  0.00    -0.183 OA 
ENDROOT
BRANCH   2   5
HETATM    5  C   UNL     1     -11.629   7.872  71.783  1.00  0.00    -0.278 A  
HETATM    6  C   UNL     1     -11.233   7.311  70.566  1.00  0.00    -0.305 A  
HETATM    7  C   UNL     1      -9.995   6.678  70.437  1.00  0.00    -0.193 A  
HETATM    8  C   UNL     1      -9.195   6.558  71.587  1.00  0.00    -0.143 A  
HETATM    9  C   UNL     1      -9.606   7.096  72.814  1.00  0.00    -0.183 A  
HETATM   10  C   UNL     1     -10.821   7.773  72.913  1.00  0.00    -0.453 A  
BRANCH   7  11
HETATM   11  C   UNL     1      -9.458   6.143  69.121  1.00  0.00    -0.144 C  
BRANCH  11  12
HETATM   12  CA  UNL     1      -9.134   7.119  67.969  1.00  0.00    -0.132 C  
HETATM   13  C   UNL     1     -10.356   7.290  67.044  1.00  0.00    -0.306 C  
HETATM   14  OXT UNL     1     -11.207   6.440  66.839  1.00  0.00    -0.368 OA 
HETATM   15  O   UNL     1     -10.387   8.488  66.413  1.00  0.00    -0.246 OA 
BRANCH  12  16
HETATM   16  N   UNL     1      -8.548   8.416  68.420  1.00  0.00    -0.138 N  
HETATM   17  C   UNL     1      -7.381   8.948  67.906  1.00  0.00    -0.084 C  
HETATM   18  H   UNL     1      -9.036   8.938  69.149  1.00  0.00     0.000 HD 
HETATM   19  O   UNL     1      -6.754   8.352  67.037  1.00  0.00    -0.061 OA 
BRANCH  17  20
HETATM   20  C   UNL     1      -6.941  10.321  68.342  1.00  0.00    -0.069 A  
HETATM   21  C   UNL     1      -7.612  11.456  67.834  1.00  0.00    -0.108 A  
HETATM   22 CL   UNL     1      -8.528  11.369  66.355  1.00  0.00    -0.174 Cl 
HETATM   23  C   UNL     1      -7.488  12.723  68.456  1.00  0.00    -0.120 A  
HETATM   24  C   UNL     1      -6.504  12.930  69.445  1.00  0.00    -0.091 A  
HETATM   25  C   UNL     1      -5.775  11.820  69.894  1.00  0.00    -0.122 A  
HETATM   26  C   UNL     1      -6.250  14.313  70.050  1.00  0.00    -0.157 C  
HETATM   27  C   UNL     1      -6.027  10.527  69.391  1.00  0.00    -0.039 A  
HETATM   28  N   UNL     1      -7.168  15.346  69.543  1.00  0.00    -0.197 N  
HETATM   29 CL   UNL     1      -5.198   9.235  70.193  1.00  0.00    -0.028 Cl 
HETATM   30  C   UNL     1      -8.512  14.845  69.304  1.00  0.00    -0.116 C  
HETATM   31  C   UNL     1      -6.625  16.458  68.887  1.00  0.00    -0.165 C  
HETATM   32  C   UNL     1      -8.443  13.862  68.134  1.00  0.00    -0.171 C  
HETATM   33  O   UNL     1      -5.408  16.604  68.760  1.00  0.00    -0.120 OA 
BRANCH  31  34
HETATM   34  C   UNL     1      -7.487  17.528  68.285  1.00  0.00    -0.237 A  
HETATM   35  C   UNL     1      -7.569  18.751  68.981  1.00  0.00    -0.256 A  
HETATM   36  C   UNL     1      -8.439  19.780  68.578  1.00  0.00    -0.269 A  
HETATM   37  C   UNL     1      -9.248  19.569  67.451  1.00  0.00    -0.393 A  
HETATM   38  C   UNL     1     -10.243  20.316  66.764  1.00  0.00    -0.497 A  
HETATM   39  C   UNL     1     -10.669  19.523  65.724  1.00  0.00    -0.393 A  
HETATM   40  O   UNL     1     -10.008  18.335  65.724  1.00  0.00    -0.540 OA 
HETATM   41  C   UNL     1      -9.147  18.354  66.782  1.00  0.00    -0.292 A  
HETATM   42  C   UNL     1      -8.300  17.307  67.162  1.00  0.00    -0.220 A  
ENDBRANCH  31  34
ENDBRANCH  17  20
ENDBRANCH  12  16
ENDBRANCH  11  12
ENDBRANCH   7  11
ENDBRANCH   2   5
TORSDOF 6
ENDMDL
MODEL       17
REMARK 921   NORMALIZED FREE ENERGY PREDICTED BY IDOCK:   -7.14 KCAL/MOL
REMARK 922        TOTAL FREE ENERGY PREDICTED BY IDOCK:  -10.26 KCAL/MOL
REMARK 923 INTER-LIGAND FREE ENERGY PREDICTED BY IDOCK:   -8.72 KCAL/MOL
REMARK 924 INTRA-LIGAND FREE ENERGY PREDICTED BY IDOCK:   -1.54 KCAL/MOL
REMARK 927      BINDING AFFINITY PREDICTED BY RF-SCORE:    0.00 PKD
ROOT
HETATM    1  C   UNL     1     -10.782  12.194  63.567  1.00  0.00    -0.457 C  
HETATM    2  S   UNL     1     -12.233  13.092  64.058  1.00  0.00    -0.400 S  
HETATM    3  O   UNL     1     -12.467  14.142  63.088  1.00  0.00    -0.678 OA 
HETATM    4  O   UNL     1     -13.268  12.127  64.379  1.00  0.00    -0.758 OA 
ENDROOT
BRANCH   2   5
HETATM    5  C   UNL     1     -11.765  13.914  65.562  1.00  0.00    -0.349 A  
HETATM    6  C   UNL     1     -10.963  15.055  65.460  1.00  0.00    -0.364 A  
HETATM    7  C   UNL     1     -10.689  15.840  66.582  1.00  0.00    -0.287 A  
HETATM    8  C   UNL     1     -11.180  15.405  67.825  1.00  0.00    -0.321 A  
HETATM    9  C   UNL     1     -11.960  14.245  67.931  1.00  0.00    -0.364 A  
HETATM   10  C   UNL     1     -12.271  13.502  66.792  1.00  0.00    -0.392 A  
BRANCH   7  11
HETATM   11  C   UNL     1      -9.916  17.146  66.523  1.00  0.00    -0.308 C  
BRANCH  11  12
HETATM   12  CA  UNL     1      -8.517  17.241  67.170  1.00  0.00    -0.205 C  
HETATM   13  C   UNL     1      -8.334  18.604  67.868  1.00  0.00    -0.272 C  
HETATM   14  OXT UNL     1      -8.868  19.646  67.526  1.00  0.00    -0.295 OA 
HETATM   15  O   UNL     1      -7.462  18.563  68.903  1.00  0.00    -0.291 OA 
BRANCH  12  16
HETATM   16  N   UNL     1      -8.172  16.079  68.041  1.00  0.00    -0.148 N  
HETATM   17  C   UNL     1      -7.078  15.262  67.829  1.00  0.00    -0.160 C  
HETATM   18  H   UNL     1      -8.777  15.877  68.837  1.00  0.00     0.000 HD 
HETATM   19  O   UNL     1      -6.328  15.459  66.879  1.00  0.00    -0.179 OA 
BRANCH  17  20
HETATM   20  C   UNL     1      -6.750  14.192  68.838  1.00  0.00    -0.103 A  
HETATM   21  C   UNL     1      -7.186  12.868  68.606  1.00  0.00    -0.098 A  
HETATM   22 CL   UNL     1      -8.510  12.534  67.526  1.00  0.00    -0.166 Cl 
HETATM   23  C   UNL     1      -6.624  11.775  69.314  1.00  0.00    -0.112 A  
HETATM   24  C   UNL     1      -5.798  12.010  70.432  1.00  0.00    -0.157 A  
HETATM   25  C   UNL     1      -5.429  13.332  70.716  1.00  0.00    -0.174 A  
HETATM   26  C   UNL     1      -5.275  10.863  71.302  1.00  0.00    -0.071 C  
HETATM   27  C   UNL     1      -5.854  14.401  69.901  1.00  0.00    -0.122 A  
HETATM   28  N   UNL     1      -5.670   9.533  70.807  1.00  0.00    -0.054 N  
HETATM   29 CL   UNL     1      -5.145  15.942  70.255  1.00  0.00    -0.134 Cl 
HETATM   30  C   UNL     1      -5.694   9.451  69.355  1.00  0.00    -0.034 C  
HETATM   31  C   UNL     1      -6.431   8.708  71.646  1.00  0.00    -0.072 C  
HETATM   32  C   UNL     1      -6.834  10.341  68.855  1.00  0.00    -0.059 C  
HETATM   33  O   UNL     1      -6.740   9.054  72.787  1.00  0.00    -0.317 OA 
BRANCH  31  34
HETATM   34  C   UNL     1      -6.929   7.364  71.203  1.00  0.00    -0.058 A  
HETATM   35  C   UNL     1      -5.997   6.307  71.192  1.00  0.00    -0.031 A  
HETATM   36  C   UNL     1      -6.318   5.037  70.682  1.00  0.00    -0.019 A  
HETATM   37  C   UNL     1      -7.606   4.828  70.167  1.00  0.00    -0.055 A  
HETATM   38  C   UNL     1      -8.289   3.743  69.555  1.00  0.00    -0.079 A  
HETATM   39  C   UNL     1      -9.553   4.200  69.261  1.00  0.00    -0.186 A  
HETATM   40  O   UNL     1      -9.696   5.497  69.646  1.00  0.00    -0.150 OA 
HETATM   41  C   UNL     1      -8.507   5.887  70.190  1.00  0.00    -0.126 A  
HETATM   42  C   UNL     1      -8.217   7.165  70.680  1.00  0.00    -0.117 A  
ENDBRANCH  31  34
ENDBRANCH  17  20
ENDBRANCH  12  16
ENDBRANCH  11  12
ENDBRANCH   7  11
ENDBRANCH   2   5
TORSDOF 6
ENDMDL
MODEL       18
REMARK 921   NORMALIZED FREE ENERGY PREDICTED BY IDOCK:   -7.00 KCAL/MOL
REMARK 922        TOTAL FREE ENERGY PREDICTED BY IDOCK:  -10.08 KCAL/MOL
REMARK 923 INTER-LIGAND FREE ENERGY PREDICTED BY IDOCK:   -9.30 KCAL/MOL
REMARK 924 INTRA-LIGAND FREE ENERGY PREDICTED BY IDOCK:   -0.78 KCAL/MOL
REMARK 927      BINDING AFFINITY PREDICTED BY RF-SCORE:    0.00 PKD
ROOT
HETATM    1  C   UNL     1     -10.456   7.633  72.757  1.00  0.00    -0.311 C  
HETATM    2  S   UNL     1     -11.309   6.272  72.000  1.00  0.00    -0.312 S  
HETATM    3  O   UNL     1     -11.784   5.394  73.048  1.00  0.00    -0.275 OA 
HETATM    4  O   UNL     1     -12.220   6.812  71.008  1.00  0.00    -0.377 OA 
ENDROOT
BRANCH   2   5
HETATM    5  C   UNL     1     -10.040   5.369  71.144  1.00  0.00    -0.212 A  
HETATM    6  C   UNL     1      -9.157   6.091  70.337  1.00  0.00    -0.156 A  
HETATM    7  C   UNL     1      -8.043   5.475  69.763  1.00  0.00    -0.101 A  
HETATM    8  C   UNL     1      -7.882   4.092  69.962  1.00  0.00    -0.051 A  
HETATM    9  C   UNL     1      -8.784   3.363  70.749  1.00  0.00    -0.126 A  
HETATM   10  C   UNL     1      -9.861   4.005  71.360  1.00  0.00    -0.249 A  
BRANCH   7  11
HETATM   11  C   UNL     1      -6.989   6.221  68.965  1.00  0.00    -0.068 C  
BRANCH  11  12
HETATM   12  CA  UNL     1      -7.385   6.949  67.662  1.00  0.00    -0.096 C  
HETATM   13  C   UNL     1      -8.083   5.977  66.689  1.00  0.00    -0.106 C  
HETATM   14  OXT UNL     1      -7.872   4.777  66.622  1.00  0.00    -0.097 OA 
HETATM   15  O   UNL     1      -8.948   6.590  65.847  1.00  0.00    -0.151 OA 
BRANCH  12  16
HETATM   16  N   UNL     1      -8.146   8.214  67.881  1.00  0.00    -0.126 N  
HETATM   17  C   UNL     1      -7.959   9.359  67.128  1.00  0.00    -0.102 C  
HETATM   18  H   UNL     1      -8.841   8.235  68.626  1.00  0.00     0.000 HD 
HETATM   19  O   UNL     1      -7.127   9.385  66.228  1.00  0.00    -0.086 OA 
BRANCH  17  20
HETATM   20  C   UNL     1      -8.865  10.543  67.351  1.00  0.00    -0.132 A  
HETATM   21  C   UNL     1      -8.313  11.844  67.347  1.00  0.00    -0.163 A  
HETATM   22 CL   UNL     1      -6.616  12.101  67.639  1.00  0.00    -0.101 Cl 
HETATM   23  C   UNL     1      -9.136  12.989  67.198  1.00  0.00    -0.225 A  
HETATM   24  C   UNL     1     -10.537  12.868  67.298  1.00  0.00    -0.243 A  
HETATM   25  C   UNL     1     -11.085  11.581  67.386  1.00  0.00    -0.339 A  
HETATM   26  C   UNL     1     -11.454  14.094  67.273  1.00  0.00    -0.350 C  
HETATM   27  C   UNL     1     -10.266  10.434  67.358  1.00  0.00    -0.214 A  
HETATM   28  N   UNL     1     -10.727  15.359  67.072  1.00  0.00    -0.317 N  
HETATM   29 CL   UNL     1     -11.101   8.919  67.262  1.00  0.00     0.110 Cl 
HETATM   30  C   UNL     1      -9.593  15.226  66.171  1.00  0.00    -0.321 C  
HETATM   31  C   UNL     1     -10.824  16.349  68.058  1.00  0.00    -0.342 C  
HETATM   32  C   UNL     1      -8.546  14.350  66.863  1.00  0.00    -0.191 C  
HETATM   33  O   UNL     1     -11.527  16.198  69.060  1.00  0.00    -0.347 OA 
BRANCH  31  34
HETATM   34  C   UNL     1     -10.070  17.642  67.967  1.00  0.00    -0.343 A  
HETATM   35  C   UNL     1     -10.652  18.670  67.198  1.00  0.00    -0.468 A  
HETATM   36  C   UNL     1      -9.981  19.879  66.941  1.00  0.00    -0.563 A  
HETATM   37  C   UNL     1      -8.692  20.054  67.469  1.00  0.00    -0.415 A  
HETATM   38  C   UNL     1      -7.705  21.075  67.414  1.00  0.00    -0.170 A  
HETATM   39  C   UNL     1      -6.634  20.614  68.145  1.00  0.00    -0.282 A  
HETATM   40  O   UNL     1      -6.891  19.375  68.643  1.00  0.00    -0.277 OA 
HETATM   41  C   UNL     1      -8.141  19.025  68.225  1.00  0.00    -0.324 A  
HETATM   42  C   UNL     1      -8.777  17.807  68.490  1.00  0.00    -0.284 A  
ENDBRANCH  31  34
ENDBRANCH  17  20
ENDBRANCH  12  16
ENDBRANCH  11  12
ENDBRANCH   7  11
ENDBRANCH   2   5
TORSDOF 6
ENDMDL
MODEL       19
REMARK 921   NORMALIZED FREE ENERGY PREDICTED BY IDOCK:   -6.98 KCAL/MOL
REMARK 922        TOTAL FREE ENERGY PREDICTED BY IDOCK:  -10.06 KCAL/MOL
REMARK 923 INTER-LIGAND FREE ENERGY PREDICTED BY IDOCK:   -9.58 KCAL/MOL
REMARK 924 INTRA-LIGAND FREE ENERGY PREDICTED BY IDOCK:   -0.47 KCAL/MOL
REMARK 927      BINDING AFFINITY PREDICTED BY RF-SCORE:    0.00 PKD
ROOT
HETATM    1  C   UNL     1      -5.439  16.465  69.299  1.00  0.00    -0.125 C  
HETATM    2  S   UNL     1      -6.087  15.101  68.364  1.00  0.00    -0.116 S  
HETATM    3  O   UNL     1      -5.738  15.297  66.972  1.00  0.00    -0.181 OA 
HETATM    4  O   UNL     1      -5.733  13.876  69.058  1.00  0.00    -0.078 OA 
ENDROOT
BRANCH   2   5
HETATM    5  C   UNL     1      -7.851  15.292  68.457  1.00  0.00    -0.134 A  
HETATM    6  C   UNL     1      -8.562  15.378  67.256  1.00  0.00    -0.216 A  
HETATM    7  C   UNL     1      -9.958  15.369  67.248  1.00  0.00    -0.226 A  
HETATM    8  C   UNL     1     -10.623  15.347  68.487  1.00  0.00    -0.240 A  
HETATM    9  C   UNL     1      -9.909  15.289  69.691  1.00  0.00    -0.224 A  
HETATM   10  C   UNL     1      -8.515  15.243  69.680  1.00  0.00    -0.101 A  
BRANCH   7  11
HETATM   11  C   UNL     1     -10.790  15.353  65.978  1.00  0.00    -0.315 C  
BRANCH  11  12
HETATM   12  CA  UNL     1     -11.679  14.132  65.657  1.00  0.00    -0.357 C  
HETATM   13  C   UNL     1     -12.343  14.292  64.274  1.00  0.00    -0.377 C  
HETATM   14  OXT UNL     1     -12.640  15.357  63.756  1.00  0.00    -0.678 OA 
HETATM   15  O   UNL     1     -12.625  13.112  63.675  1.00  0.00    -0.705 OA 
BRANCH  12  16
HETATM   16  N   UNL     1     -10.992  12.819  65.834  1.00  0.00    -0.270 N  
HETATM   17  C   UNL     1     -11.244  11.959  66.887  1.00  0.00    -0.325 C  
HETATM   18  H   UNL     1     -10.299  12.540  65.140  1.00  0.00     0.000 HD 
HETATM   19  O   UNL     1     -12.061  12.255  67.751  1.00  0.00    -0.478 OA 
BRANCH  17  20
HETATM   20  C   UNL     1     -10.586  10.604  66.906  1.00  0.00    -0.311 A  
HETATM   21  C   UNL     1     -10.648   9.823  68.082  1.00  0.00    -0.231 A  
HETATM   22 CL   UNL     1     -10.959  10.556  69.631  1.00  0.00    -0.302 Cl 
HETATM   23  C   UNL     1     -10.367   8.434  68.056  1.00  0.00    -0.270 A  
HETATM   24  C   UNL     1      -9.785   7.853  66.911  1.00  0.00    -0.285 A  
HETATM   25  C   UNL     1      -9.644   8.649  65.766  1.00  0.00    -0.134 A  
HETATM   26  C   UNL     1      -9.348   6.386  66.887  1.00  0.00    -0.134 C  
HETATM   27  C   UNL     1     -10.087   9.987  65.745  1.00  0.00    -0.250 A  
HETATM   28  N   UNL     1      -9.659   5.666  68.133  1.00  0.00    -0.111 N  
HETATM   29 CL   UNL     1     -10.040  10.769  64.201  1.00  0.00    -0.399 Cl 
HETATM   30  C   UNL     1     -10.916   6.086  68.733  1.00  0.00    -0.312 C  
HETATM   31  C   UNL     1      -8.603   5.097  68.858  1.00  0.00    -0.090 C  
HETATM   32  C   UNL     1     -10.744   7.527  69.218  1.00  0.00    -0.185 C  
HETATM   33  O   UNL     1      -7.439   5.155  68.458  1.00  0.00    -0.072 OA 
BRANCH  31  34
HETATM   34  C   UNL     1      -8.820   4.400  70.168  1.00  0.00    -0.126 A  
HETATM   35  C   UNL     1      -9.000   3.003  70.128  1.00  0.00    -0.170 A  
HETATM   36  C   UNL     1      -9.331   2.262  71.276  1.00  0.00    -0.198 A  
HETATM   37  C   UNL     1      -9.489   2.945  72.491  1.00  0.00    -0.168 A  
HETATM   38  C   UNL     1      -9.838   2.582  73.819  1.00  0.00    -0.142 A  
HETATM   39  C   UNL     1      -9.831   3.747  74.552  1.00  0.00    -0.142 A  
HETATM   40  O   UNL     1      -9.505   4.806  73.764  1.00  0.00    -0.123 OA 
HETATM   41  C   UNL     1      -9.305   4.324  72.504  1.00  0.00    -0.120 A  
HETATM   42  C   UNL     1      -8.986   5.092  71.378  1.00  0.00    -0.159 A  
ENDBRANCH  31  34
ENDBRANCH  17  20
ENDBRANCH  12  16
ENDBRANCH  11  12
ENDBRANCH   7  11
ENDBRANCH   2   5
TORSDOF 6
ENDMDL
MODEL       20
REMARK 921   NORMALIZED FREE ENERGY PREDICTED BY IDOCK:   -6.98 KCAL/MOL
REMARK 922        TOTAL FREE ENERGY PREDICTED BY IDOCK:  -10.05 KCAL/MOL
REMARK 923 INTER-LIGAND FREE ENERGY PREDICTED BY IDOCK:   -9.23 KCAL/MOL
REMARK 924 INTRA-LIGAND FREE ENERGY PREDICTED BY IDOCK:   -0.82 KCAL/MOL
REMARK 927      BINDING AFFINITY PREDICTED BY RF-SCORE:    0.00 PKD
ROOT
HETATM    1  C   UNL     1      -5.448  19.040  67.743  1.00  0.00    -0.173 C  
HETATM    2  S   UNL     1      -6.602  18.793  69.070  1.00  0.00    -0.289 S  
HETATM    3  O   UNL     1      -6.354  17.491  69.653  1.00  0.00    -0.248 OA 
HETATM    4  O   UNL     1      -6.602  19.991  69.889  1.00  0.00    -0.350 OA 
ENDROOT
BRANCH   2   5
HETATM    5  C   UNL     1      -8.185  18.677  68.272  1.00  0.00    -0.323 A  
HETATM    6  C   UNL     1      -9.047  17.654  68.678  1.00  0.00    -0.261 A  
HETATM    7  C   UNL     1     -10.362  17.598  68.211  1.00  0.00    -0.384 A  
HETATM    8  C   UNL     1     -10.766  18.556  67.265  1.00  0.00    -0.417 A  
HETATM    9  C   UNL     1      -9.892  19.564  66.837  1.00  0.00    -0.476 A  
HETATM   10  C   UNL     1      -8.599  19.640  67.354  1.00  0.00    -0.353 A  
BRANCH   7  11
HETATM   11  C   UNL     1     -11.380  16.578  68.692  1.00  0.00    -0.237 C  
BRANCH  11  12
HETATM   12  CA  UNL     1     -11.000  15.580  69.807  1.00  0.00    -0.294 C  
HETATM   13  C   UNL     1     -12.252  15.151  70.600  1.00  0.00    -0.351 C  
HETATM   14  OXT UNL     1     -13.243  15.841  70.775  1.00  0.00    -0.542 OA 
HETATM   15  O   UNL     1     -12.141  13.919  71.150  1.00  0.00    -0.344 OA 
BRANCH  12  16
HETATM   16  N   UNL     1     -10.177  14.428  69.335  1.00  0.00    -0.424 N  
HETATM   17  C   UNL     1     -10.390  13.776  68.135  1.00  0.00    -0.252 C  
HETATM   18  H   UNL     1      -9.415  14.104  69.931  1.00  0.00     0.000 HD 
HETATM   19  O   UNL     1     -11.300  14.123  67.390  1.00  0.00    -0.298 OA 
BRANCH  17  20
HETATM   20  C   UNL     1      -9.425  12.705  67.696  1.00  0.00    -0.189 A  
HETATM   21  C   UNL     1      -9.924  11.433  67.337  1.00  0.00    -0.186 A  
HETATM   22 CL   UNL     1     -11.485  10.892  67.886  1.00  0.00    -0.371 Cl 
HETATM   23  C   UNL     1      -9.134  10.517  66.596  1.00  0.00    -0.172 A  
HETATM   24  C   UNL     1      -7.757  10.759  66.416  1.00  0.00    -0.145 A  
HETATM   25  C   UNL     1      -7.240  11.988  66.848  1.00  0.00    -0.040 A  
HETATM   26  C   UNL     1      -6.842   9.737  65.737  1.00  0.00    -0.098 C  
HETATM   27  C   UNL     1      -8.070  12.968  67.429  1.00  0.00    -0.180 A  
HETATM   28  N   UNL     1      -7.561   8.546  65.252  1.00  0.00    -0.086 N  
HETATM   29 CL   UNL     1      -7.329  14.507  67.713  1.00  0.00    -0.168 Cl 
HETATM   30  C   UNL     1      -8.889   8.852  64.743  1.00  0.00    -0.086 C  
HETATM   31  C   UNL     1      -7.191   7.292  65.755  1.00  0.00    -0.070 C  
HETATM   32  C   UNL     1      -9.751   9.300  65.924  1.00  0.00    -0.355 C  
HETATM   33  O   UNL     1      -6.264   7.164  66.557  1.00  0.00    -0.037 OA 
BRANCH  31  34
HETATM   34  C   UNL     1      -7.908   6.034  65.366  1.00  0.00    -0.104 A  
HETATM   35  C   UNL     1      -8.569   5.329  66.391  1.00  0.00    -0.114 A  
HETATM   36  C   UNL     1      -9.169   4.077  66.168  1.00  0.00    -0.155 A  
HETATM   37  C   UNL     1      -9.098   3.521  64.882  1.00  0.00    -0.137 A  
HETATM   38  C   UNL     1      -9.532   2.312  64.275  1.00  0.00    -0.138 A  
HETATM   39  C   UNL     1      -9.130   2.374  62.961  1.00  0.00    -0.091 A  
HETATM   40  O   UNL     1      -8.472   3.538  62.715  1.00  0.00    -0.080 OA 
HETATM   41  C   UNL     1      -8.441   4.237  63.886  1.00  0.00    -0.108 A  
HETATM   42  C   UNL     1      -7.825   5.479  64.078  1.00  0.00    -0.104 A  
ENDBRANCH  31  34
ENDBRANCH  17  20
ENDBRANCH  12  16
ENDBRANCH  11  12
ENDBRANCH   7  11
ENDBRANCH   2   5
TORSDOF 6
ENDMDL
MODEL       21
REMARK 921   NORMALIZED FREE ENERGY PREDICTED BY IDOCK:   -6.68 KCAL/MOL
REMARK 922        TOTAL FREE ENERGY PREDICTED BY IDOCK:   -9.65 KCAL/MOL
REMARK 923 INTER-LIGAND FREE ENERGY PREDICTED BY IDOCK:   -9.06 KCAL/MOL
REMARK 924 INTRA-LIGAND FREE ENERGY PREDICTED BY IDOCK:   -0.59 KCAL/MOL
REMARK 927      BINDING AFFINITY PREDICTED BY RF-SCORE:    0.00 PKD
ROOT
HETATM    1  C   UNL     1      -7.032   4.523  62.336  1.00  0.00    -0.031 C  
HETATM    2  S   UNL     1      -6.682   5.415  63.832  1.00  0.00    -0.046 S  
HETATM    3  O   UNL     1      -5.537   4.800  64.470  1.00  0.00    -0.013 OA 
HETATM    4  O   UNL     1      -6.692   6.832  63.519  1.00  0.00    -0.041 OA 
ENDROOT
BRANCH   2   5
HETATM    5  C   UNL     1      -8.070   5.078  64.889  1.00  0.00    -0.112 A  
HETATM    6  C   UNL     1      -8.071   5.649  66.165  1.00  0.00    -0.108 A  
HETATM    7  C   UNL     1      -9.195   5.561  66.988  1.00  0.00    -0.116 A  
HETATM    8  C   UNL     1     -10.294   4.816  66.524  1.00  0.00    -0.284 A  
HETATM    9  C   UNL     1     -10.280   4.220  65.255  1.00  0.00    -0.234 A  
HETATM   10  C   UNL     1      -9.171   4.364  64.423  1.00  0.00    -0.149 A  
BRANCH   7  11
HETATM   11  C   UNL     1      -9.303   6.247  68.339  1.00  0.00    -0.113 C  
BRANCH  11  12
HETATM   12  CA  UNL     1     -10.682   6.390  69.020  1.00  0.00    -0.286 C  
HETATM   13  C   UNL     1     -10.748   5.526  70.297  1.00  0.00    -0.263 C  
HETATM   14  OXT UNL     1     -10.138   4.483  70.472  1.00  0.00    -0.222 OA 
HETATM   15  O   UNL     1     -11.606   6.007  71.226  1.00  0.00    -0.256 OA 
BRANCH  12  16
HETATM   16  N   UNL     1     -11.105   7.804  69.241  1.00  0.00    -0.435 N  
HETATM   17  C   UNL     1     -10.450   8.674  70.092  1.00  0.00    -0.217 C  
HETATM   18  H   UNL     1     -11.924   8.146  68.738  1.00  0.00     0.000 HD 
HETATM   19  O   UNL     1      -9.468   8.305  70.726  1.00  0.00    -0.155 OA 
BRANCH  17  20
HETATM   20  C   UNL     1     -10.885  10.116  70.150  1.00  0.00    -0.368 A  
HETATM   21  C   UNL     1     -10.140  11.091  69.450  1.00  0.00    -0.030 A  
HETATM   22 CL   UNL     1      -8.485  10.799  68.992  1.00  0.00    -0.152 Cl 
HETATM   23  C   UNL     1     -10.681  12.373  69.178  1.00  0.00    -0.081 A  
HETATM   24  C   UNL     1     -11.872  12.784  69.810  1.00  0.00    -0.380 A  
HETATM   25  C   UNL     1     -12.573  11.842  70.576  1.00  0.00    -0.212 A  
HETATM   26  C   UNL     1     -12.421  14.204  69.646  1.00  0.00    -0.161 C  
HETATM   27  C   UNL     1     -12.116  10.514  70.700  1.00  0.00    -0.356 A  
HETATM   28  N   UNL     1     -11.621  15.033  68.729  1.00  0.00    -0.319 N  
HETATM   29 CL   UNL     1     -13.196   9.421  71.499  1.00  0.00    -0.431 Cl 
HETATM   30  C   UNL     1     -11.081  14.282  67.608  1.00  0.00    -0.292 C  
HETATM   31  C   UNL     1     -11.049  16.213  69.223  1.00  0.00    -0.327 C  
HETATM   32  C   UNL     1     -10.042  13.303  68.158  1.00  0.00    -0.241 C  
HETATM   33  O   UNL     1     -11.230  16.583  70.385  1.00  0.00    -0.336 OA 
BRANCH  31  34
HETATM   34  C   UNL     1     -10.170  17.087  68.379  1.00  0.00    -0.331 A  
HETATM   35  C   UNL     1     -10.800  17.853  67.378  1.00  0.00    -0.218 A  
HETATM   36  C   UNL     1     -10.067  18.613  66.449  1.00  0.00    -0.435 A  
HETATM   37  C   UNL     1      -8.666  18.596  66.529  1.00  0.00    -0.312 A  
HETATM   38  C   UNL     1      -7.602  19.179  65.789  1.00  0.00    -0.156 A  
HETATM   39  C   UNL     1      -6.439  18.751  66.385  1.00  0.00    -0.196 A  
HETATM   40  O   UNL     1      -6.711  17.938  67.440  1.00  0.00    -0.171 OA 
HETATM   41  C   UNL     1      -8.069  17.833  67.526  1.00  0.00    -0.223 A  
HETATM   42  C   UNL     1      -8.768  17.058  68.458  1.00  0.00    -0.253 A  
ENDBRANCH  31  34
ENDBRANCH  17  20
ENDBRANCH  12  16
ENDBRANCH  11  12
ENDBRANCH   7  11
ENDBRANCH   2   5
TORSDOF 6
ENDMDL
MODEL       22
REMARK 921   NORMALIZED FREE ENERGY PREDICTED BY IDOCK:   -6.53 KCAL/MOL
REMARK 922        TOTAL FREE ENERGY PREDICTED BY IDOCK:   -9.45 KCAL/MOL
REMARK 923 INTER-LIGAND FREE ENERGY PREDICTED BY IDOCK:   -8.36 KCAL/MOL
REMARK 924 INTRA-LIGAND FREE ENERGY PREDICTED BY IDOCK:   -1.09 KCAL/MOL
REMARK 927      BINDING AFFINITY PREDICTED BY RF-SCORE:    0.00 PKD
ROOT
HETATM    1  C   UNL     1     -11.138  19.486  67.212  1.00  0.00    -0.166 C  
HETATM    2  S   UNL     1     -10.393  18.140  66.325  1.00  0.00    -0.353 S  
HETATM    3  O   UNL     1     -10.602  16.924  67.084  1.00  0.00    -0.313 OA 
HETATM    4  O   UNL     1     -10.809  18.236  64.938  1.00  0.00    -0.619 OA 
ENDROOT
BRANCH   2   5
HETATM    5  C   UNL     1      -8.648  18.466  66.398  1.00  0.00    -0.247 A  
HETATM    6  C   UNL     1      -7.803  17.416  66.767  1.00  0.00    -0.273 A  
HETATM    7  C   UNL     1      -6.415  17.553  66.692  1.00  0.00    -0.252 A  
HETATM    8  C   UNL     1      -5.898  18.802  66.307  1.00  0.00    -0.185 A  
HETATM    9  C   UNL     1      -6.746  19.863  65.963  1.00  0.00    -0.258 A  
HETATM   10  C   UNL     1      -8.130  19.693  65.991  1.00  0.00    -0.322 A  
BRANCH   7  11
HETATM   11  C   UNL     1      -5.443  16.421  66.976  1.00  0.00    -0.033 C  
BRANCH  11  12
HETATM   12  CA  UNL     1      -5.558  15.622  68.293  1.00  0.00    -0.114 C  
HETATM   13  C   UNL     1      -5.659  16.578  69.499  1.00  0.00    -0.157 C  
HETATM   14  OXT UNL     1      -5.163  17.692  69.557  1.00  0.00    -0.166 OA 
HETATM   15  O   UNL     1      -6.325  16.046  70.550  1.00  0.00     0.092 OA 
BRANCH  12  16
HETATM   16  N   UNL     1      -6.623  14.576  68.278  1.00  0.00    -0.107 N  
HETATM   17  C   UNL     1      -6.460  13.328  67.707  1.00  0.00    -0.159 C  
HETATM   18  H   UNL     1      -7.520  14.795  68.711  1.00  0.00     0.000 HD 
HETATM   19  O   UNL     1      -5.404  13.023  67.165  1.00  0.00    -0.344 OA 
BRANCH  17  20
HETATM   20  C   UNL     1      -7.554  12.302  67.854  1.00  0.00    -0.127 A  
HETATM   21  C   UNL     1      -7.359  11.203  68.720  1.00  0.00    -0.114 A  
HETATM   22 CL   UNL     1      -5.758  10.700  69.186  1.00  0.00    -0.041 Cl 
HETATM   23  C   UNL     1      -8.451  10.416  69.165  1.00  0.00    -0.168 A  
HETATM   24  C   UNL     1      -9.717  10.560  68.560  1.00  0.00    -0.170 A  
HETATM   25  C   UNL     1      -9.893  11.599  67.636  1.00  0.00    -0.195 A  
HETATM   26  C   UNL     1     -10.889   9.643  68.919  1.00  0.00    -0.174 C  
HETATM   27  C   UNL     1      -8.844  12.490  67.327  1.00  0.00    -0.195 A  
HETATM   28  N   UNL     1     -10.565   8.674  69.980  1.00  0.00    -0.224 N  
HETATM   29 CL   UNL     1      -9.277  13.841  66.334  1.00  0.00    -0.211 Cl 
HETATM   30  C   UNL     1      -9.672   9.217  70.992  1.00  0.00    -0.289 C  
HETATM   31  C   UNL     1     -10.674   7.307  69.691  1.00  0.00    -0.236 C  
HETATM   32  C   UNL     1      -8.311   9.456  70.336  1.00  0.00    -0.234 C  
HETATM   33  O   UNL     1     -11.067   6.907  68.594  1.00  0.00    -0.175 OA 
BRANCH  31  34
HETATM   34  C   UNL     1     -10.306   6.250  70.690  1.00  0.00    -0.254 A  
HETATM   35  C   UNL     1      -9.122   5.526  70.448  1.00  0.00    -0.164 A  
HETATM   36  C   UNL     1      -8.742   4.432  71.247  1.00  0.00    -0.135 A  
HETATM   37  C   UNL     1      -9.576   4.059  72.311  1.00  0.00    -0.203 A  
HETATM   38  C   UNL     1      -9.567   3.034  73.294  1.00  0.00    -0.134 A  
HETATM   39  C   UNL     1     -10.703   3.213  74.049  1.00  0.00    -0.201 A  
HETATM   40  O   UNL     1     -11.417   4.278  73.595  1.00  0.00    -0.242 OA 
HETATM   41  C   UNL     1     -10.739   4.791  72.529  1.00  0.00    -0.176 A  
HETATM   42  C   UNL     1     -11.151   5.876  71.747  1.00  0.00    -0.324 A  
ENDBRANCH  31  34
ENDBRANCH  17  20
ENDBRANCH  12  16
ENDBRANCH  11  12
ENDBRANCH   7  11
ENDBRANCH   2   5
TORSDOF 6
ENDMDL
MODEL       23
REMARK 921   NORMALIZED FREE ENERGY PREDICTED BY IDOCK:   -6.53 KCAL/MOL
REMARK 922        TOTAL FREE ENERGY PREDICTED BY IDOCK:   -9.44 KCAL/MOL
REMARK 923 INTER-LIGAND FREE ENERGY PREDICTED BY IDOCK:   -8.48 KCAL/MOL
REMARK 924 INTRA-LIGAND FREE ENERGY PREDICTED BY IDOCK:   -0.96 KCAL/MOL
REMARK 927      BINDING AFFINITY PREDICTED BY RF-SCORE:    0.00 PKD
ROOT
HETATM    1  C   UNL     1     -12.739  15.051  73.021  1.00  0.00    -0.456 C  
HETATM    2  S   UNL     1     -13.328  14.465  71.451  1.00  0.00    -0.346 S  
HETATM    3  O   UNL     1     -13.519  13.033  71.543  1.00  0.00    -0.273 OA 
HETATM    4  O   UNL     1     -14.406  15.337  71.026  1.00  0.00    -0.374 OA 
ENDROOT
BRANCH   2   5
HETATM    5  C   UNL     1     -11.960  14.704  70.342  1.00  0.00    -0.311 A  
HETATM    6  C   UNL     1     -12.211  14.619  68.970  1.00  0.00    -0.199 A  
HETATM    7  C   UNL     1     -11.224  14.951  68.039  1.00  0.00    -0.318 A  
HETATM    8  C   UNL     1      -9.952  15.300  68.526  1.00  0.00    -0.222 A  
HETATM    9  C   UNL     1      -9.694  15.358  69.902  1.00  0.00    -0.154 A  
HETATM   10  C   UNL     1     -10.706  15.077  70.819  1.00  0.00    -0.029 A  
BRANCH   7  11
HETATM   11  C   UNL     1     -11.461  14.982  66.539  1.00  0.00    -0.239 C  
BRANCH  11  12
HETATM   12  CA  UNL     1     -12.258  13.845  65.864  1.00  0.00    -0.467 C  
HETATM   13  C   UNL     1     -12.647  14.237  64.424  1.00  0.00    -0.167 C  
HETATM   14  OXT UNL     1     -12.851  15.376  64.036  1.00  0.00    -0.577 OA 
HETATM   15  O   UNL     1     -12.797  13.173  63.600  1.00  0.00    -0.656 OA 
BRANCH  12  16
HETATM   16  N   UNL     1     -11.603  12.507  65.956  1.00  0.00    -0.384 N  
HETATM   17  C   UNL     1     -10.349  12.233  65.444  1.00  0.00    -0.269 C  
HETATM   18  H   UNL     1     -12.109  11.753  66.421  1.00  0.00     0.000 HD 
HETATM   19  O   UNL     1      -9.707  13.104  64.867  1.00  0.00    -0.060 OA 
BRANCH  17  20
HETATM   20  C   UNL     1      -9.728  10.884  65.697  1.00  0.00    -0.279 A  
HETATM   21  C   UNL     1      -9.576  10.432  67.028  1.00  0.00    -0.166 A  
HETATM   22 CL   UNL     1      -9.565  11.553  68.360  1.00  0.00    -0.192 Cl 
HETATM   23  C   UNL     1      -9.334   9.066  67.316  1.00  0.00    -0.172 A  
HETATM   24  C   UNL     1      -8.998   8.175  66.277  1.00  0.00    -0.215 A  
HETATM   25  C   UNL     1      -9.065   8.642  64.957  1.00  0.00     0.023 A  
HETATM   26  C   UNL     1      -8.603   6.722  66.558  1.00  0.00    -0.128 C  
HETATM   27  C   UNL     1      -9.476   9.960  64.668  1.00  0.00    -0.278 A  
HETATM   28  N   UNL     1      -8.682   6.365  67.985  1.00  0.00    -0.116 N  
HETATM   29 CL   UNL     1      -9.713  10.320  62.991  1.00  0.00    -0.295 Cl 
HETATM   30  C   UNL     1      -9.789   7.011  68.672  1.00  0.00    -0.148 C  
HETATM   31  C   UNL     1      -7.517   5.925  68.628  1.00  0.00    -0.086 C  
HETATM   32  C   UNL     1      -9.497   8.511  68.723  1.00  0.00    -0.143 C  
HETATM   33  O   UNL     1      -6.452   5.798  68.021  1.00  0.00    -0.040 OA 
BRANCH  31  34
HETATM   34  C   UNL     1      -7.490   5.599  70.091  1.00  0.00    -0.077 A  
HETATM   35  C   UNL     1      -8.485   4.725  70.572  1.00  0.00    -0.106 A  
HETATM   36  C   UNL     1      -8.633   4.445  71.942  1.00  0.00    -0.121 A  
HETATM   37  C   UNL     1      -7.759   5.063  72.849  1.00  0.00    -0.097 A  
HETATM   38  C   UNL     1      -7.602   5.070  74.261  1.00  0.00    -0.090 A  
HETATM   39  C   UNL     1      -6.545   5.909  74.527  1.00  0.00    -0.076 A  
HETATM   40  O   UNL     1      -6.041   6.426  73.375  1.00  0.00    -0.060 OA 
HETATM   41  C   UNL     1      -6.785   5.921  72.349  1.00  0.00    -0.072 A  
HETATM   42  C   UNL     1      -6.618   6.229  70.994  1.00  0.00    -0.050 A  
ENDBRANCH  31  34
ENDBRANCH  17  20
ENDBRANCH  12  16
ENDBRANCH  11  12
ENDBRANCH   7  11
ENDBRANCH   2   5
TORSDOF 6
ENDMDL
MODEL       24
REMARK 921   NORMALIZED FREE ENERGY PREDICTED BY IDOCK:   -6.42 KCAL/MOL
REMARK 922        TOTAL FREE ENERGY PREDICTED BY IDOCK:   -9.30 KCAL/MOL
REMARK 923 INTER-LIGAND FREE ENERGY PREDICTED BY IDOCK:   -8.49 KCAL/MOL
REMARK 924 INTRA-LIGAND FREE ENERGY PREDICTED BY IDOCK:   -0.81 KCAL/MOL
REMARK 927      BINDING AFFINITY PREDICTED BY RF-SCORE:    0.00 PKD
ROOT
HETATM    1  C   UNL     1      -9.960   8.401  72.805  1.00  0.00    -0.215 C  
HETATM    2  S   UNL     1      -8.715   7.555  73.747  1.00  0.00    -0.246 S  
HETATM    3  O   UNL     1      -7.857   8.547  74.361  1.00  0.00    -0.332 OA 
HETATM    4  O   UNL     1      -9.374   6.539  74.546  1.00  0.00    -0.193 OA 
ENDROOT
BRANCH   2   5
HETATM    5  C   UNL     1      -7.716   6.732  72.530  1.00  0.00    -0.096 A  
HETATM    6  C   UNL     1      -8.173   6.720  71.210  1.00  0.00    -0.119 A  
HETATM    7  C   UNL     1      -7.369   6.234  70.177  1.00  0.00    -0.085 A  
HETATM    8  C   UNL     1      -6.119   5.688  70.518  1.00  0.00    -0.026 A  
HETATM    9  C   UNL     1      -5.673   5.675  71.847  1.00  0.00    -0.022 A  
HETATM   10  C   UNL     1      -6.465   6.215  72.859  1.00  0.00    -0.064 A  
BRANCH   7  11
HETATM   11  C   UNL     1      -7.761   6.289  68.711  1.00  0.00    -0.100 C  
BRANCH  11  12
HETATM   12  CA  UNL     1      -9.173   6.768  68.310  1.00  0.00    -0.122 C  
HETATM   13  C   UNL     1     -10.241   5.760  68.783  1.00  0.00    -0.195 C  
HETATM   14  OXT UNL     1     -10.068   4.559  68.907  1.00  0.00    -0.117 OA 
HETATM   15  O   UNL     1     -11.449   6.327  69.013  1.00  0.00    -0.363 OA 
BRANCH  12  16
HETATM   16  N   UNL     1      -9.472   8.175  68.708  1.00  0.00    -0.147 N  
HETATM   17  C   UNL     1     -10.086   9.092  67.875  1.00  0.00    -0.197 C  
HETATM   18  H   UNL     1      -9.208   8.478  69.646  1.00  0.00     0.000 HD 
HETATM   19  O   UNL     1     -10.411   8.778  66.735  1.00  0.00    -0.275 OA 
BRANCH  17  20
HETATM   20  C   UNL     1     -10.453  10.450  68.415  1.00  0.00    -0.216 A  
HETATM   21  C   UNL     1      -9.883  11.602  67.830  1.00  0.00    -0.179 A  
HETATM   22 CL   UNL     1      -8.406  11.507  66.911  1.00  0.00    -0.161 Cl 
HETATM   23  C   UNL     1     -10.440  12.888  68.047  1.00  0.00    -0.237 A  
HETATM   24  C   UNL     1     -11.420  13.072  69.043  1.00  0.00    -0.353 A  
HETATM   25  C   UNL     1     -11.930  11.936  69.687  1.00  0.00    -0.365 A  
HETATM   26  C   UNL     1     -11.954  14.462  69.399  1.00  0.00    -0.328 C  
HETATM   27  C   UNL     1     -11.493  10.641  69.341  1.00  0.00    -0.286 A  
HETATM   28  N   UNL     1     -11.390  15.533  68.560  1.00  0.00    -0.333 N  
HETATM   29 CL   UNL     1     -12.366   9.335  70.071  1.00  0.00     0.458 Cl 
HETATM   30  C   UNL     1     -11.172  15.121  67.183  1.00  0.00    -0.320 C  
HETATM   31  C   UNL     1     -10.680  16.566  69.185  1.00  0.00    -0.335 C  
HETATM   32  C   UNL     1     -10.054  14.076  67.179  1.00  0.00    -0.259 C  
HETATM   33  O   UNL     1     -10.550  16.615  70.410  1.00  0.00    -0.036 OA 
BRANCH  31  34
HETATM   34  C   UNL     1     -10.019  17.664  68.405  1.00  0.00    -0.356 A  
HETATM   35  C   UNL     1     -10.836  18.412  67.533  1.00  0.00    -0.304 A  
HETATM   36  C   UNL     1     -10.306  19.382  66.664  1.00  0.00    -0.555 A  
HETATM   37  C   UNL     1      -8.921  19.600  66.671  1.00  0.00    -0.419 A  
HETATM   38  C   UNL     1      -8.023  20.434  65.952  1.00  0.00    -0.008 A  
HETATM   39  C   UNL     1      -6.766  20.154  66.435  1.00  0.00    -0.221 A  
HETATM   40  O   UNL     1      -6.825  19.198  67.400  1.00  0.00    -0.202 OA 
HETATM   41  C   UNL     1      -8.137  18.851  67.541  1.00  0.00    -0.260 A  
HETATM   42  C   UNL     1      -8.631  17.871  68.411  1.00  0.00    -0.296 A  
ENDBRANCH  31  34
ENDBRANCH  17  20
ENDBRANCH  12  16
ENDBRANCH  11  12
ENDBRANCH   7  11
ENDBRANCH   2   5
TORSDOF 6
ENDMDL
MODEL       25
REMARK 921   NORMALIZED FREE ENERGY PREDICTED BY IDOCK:   -6.39 KCAL/MOL
REMARK 922        TOTAL FREE ENERGY PREDICTED BY IDOCK:   -9.25 KCAL/MOL
REMARK 923 INTER-LIGAND FREE ENERGY PREDICTED BY IDOCK:   -8.58 KCAL/MOL
REMARK 924 INTRA-LIGAND FREE ENERGY PREDICTED BY IDOCK:   -0.67 KCAL/MOL
REMARK 927      BINDING AFFINITY PREDICTED BY RF-SCORE:    0.00 PKD
ROOT
HETATM    1  C   UNL     1     -10.289   8.253  66.836  1.00  0.00    -0.320 C  
HETATM    2  S   UNL     1      -8.803   8.098  65.875  1.00  0.00    -0.135 S  
HETATM    3  O   UNL     1      -7.702   8.630  66.651  1.00  0.00    -0.094 OA 
HETATM    4  O   UNL     1      -8.757   6.750  65.339  1.00  0.00    -0.099 OA 
ENDROOT
BRANCH   2   5
HETATM    5  C   UNL     1      -9.029   9.220  64.516  1.00  0.00    -0.136 A  
HETATM    6  C   UNL     1      -9.853  10.331  64.718  1.00  0.00    -0.403 A  
HETATM    7  C   UNL     1      -9.951  11.335  63.752  1.00  0.00    -0.388 A  
HETATM    8  C   UNL     1      -9.255  11.155  62.544  1.00  0.00    -0.317 A  
HETATM    9  C   UNL     1      -8.451  10.027  62.331  1.00  0.00    -0.180 A  
HETATM   10  C   UNL     1      -8.321   9.060  63.327  1.00  0.00    -0.189 A  
BRANCH   7  11
HETATM   11  C   UNL     1     -10.741  12.617  63.951  1.00  0.00    -0.465 C  
BRANCH  11  12
HETATM   12  CA  UNL     1     -10.701  13.341  65.314  1.00  0.00    -0.311 C  
HETATM   13  C   UNL     1     -12.130  13.648  65.807  1.00  0.00    -0.428 C  
HETATM   14  OXT UNL     1     -13.092  13.858  65.085  1.00  0.00    -0.773 OA 
HETATM   15  O   UNL     1     -12.229  13.719  67.155  1.00  0.00    -0.391 OA 
BRANCH  12  16
HETATM   16  N   UNL     1      -9.858  12.658  66.339  1.00  0.00    -0.254 N  
HETATM   17  C   UNL     1      -9.052  13.331  67.238  1.00  0.00    -0.221 C  
HETATM   18  H   UNL     1      -9.877  11.639  66.378  1.00  0.00     0.000 HD 
HETATM   19  O   UNL     1      -8.987  14.555  67.222  1.00  0.00    -0.189 OA 
BRANCH  17  20
HETATM   20  C   UNL     1      -8.335  12.553  68.311  1.00  0.00    -0.167 A  
HETATM   21  C   UNL     1      -8.961  11.421  68.878  1.00  0.00    -0.006 A  
HETATM   22 CL   UNL     1     -10.688  11.213  68.793  1.00  0.00    -0.215 Cl 
HETATM   23  C   UNL     1      -8.219  10.464  69.616  1.00  0.00    -0.099 A  
HETATM   24  C   UNL     1      -6.894  10.747  70.006  1.00  0.00    -0.126 A  
HETATM   25  C   UNL     1      -6.295  11.914  69.512  1.00  0.00    -0.122 A  
HETATM   26  C   UNL     1      -6.102   9.800  70.911  1.00  0.00    -0.089 C  
HETATM   27  C   UNL     1      -6.985  12.776  68.635  1.00  0.00    -0.101 A  
HETATM   28  N   UNL     1      -6.840   8.573  71.255  1.00  0.00    -0.061 N  
HETATM   29 CL   UNL     1      -6.043  14.057  67.948  1.00  0.00    -0.151 Cl 
HETATM   30  C   UNL     1      -7.670   8.084  70.165  1.00  0.00    -0.087 C  
HETATM   31  C   UNL     1      -7.093   8.302  72.606  1.00  0.00    -0.097 C  
HETATM   32  C   UNL     1      -8.796   9.095  69.944  1.00  0.00    -0.176 C  
HETATM   33  O   UNL     1      -6.683   9.043  73.502  1.00  0.00    -0.335 OA 
BRANCH  31  34
HETATM   34  C   UNL     1      -7.889   7.110  73.045  1.00  0.00    -0.109 A  
HETATM   35  C   UNL     1      -7.166   5.990  73.502  1.00  0.00    -0.085 A  
HETATM   36  C   UNL     1      -7.799   4.775  73.823  1.00  0.00    -0.098 A  
HETATM   37  C   UNL     1      -9.191   4.687  73.676  1.00  0.00    -0.114 A  
HETATM   38  C   UNL     1     -10.166   3.669  73.856  1.00  0.00    -0.207 A  
HETATM   39  C   UNL     1     -11.377   4.232  73.521  1.00  0.00    -0.226 A  
HETATM   40  O   UNL     1     -11.214   5.528  73.140  1.00  0.00    -0.286 OA 
HETATM   41  C   UNL     1      -9.881   5.807  73.224  1.00  0.00    -0.165 A  
HETATM   42  C   UNL     1      -9.282   7.025  72.886  1.00  0.00    -0.162 A  
ENDBRANCH  31  34
ENDBRANCH  17  20
ENDBRANCH  12  16
ENDBRANCH  11  12
ENDBRANCH   7  11
ENDBRANCH   2   5
TORSDOF 6
ENDMDL
MODEL       26
REMARK 921   NORMALIZED FREE ENERGY PREDICTED BY IDOCK:   -6.35 KCAL/MOL
REMARK 922        TOTAL FREE ENERGY PREDICTED BY IDOCK:   -9.21 KCAL/MOL
REMARK 923 INTER-LIGAND FREE ENERGY PREDICTED BY IDOCK:   -9.48 KCAL/MOL
REMARK 924 INTRA-LIGAND FREE ENERGY PREDICTED BY IDOCK:    0.28 KCAL/MOL
REMARK 927      BINDING AFFINITY PREDICTED BY RF-SCORE:    0.00 PKD
ROOT
HETATM    1  C   UNL     1     -10.793   3.156  73.805  1.00  0.00    -0.217 C  
HETATM    2  S   UNL     1      -9.522   3.999  72.895  1.00  0.00    -0.126 S  
HETATM    3  O   UNL     1      -8.701   4.734  73.835  1.00  0.00    -0.106 OA 
HETATM    4  O   UNL     1      -8.931   3.050  71.970  1.00  0.00    -0.083 OA 
ENDROOT
BRANCH   2   5
HETATM    5  C   UNL     1     -10.389   5.224  71.944  1.00  0.00    -0.215 A  
HETATM    6  C   UNL     1     -10.203   5.227  70.559  1.00  0.00    -0.334 A  
HETATM    7  C   UNL     1     -10.970   6.052  69.734  1.00  0.00    -0.471 A  
HETATM    8  C   UNL     1     -11.879   6.932  70.347  1.00  0.00    -0.351 A  
HETATM    9  C   UNL     1     -12.045   6.949  71.738  1.00  0.00    -0.385 A  
HETATM   10  C   UNL     1     -11.311   6.079  72.544  1.00  0.00    -0.344 A  
BRANCH   7  11
HETATM   11  C   UNL     1     -10.893   6.028  68.217  1.00  0.00    -0.366 C  
BRANCH  11  12
HETATM   12  CA  UNL     1      -9.517   5.975  67.518  1.00  0.00    -0.112 C  
HETATM   13  C   UNL     1      -9.657   5.414  66.089  1.00  0.00    -0.153 C  
HETATM   14  OXT UNL     1     -10.503   4.612  65.728  1.00  0.00    -0.285 OA 
HETATM   15  O   UNL     1      -8.700   5.860  65.242  1.00  0.00    -0.144 OA 
BRANCH  12  16
HETATM   16  N   UNL     1      -8.757   7.259  67.577  1.00  0.00    -0.121 N  
HETATM   17  C   UNL     1      -9.345   8.503  67.441  1.00  0.00    -0.148 C  
HETATM   18  H   UNL     1      -7.749   7.216  67.725  1.00  0.00     0.000 HD 
HETATM   19  O   UNL     1     -10.552   8.605  67.251  1.00  0.00    -0.291 OA 
BRANCH  17  20
HETATM   20  C   UNL     1      -8.507   9.739  67.639  1.00  0.00    -0.122 A  
HETATM   21  C   UNL     1      -9.069  11.006  67.361  1.00  0.00    -0.141 A  
HETATM   22 CL   UNL     1     -10.450  11.164  66.312  1.00  0.00    -0.303 Cl 
HETATM   23  C   UNL     1      -8.474  12.196  67.849  1.00  0.00    -0.163 A  
HETATM   24  C   UNL     1      -7.182  12.159  68.411  1.00  0.00    -0.097 A  
HETATM   25  C   UNL     1      -6.584  10.907  68.612  1.00  0.00    -0.057 A  
HETATM   26  C   UNL     1      -6.450  13.437  68.832  1.00  0.00    -0.103 C  
HETATM   27  C   UNL     1      -7.257   9.713  68.282  1.00  0.00    -0.079 A  
HETATM   28  N   UNL     1      -7.257  14.655  68.648  1.00  0.00    -0.114 N  
HETATM   29 CL   UNL     1      -6.478   8.250  68.784  1.00  0.00    -0.052 Cl 
HETATM   30  C   UNL     1      -8.670  14.448  68.925  1.00  0.00    -0.067 C  
HETATM   31  C   UNL     1      -6.770  15.657  67.798  1.00  0.00    -0.159 C  
HETATM   32  C   UNL     1      -9.227  13.518  67.846  1.00  0.00    -0.211 C  
HETATM   33  O   UNL     1      -5.677  15.555  67.239  1.00  0.00    -0.336 OA 
BRANCH  31  34
HETATM   34  C   UNL     1      -7.552  16.902  67.504  1.00  0.00    -0.184 A  
HETATM   35  C   UNL     1      -7.367  17.995  68.375  1.00  0.00    -0.263 A  
HETATM   36  C   UNL     1      -8.134  19.169  68.270  1.00  0.00    -0.367 A  
HETATM   37  C   UNL     1      -9.114  19.241  67.268  1.00  0.00    -0.346 A  
HETATM   38  C   UNL     1     -10.083  20.199  66.865  1.00  0.00    -0.592 A  
HETATM   39  C   UNL     1     -10.755  19.642  65.802  1.00  0.00    -0.392 A  
HETATM   40  O   UNL     1     -10.271  18.402  65.523  1.00  0.00    -0.522 OA 
HETATM   41  C   UNL     1      -9.276  18.149  66.422  1.00  0.00    -0.255 A  
HETATM   42  C   UNL     1      -8.536  16.964  66.505  1.00  0.00    -0.305 A  
ENDBRANCH  31  34
ENDBRANCH  17  20
ENDBRANCH  12  16
ENDBRANCH  11  12
ENDBRANCH   7  11
ENDBRANCH   2   5
TORSDOF 6
ENDMDL
MODEL       27
REMARK 921   NORMALIZED FREE ENERGY PREDICTED BY IDOCK:   -6.32 KCAL/MOL
REMARK 922        TOTAL FREE ENERGY PREDICTED BY IDOCK:   -9.15 KCAL/MOL
REMARK 923 INTER-LIGAND FREE ENERGY PREDICTED BY IDOCK:   -7.68 KCAL/MOL
REMARK 924 INTRA-LIGAND FREE ENERGY PREDICTED BY IDOCK:   -1.48 KCAL/MOL
REMARK 927      BINDING AFFINITY PREDICTED BY RF-SCORE:    0.00 PKD
ROOT
HETATM    1  C   UNL     1     -10.033   4.909  70.046  1.00  0.00    -0.253 C  
HETATM    2  S   UNL     1      -8.823   3.647  70.359  1.00  0.00    -0.094 S  
HETATM    3  O   UNL     1      -7.911   4.133  71.373  1.00  0.00    -0.073 OA 
HETATM    4  O   UNL     1      -9.524   2.388  70.526  1.00  0.00    -0.136 OA 
ENDROOT
BRANCH   2   5
HETATM    5  C   UNL     1      -7.877   3.553  68.858  1.00  0.00    -0.051 A  
HETATM    6  C   UNL     1      -8.429   4.114  67.702  1.00  0.00    -0.103 A  
HETATM    7  C   UNL     1      -7.680   4.218  66.528  1.00  0.00    -0.094 A  
HETATM    8  C   UNL     1      -6.384   3.674  66.525  1.00  0.00    -0.036 A  
HETATM    9  C   UNL     1      -5.842   3.086  67.675  1.00  0.00    -0.023 A  
HETATM   10  C   UNL     1      -6.583   3.039  68.856  1.00  0.00    -0.033 A  
BRANCH   7  11
HETATM   11  C   UNL     1      -8.180   4.910  65.272  1.00  0.00    -0.122 C  
BRANCH  11  12
HETATM   12  CA  UNL     1      -7.715   6.347  64.950  1.00  0.00    -0.104 C  
HETATM   13  C   UNL     1      -7.562   6.539  63.428  1.00  0.00    -0.085 C  
HETATM   14  OXT UNL     1      -7.265   5.660  62.635  1.00  0.00    -0.043 OA 
HETATM   15  O   UNL     1      -7.742   7.819  63.028  1.00  0.00    -0.118 OA 
BRANCH  12  16
HETATM   16  N   UNL     1      -8.537   7.411  65.600  1.00  0.00    -0.237 N  
HETATM   17  C   UNL     1      -8.218   7.990  66.814  1.00  0.00    -0.111 C  
HETATM   18  H   UNL     1      -9.381   7.727  65.122  1.00  0.00     0.000 HD 
HETATM   19  O   UNL     1      -7.220   7.635  67.430  1.00  0.00    -0.082 OA 
BRANCH  17  20
HETATM   20  C   UNL     1      -9.047   9.141  67.322  1.00  0.00    -0.143 A  
HETATM   21  C   UNL     1      -8.579  10.461  67.142  1.00  0.00    -0.130 A  
HETATM   22 CL   UNL     1      -6.891  10.786  66.863  1.00  0.00    -0.093 Cl 
HETATM   23  C   UNL     1      -9.449  11.573  67.273  1.00  0.00    -0.176 A  
HETATM   24  C   UNL     1     -10.735  11.400  67.825  1.00  0.00    -0.254 A  
HETATM   25  C   UNL     1     -11.173  10.094  68.085  1.00  0.00    -0.245 A  
HETATM   26  C   UNL     1     -11.657  12.590  68.104  1.00  0.00    -0.340 C  
HETATM   27  C   UNL     1     -10.364   8.978  67.788  1.00  0.00    -0.246 A  
HETATM   28  N   UNL     1     -11.087  13.879  67.679  1.00  0.00    -0.270 N  
HETATM   29 CL   UNL     1     -11.124   7.432  67.967  1.00  0.00    -0.012 Cl 
HETATM   30  C   UNL     1     -10.305  13.780  66.457  1.00  0.00    -0.286 C  
HETATM   31  C   UNL     1     -10.895  14.876  68.646  1.00  0.00    -0.251 C  
HETATM   32  C   UNL     1      -9.056  12.952  66.766  1.00  0.00    -0.211 C  
HETATM   33  O   UNL     1     -11.226  14.709  69.821  1.00  0.00    -0.260 OA 
BRANCH  31  34
HETATM   34  C   UNL     1     -10.264  16.195  68.316  1.00  0.00    -0.248 A  
HETATM   35  C   UNL     1      -8.922  16.379  68.705  1.00  0.00    -0.245 A  
HETATM   36  C   UNL     1      -8.266  17.614  68.558  1.00  0.00    -0.292 A  
HETATM   37  C   UNL     1      -8.981  18.690  68.010  1.00  0.00    -0.324 A  
HETATM   38  C   UNL     1      -8.702  20.056  67.735  1.00  0.00    -0.367 A  
HETATM   39  C   UNL     1      -9.855  20.583  67.199  1.00  0.00    -0.426 A  
HETATM   40  O   UNL     1     -10.829  19.637  67.130  1.00  0.00    -0.484 OA 
HETATM   41  C   UNL     1     -10.303  18.482  67.633  1.00  0.00    -0.410 A  
HETATM   42  C   UNL     1     -10.988  17.270  67.775  1.00  0.00    -0.163 A  
ENDBRANCH  31  34
ENDBRANCH  17  20
ENDBRANCH  12  16
ENDBRANCH  11  12
ENDBRANCH   7  11
ENDBRANCH   2   5
TORSDOF 6
ENDMDL
MODEL       28
REMARK 921   NORMALIZED FREE ENERGY PREDICTED BY IDOCK:   -6.30 KCAL/MOL
REMARK 922        TOTAL FREE ENERGY PREDICTED BY IDOCK:   -9.13 KCAL/MOL
REMARK 923 INTER-LIGAND FREE ENERGY PREDICTED BY IDOCK:   -8.11 KCAL/MOL
REMARK 924 INTRA-LIGAND FREE ENERGY PREDICTED BY IDOCK:   -1.02 KCAL/MOL
REMARK 927      BINDING AFFINITY PREDICTED BY RF-SCORE:    0.00 PKD
ROOT
HETATM    1  C   UNL     1     -10.187   2.914  74.405  1.00  0.00    -0.154 C  
HETATM    2  S   UNL     1     -10.376   3.945  72.971  1.00  0.00    -0.172 S  
HETATM    3  O   UNL     1     -10.179   3.126  71.793  1.00  0.00    -0.106 OA 
HETATM    4  O   UNL     1     -11.585   4.729  73.142  1.00  0.00    -0.305 OA 
ENDROOT
BRANCH   2   5
HETATM    5  C   UNL     1      -8.990   5.055  73.031  1.00  0.00    -0.115 A  
HETATM    6  C   UNL     1      -8.041   4.969  72.008  1.00  0.00    -0.112 A  
HETATM    7  C   UNL     1      -7.015   5.910  71.902  1.00  0.00    -0.081 A  
HETATM    8  C   UNL     1      -6.923   6.898  72.899  1.00  0.00    -0.074 A  
HETATM    9  C   UNL     1      -7.858   6.966  73.940  1.00  0.00    -0.118 A  
HETATM   10  C   UNL     1      -8.910   6.052  74.000  1.00  0.00    -0.126 A  
BRANCH   7  11
HETATM   11  C   UNL     1      -6.016   5.938  70.759  1.00  0.00    -0.029 C  
BRANCH  11  12
HETATM   12  CA  UNL     1      -6.512   6.151  69.311  1.00  0.00    -0.043 C  
HETATM   13  C   UNL     1      -7.025   4.825  68.714  1.00  0.00    -0.052 C  
HETATM   14  OXT UNL     1      -6.616   3.715  69.012  1.00  0.00    -0.038 OA 
HETATM   15  O   UNL     1      -7.970   4.998  67.760  1.00  0.00    -0.094 OA 
BRANCH  12  16
HETATM   16  N   UNL     1      -7.476   7.280  69.161  1.00  0.00    -0.091 N  
HETATM   17  C   UNL     1      -7.452   8.171  68.104  1.00  0.00    -0.097 C  
HETATM   18  H   UNL     1      -8.193   7.401  69.876  1.00  0.00     0.000 HD 
HETATM   19  O   UNL     1      -6.603   8.073  67.225  1.00  0.00    -0.055 OA 
BRANCH  17  20
HETATM   20  C   UNL     1      -8.546   9.201  67.982  1.00  0.00    -0.125 A  
HETATM   21  C   UNL     1      -8.207  10.572  67.993  1.00  0.00    -0.112 A  
HETATM   22 CL   UNL     1      -6.701  11.120  68.674  1.00  0.00    -0.058 Cl 
HETATM   23  C   UNL     1      -9.120  11.557  67.538  1.00  0.00    -0.166 A  
HETATM   24  C   UNL     1     -10.466  11.213  67.297  1.00  0.00    -0.263 A  
HETATM   25  C   UNL     1     -10.825   9.860  67.366  1.00  0.00    -0.293 A  
HETATM   26  C   UNL     1     -11.512  12.269  66.929  1.00  0.00    -0.356 C  
HETATM   27  C   UNL     1      -9.870   8.863  67.651  1.00  0.00    -0.182 A  
HETATM   28  N   UNL     1     -10.950  13.624  66.798  1.00  0.00    -0.290 N  
HETATM   29 CL   UNL     1     -10.421   7.229  67.492  1.00  0.00    -0.308 Cl 
HETATM   30  C   UNL     1      -9.613  13.631  66.224  1.00  0.00    -0.239 C  
HETATM   31  C   UNL     1     -11.444  14.635  67.632  1.00  0.00    -0.346 C  
HETATM   32  C   UNL     1      -8.668  12.977  67.234  1.00  0.00    -0.209 C  
HETATM   33  O   UNL     1     -12.353  14.425  68.436  1.00  0.00    -0.203 OA 
BRANCH  31  34
HETATM   34  C   UNL     1     -10.888  16.028  67.610  1.00  0.00    -0.311 A  
HETATM   35  C   UNL     1     -10.670  16.650  68.856  1.00  0.00    -0.337 A  
HETATM   36  C   UNL     1     -10.268  17.994  68.957  1.00  0.00    -0.262 A  
HETATM   37  C   UNL     1     -10.086  18.729  67.776  1.00  0.00    -0.417 A  
HETATM   38  C   UNL     1      -9.730  20.067  67.460  1.00  0.00    -0.539 A  
HETATM   39  C   UNL     1      -9.742  20.155  66.087  1.00  0.00    -0.366 A  
HETATM   40  O   UNL     1     -10.086  18.962  65.532  1.00  0.00    -0.389 OA 
HETATM   41  C   UNL     1     -10.306  18.091  66.559  1.00  0.00    -0.373 A  
HETATM   42  C   UNL     1     -10.716  16.760  66.424  1.00  0.00    -0.105 A  
ENDBRANCH  31  34
ENDBRANCH  17  20
ENDBRANCH  12  16
ENDBRANCH  11  12
ENDBRANCH   7  11
ENDBRANCH   2   5
TORSDOF 6
ENDMDL
MODEL       29
REMARK 921   NORMALIZED FREE ENERGY PREDICTED BY IDOCK:   -6.25 KCAL/MOL
REMARK 922        TOTAL FREE ENERGY PREDICTED BY IDOCK:   -9.06 KCAL/MOL
REMARK 923 INTER-LIGAND FREE ENERGY PREDICTED BY IDOCK:   -7.88 KCAL/MOL
REMARK 924 INTRA-LIGAND FREE ENERGY PREDICTED BY IDOCK:   -1.18 KCAL/MOL
REMARK 927      BINDING AFFINITY PREDICTED BY RF-SCORE:    0.00 PKD
ROOT
HETATM    1  C   UNL     1      -9.444   9.224  65.734  1.00  0.00    -0.262 C  
HETATM    2  S   UNL     1      -7.987   8.394  65.152  1.00  0.00    -0.144 S  
HETATM    3  O   UNL     1      -8.394   7.175  64.484  1.00  0.00    -0.047 OA 
HETATM    4  O   UNL     1      -7.155   9.373  64.477  1.00  0.00    -0.094 OA 
ENDROOT
BRANCH   2   5
HETATM    5  C   UNL     1      -7.142   7.882  66.629  1.00  0.00    -0.076 A  
HETATM    6  C   UNL     1      -7.672   6.804  67.344  1.00  0.00    -0.110 A  
HETATM    7  C   UNL     1      -6.979   6.247  68.420  1.00  0.00    -0.080 A  
HETATM    8  C   UNL     1      -5.770   6.853  68.807  1.00  0.00    -0.018 A  
HETATM    9  C   UNL     1      -5.253   7.952  68.108  1.00  0.00    -0.032 A  
HETATM   10  C   UNL     1      -5.931   8.461  67.001  1.00  0.00    -0.053 A  
BRANCH   7  11
HETATM   11  C   UNL     1      -7.445   5.013  69.171  1.00  0.00    -0.061 C  
BRANCH  11  12
HETATM   12  CA  UNL     1      -8.949   4.812  69.460  1.00  0.00    -0.093 C  
HETATM   13  C   UNL     1      -9.149   3.801  70.608  1.00  0.00    -0.111 C  
HETATM   14  OXT UNL     1      -8.397   2.877  70.871  1.00  0.00    -0.055 OA 
HETATM   15  O   UNL     1     -10.297   3.997  71.300  1.00  0.00    -0.037 OA 
BRANCH  12  16
HETATM   16  N   UNL     1      -9.704   6.084  69.654  1.00  0.00    -0.149 N  
HETATM   17  C   UNL     1      -9.469   6.963  70.695  1.00  0.00    -0.165 C  
HETATM   18  H   UNL     1     -10.435   6.318  68.981  1.00  0.00     0.000 HD 
HETATM   19  O   UNL     1      -8.608   6.719  71.533  1.00  0.00    -0.120 OA 
BRANCH  17  20
HETATM   20  C   UNL     1     -10.203   8.278  70.730  1.00  0.00    -0.219 A  
HETATM   21  C   UNL     1      -9.600   9.421  70.159  1.00  0.00    -0.238 A  
HETATM   22 CL   UNL     1      -7.877   9.502  69.918  1.00  0.00    -0.119 Cl 
HETATM   23  C   UNL     1     -10.362  10.576  69.849  1.00  0.00    -0.164 A  
HETATM   24  C   UNL     1     -11.683  10.698  70.328  1.00  0.00    -0.433 A  
HETATM   25  C   UNL     1     -12.258   9.594  70.971  1.00  0.00    -0.409 A  
HETATM   26  C   UNL     1     -12.495  11.980  70.127  1.00  0.00    -0.048 C  
HETATM   27  C   UNL     1     -11.550   8.384  71.121  1.00  0.00    -0.279 A  
HETATM   28  N   UNL     1     -11.782  13.004  69.345  1.00  0.00    -0.312 N  
HETATM   29 CL   UNL     1     -12.465   7.051  71.742  1.00  0.00    -0.388 Cl 
HETATM   30  C   UNL     1     -10.958  12.439  68.287  1.00  0.00    -0.236 C  
HETATM   31  C   UNL     1     -11.538  14.249  69.939  1.00  0.00    -0.276 C  
HETATM   32  C   UNL     1      -9.813  11.670  68.947  1.00  0.00    -0.057 C  
HETATM   33  O   UNL     1     -11.936  14.513  71.075  1.00  0.00    -0.316 OA 
BRANCH  31  34
HETATM   34  C   UNL     1     -10.766  15.328  69.241  1.00  0.00    -0.252 A  
HETATM   35  C   UNL     1      -9.367  15.329  69.413  1.00  0.00    -0.228 A  
HETATM   36  C   UNL     1      -8.555  16.360  68.908  1.00  0.00    -0.250 A  
HETATM   37  C   UNL     1      -9.167  17.416  68.217  1.00  0.00    -0.271 A  
HETATM   38  C   UNL     1      -8.722  18.618  67.603  1.00  0.00    -0.288 A  
HETATM   39  C   UNL     1      -9.846  19.234  67.104  1.00  0.00    -0.339 A  
HETATM   40  O   UNL     1     -10.957  18.497  67.372  1.00  0.00    -0.376 OA 
HETATM   41  C   UNL     1     -10.549  17.391  68.060  1.00  0.00    -0.389 A  
HETATM   42  C   UNL     1     -11.386  16.387  68.559  1.00  0.00    -0.289 A  
ENDBRANCH  31  34
ENDBRANCH  17  20
ENDBRANCH  12  16
ENDBRANCH  11  12
ENDBRANCH   7  11
ENDBRANCH   2   5
TORSDOF 6
ENDMDL
MODEL       30
REMARK 921   NORMALIZED FREE ENERGY PREDICTED BY IDOCK:   -6.20 KCAL/MOL
REMARK 922        TOTAL FREE ENERGY PREDICTED BY IDOCK:   -9.00 KCAL/MOL
REMARK 923 INTER-LIGAND FREE ENERGY PREDICTED BY IDOCK:   -8.33 KCAL/MOL
REMARK 924 INTRA-LIGAND FREE ENERGY PREDICTED BY IDOCK:   -0.67 KCAL/MOL
REMARK 927      BINDING AFFINITY PREDICTED BY RF-SCORE:    0.00 PKD
ROOT
HETATM    1  C   UNL     1     -12.751   6.655  71.581  1.00  0.00    -0.228 C  
HETATM    2  S   UNL     1     -12.122   8.287  71.889  1.00  0.00    -0.356 S  
HETATM    3  O   UNL     1     -12.521   9.143  70.791  1.00  0.00    -0.170 OA 
HETATM    4  O   UNL     1     -12.438   8.636  73.261  1.00  0.00     0.118 OA 
ENDROOT
BRANCH   2   5
HETATM    5  C   UNL     1     -10.358   8.119  71.759  1.00  0.00    -0.230 A  
HETATM    6  C   UNL     1      -9.817   7.872  70.494  1.00  0.00    -0.186 A  
HETATM    7  C   UNL     1      -8.436   7.886  70.290  1.00  0.00    -0.128 A  
HETATM    8  C   UNL     1      -7.607   8.081  71.409  1.00  0.00    -0.081 A  
HETATM    9  C   UNL     1      -8.150   8.301  72.682  1.00  0.00    -0.211 A  
HETATM   10  C   UNL     1      -9.533   8.339  72.860  1.00  0.00    -0.321 A  
BRANCH   7  11
HETATM   11  C   UNL     1      -7.787   7.731  68.925  1.00  0.00    -0.122 C  
BRANCH  11  12
HETATM   12  CA  UNL     1      -8.575   8.111  67.653  1.00  0.00    -0.130 C  
HETATM   13  C   UNL     1      -9.795   7.185  67.474  1.00  0.00    -0.151 C  
HETATM   14  OXT UNL     1      -9.859   6.026  67.851  1.00  0.00    -0.112 OA 
HETATM   15  O   UNL     1     -10.814   7.764  66.796  1.00  0.00    -0.254 OA 
BRANCH  12  16
HETATM   16  N   UNL     1      -8.916   9.562  67.561  1.00  0.00    -0.125 N  
HETATM   17  C   UNL     1      -8.767  10.311  66.409  1.00  0.00    -0.135 C  
HETATM   18  H   UNL     1      -9.279  10.025  68.394  1.00  0.00     0.000 HD 
HETATM   19  O   UNL     1      -8.325   9.800  65.386  1.00  0.00    -0.129 OA 
BRANCH  17  20
HETATM   20  C   UNL     1      -9.256  11.736  66.388  1.00  0.00    -0.223 A  
HETATM   21  C   UNL     1      -8.458  12.748  66.967  1.00  0.00    -0.153 A  
HETATM   22 CL   UNL     1      -7.240  12.365  68.150  1.00  0.00    -0.091 Cl 
HETATM   23  C   UNL     1      -8.684  14.117  66.675  1.00  0.00    -0.073 A  
HETATM   24  C   UNL     1      -9.857  14.510  66.000  1.00  0.00    -0.342 A  
HETATM   25  C   UNL     1     -10.697  13.508  65.496  1.00  0.00    -0.293 A  
HETATM   26  C   UNL     1     -10.203  15.985  65.779  1.00  0.00    -0.377 C  
HETATM   27  C   UNL     1     -10.375  12.143  65.639  1.00  0.00    -0.257 A  
HETATM   28  N   UNL     1      -9.167  16.906  66.279  1.00  0.00    -0.275 N  
HETATM   29 CL   UNL     1     -11.396  11.037  64.782  1.00  0.00     0.053 Cl 
HETATM   30  C   UNL     1      -7.817  16.395  66.098  1.00  0.00    -0.022 C  
HETATM   31  C   UNL     1      -9.521  17.837  67.264  1.00  0.00    -0.255 C  
HETATM   32  C   UNL     1      -7.651  15.181  67.015  1.00  0.00    -0.121 C  
HETATM   33  O   UNL     1     -10.675  17.924  67.688  1.00  0.00    -0.399 OA 
BRANCH  31  34
HETATM   34  C   UNL     1      -8.519  18.771  67.875  1.00  0.00    -0.316 A  
HETATM   35  C   UNL     1      -8.175  19.917  67.131  1.00  0.00    -0.351 A  
HETATM   36  C   UNL     1      -7.160  20.798  67.546  1.00  0.00    -0.397 A  
HETATM   37  C   UNL     1      -6.473  20.513  68.735  1.00  0.00    -0.271 A  
HETATM   38  C   UNL     1      -5.403  21.110  69.455  1.00  0.00    -0.306 A  
HETATM   39  C   UNL     1      -5.191  20.316  70.558  1.00  0.00    -0.263 A  
HETATM   40  O   UNL     1      -6.054  19.266  70.567  1.00  0.00    -0.187 OA 
HETATM   41  C   UNL     1      -6.831  19.376  69.451  1.00  0.00    -0.307 A  
HETATM   42  C   UNL     1      -7.829  18.475  69.061  1.00  0.00    -0.153 A  
ENDBRANCH  31  34
ENDBRANCH  17  20
ENDBRANCH  12  16
ENDBRANCH  11  12
ENDBRANCH   7  11
ENDBRANCH   2   5
TORSDOF 6
ENDMDL
MODEL       31
REMARK 921   NORMALIZED FREE ENERGY PREDICTED BY IDOCK:   -6.18 KCAL/MOL
REMARK 922        TOTAL FREE ENERGY PREDICTED BY IDOCK:   -8.96 KCAL/MOL
REMARK 923 INTER-LIGAND FREE ENERGY PREDICTED BY IDOCK:   -7.18 KCAL/MOL
REMARK 924 INTRA-LIGAND FREE ENERGY PREDICTED BY IDOCK:   -1.79 KCAL/MOL
REMARK 927      BINDING AFFINITY PREDICTED BY RF-SCORE:    0.00 PKD
ROOT
HETATM    1  C   UNL     1     -11.946   9.175  70.752  1.00  0.00    -0.191 C  
HETATM    2  S   UNL     1     -12.160   7.705  71.725  1.00  0.00    -0.318 S  
HETATM    3  O   UNL     1     -12.881   8.058  72.930  1.00  0.00     0.106 OA 
HETATM    4  O   UNL     1     -12.642   6.654  70.847  1.00  0.00    -0.285 OA 
ENDROOT
BRANCH   2   5
HETATM    5  C   UNL     1     -10.519   7.271  72.248  1.00  0.00    -0.214 A  
HETATM    6  C   UNL     1     -10.048   5.994  71.930  1.00  0.00    -0.223 A  
HETATM    7  C   UNL     1      -8.718   5.640  72.167  1.00  0.00    -0.133 A  
HETATM    8  C   UNL     1      -7.891   6.582  72.804  1.00  0.00    -0.102 A  
HETATM    9  C   UNL     1      -8.371   7.852  73.148  1.00  0.00    -0.233 A  
HETATM   10  C   UNL     1      -9.687   8.209  72.855  1.00  0.00    -0.340 A  
BRANCH   7  11
HETATM   11  C   UNL     1      -8.116   4.310  71.749  1.00  0.00    -0.092 C  
BRANCH  11  12
HETATM   12  CA  UNL     1      -8.022   3.946  70.251  1.00  0.00    -0.050 C  
HETATM   13  C   UNL     1      -8.674   2.574  69.985  1.00  0.00    -0.069 C  
HETATM   14  OXT UNL     1      -8.729   1.655  70.785  1.00  0.00    -0.049 OA 
HETATM   15  O   UNL     1      -9.158   2.445  68.727  1.00  0.00    -0.109 OA 
BRANCH  12  16
HETATM   16  N   UNL     1      -8.508   5.019  69.334  1.00  0.00    -0.084 N  
HETATM   17  C   UNL     1      -7.675   5.775  68.531  1.00  0.00    -0.093 C  
HETATM   18  H   UNL     1      -9.511   5.205  69.299  1.00  0.00     0.000 HD 
HETATM   19  O   UNL     1      -6.462   5.595  68.547  1.00  0.00    -0.039 OA 
BRANCH  17  20
HETATM   20  C   UNL     1      -8.278   6.748  67.552  1.00  0.00    -0.122 A  
HETATM   21  C   UNL     1      -8.471   8.092  67.944  1.00  0.00    -0.125 A  
HETATM   22 CL   UNL     1      -8.555   8.533  69.627  1.00  0.00    -0.129 Cl 
HETATM   23  C   UNL     1      -8.696   9.112  66.986  1.00  0.00    -0.131 A  
HETATM   24  C   UNL     1      -8.975   8.771  65.646  1.00  0.00    -0.248 A  
HETATM   25  C   UNL     1      -8.866   7.425  65.270  1.00  0.00     0.145 A  
HETATM   26  C   UNL     1      -9.350   9.831  64.608  1.00  0.00    -0.256 C  
HETATM   27  C   UNL     1      -8.471   6.436  66.195  1.00  0.00    -0.140 A  
HETATM   28  N   UNL     1      -9.319  11.204  65.142  1.00  0.00    -0.220 N  
HETATM   29 CL   UNL     1      -8.178   4.864  65.531  1.00  0.00    -0.113 Cl 
HETATM   30  C   UNL     1      -8.251  11.414  66.107  1.00  0.00    -0.041 C  
HETATM   31  C   UNL     1     -10.498  11.960  65.109  1.00  0.00    -0.287 C  
HETATM   32  C   UNL     1      -8.576  10.583  67.350  1.00  0.00    -0.122 C  
HETATM   33  O   UNL     1     -11.537  11.518  64.615  1.00  0.00    -0.188 OA 
BRANCH  31  34
HETATM   34  C   UNL     1     -10.574  13.342  65.685  1.00  0.00    -0.286 A  
HETATM   35  C   UNL     1     -10.073  14.395  64.894  1.00  0.00    -0.253 A  
HETATM   36  C   UNL     1      -9.980  15.712  65.378  1.00  0.00    -0.311 A  
HETATM   37  C   UNL     1     -10.399  15.973  66.692  1.00  0.00    -0.299 A  
HETATM   38  C   UNL     1     -10.438  17.116  67.535  1.00  0.00    -0.348 A  
HETATM   39  C   UNL     1     -10.959  16.692  68.735  1.00  0.00    -0.309 A  
HETATM   40  O   UNL     1     -11.240  15.362  68.693  1.00  0.00    -0.272 OA 
HETATM   41  C   UNL     1     -10.891  14.917  67.452  1.00  0.00    -0.304 A  
HETATM   42  C   UNL     1     -10.986  13.594  67.004  1.00  0.00    -0.298 A  
ENDBRANCH  31  34
ENDBRANCH  17  20
ENDBRANCH  12  16
ENDBRANCH  11  12
ENDBRANCH   7  11
ENDBRANCH   2   5
TORSDOF 6
ENDMDL
MODEL       32
REMARK 921   NORMALIZED FREE ENERGY PREDICTED BY IDOCK:   -6.17 KCAL/MOL
REMARK 922        TOTAL FREE ENERGY PREDICTED BY IDOCK:   -8.95 KCAL/MOL
REMARK 923 INTER-LIGAND FREE ENERGY PREDICTED BY IDOCK:   -8.00 KCAL/MOL
REMARK 924 INTRA-LIGAND FREE ENERGY PREDICTED BY IDOCK:   -0.95 KCAL/MOL
REMARK 927      BINDING AFFINITY PREDICTED BY RF-SCORE:    0.00 PKD
ROOT
HETATM    1  C   UNL     1      -9.860   8.350  66.780  1.00  0.00    -0.259 C  
HETATM    2  S   UNL     1      -8.487   7.280  66.428  1.00  0.00    -0.136 S  
HETATM    3  O   UNL     1      -9.001   6.055  65.852  1.00  0.00    -0.156 OA 
HETATM    4  O   UNL     1      -7.477   8.062  65.741  1.00  0.00    -0.077 OA 
ENDROOT
BRANCH   2   5
HETATM    5  C   UNL     1      -7.845   6.836  68.024  1.00  0.00    -0.113 A  
HETATM    6  C   UNL     1      -8.681   6.124  68.889  1.00  0.00    -0.123 A  
HETATM    7  C   UNL     1      -8.194   5.605  70.090  1.00  0.00    -0.114 A  
HETATM    8  C   UNL     1      -6.860   5.887  70.436  1.00  0.00    -0.057 A  
HETATM    9  C   UNL     1      -6.031   6.625  69.581  1.00  0.00    -0.019 A  
HETATM   10  C   UNL     1      -6.517   7.089  68.359  1.00  0.00    -0.040 A  
BRANCH   7  11
HETATM   11  C   UNL     1      -9.017   4.734  71.024  1.00  0.00    -0.163 C  
BRANCH  11  12
HETATM   12  CA  UNL     1     -10.524   5.016  71.208  1.00  0.00    -0.143 C  
HETATM   13  C   UNL     1     -11.008   4.502  72.579  1.00  0.00    -0.007 C  
HETATM   14  OXT UNL     1     -10.535   3.550  73.179  1.00  0.00    -0.155 OA 
HETATM   15  O   UNL     1     -12.072   5.185  73.063  1.00  0.00    -0.176 OA 
BRANCH  12  16
HETATM   16  N   UNL     1     -10.913   6.432  70.937  1.00  0.00    -0.264 N  
HETATM   17  C   UNL     1     -10.571   7.490  71.759  1.00  0.00    -0.206 C  
HETATM   18  H   UNL     1     -11.463   6.629  70.101  1.00  0.00     0.000 HD 
HETATM   19  O   UNL     1      -9.920   7.301  72.780  1.00  0.00    -0.171 OA 
BRANCH  17  20
HETATM   20  C   UNL     1     -10.909   8.894  71.331  1.00  0.00    -0.378 A  
HETATM   21  C   UNL     1      -9.937   9.662  70.650  1.00  0.00    -0.231 A  
HETATM   22 CL   UNL     1      -8.243   9.273  70.767  1.00  0.00    -0.216 Cl 
HETATM   23  C   UNL     1     -10.296  10.827  69.927  1.00  0.00     0.025 A  
HETATM   24  C   UNL     1     -11.585  11.378  70.074  1.00  0.00    -0.382 A  
HETATM   25  C   UNL     1     -12.530  10.661  70.819  1.00  0.00    -0.480 A  
HETATM   26  C   UNL     1     -11.973  12.704  69.413  1.00  0.00    -0.260 C  
HETATM   27  C   UNL     1     -12.215   9.412  71.394  1.00  0.00    -0.356 A  
HETATM   28  N   UNL     1     -10.899  13.276  68.583  1.00  0.00    -0.255 N  
HETATM   29 CL   UNL     1     -13.543   8.554  72.100  1.00  0.00    -0.388 Cl 
HETATM   30  C   UNL     1     -10.122  12.264  67.884  1.00  0.00    -0.200 C  
HETATM   31  C   UNL     1     -10.408  14.546  68.909  1.00  0.00    -0.237 C  
HETATM   32  C   UNL     1      -9.341  11.468  68.931  1.00  0.00    -0.006 C  
HETATM   33  O   UNL     1     -10.876  15.201  69.842  1.00  0.00    -0.255 OA 
BRANCH  31  34
HETATM   34  C   UNL     1      -9.274  15.179  68.158  1.00  0.00    -0.184 A  
HETATM   35  C   UNL     1      -7.969  14.804  68.532  1.00  0.00    -0.136 A  
HETATM   36  C   UNL     1      -6.830  15.420  67.984  1.00  0.00    -0.152 A  
HETATM   37  C   UNL     1      -7.012  16.442  67.039  1.00  0.00    -0.254 A  
HETATM   38  C   UNL     1      -6.157  17.303  66.301  1.00  0.00    -0.188 A  
HETATM   39  C   UNL     1      -6.979  18.105  65.543  1.00  0.00    -0.059 A  
HETATM   40  O   UNL     1      -8.285  17.801  65.767  1.00  0.00    -0.538 OA 
HETATM   41  C   UNL     1      -8.311  16.793  66.686  1.00  0.00    -0.261 A  
HETATM   42  C   UNL     1      -9.464  16.207  67.221  1.00  0.00    -0.231 A  
ENDBRANCH  31  34
ENDBRANCH  17  20
ENDBRANCH  12  16
ENDBRANCH  11  12
ENDBRANCH   7  11
ENDBRANCH   2   5
TORSDOF 6
ENDMDL
MODEL       33
REMARK 921   NORMALIZED FREE ENERGY PREDICTED BY IDOCK:   -6.13 KCAL/MOL
REMARK 922        TOTAL FREE ENERGY PREDICTED BY IDOCK:   -8.91 KCAL/MOL
REMARK 923 INTER-LIGAND FREE ENERGY PREDICTED BY IDOCK:   -7.13 KCAL/MOL
REMARK 924 INTRA-LIGAND FREE ENERGY PREDICTED BY IDOCK:   -1.78 KCAL/MOL
REMARK 927      BINDING AFFINITY PREDICTED BY RF-SCORE:    0.00 PKD
ROOT
HETATM    1  C   UNL     1     -12.083   6.640  71.402  1.00  0.00    -0.347 C  
HETATM    2  S   UNL     1     -10.972   6.203  72.716  1.00  0.00    -0.262 S  
HETATM    3  O   UNL     1     -10.660   7.402  73.466  1.00  0.00    -0.376 OA 
HETATM    4  O   UNL     1     -11.503   5.025  73.376  1.00  0.00    -0.323 OA 
ENDROOT
BRANCH   2   5
HETATM    5  C   UNL     1      -9.467   5.737  71.893  1.00  0.00    -0.151 A  
HETATM    6  C   UNL     1      -9.521   5.510  70.515  1.00  0.00    -0.209 A  
HETATM    7  C   UNL     1      -8.354   5.297  69.778  1.00  0.00    -0.098 A  
HETATM    8  C   UNL     1      -7.135   5.244  70.477  1.00  0.00    -0.061 A  
HETATM    9  C   UNL     1      -7.086   5.445  71.863  1.00  0.00    -0.084 A  
HETATM   10  C   UNL     1      -8.254   5.710  72.576  1.00  0.00    -0.114 A  
BRANCH   7  11
HETATM   11  C   UNL     1      -8.331   5.150  68.266  1.00  0.00    -0.096 C  
BRANCH  11  12
HETATM   12  CA  UNL     1      -8.639   6.370  67.371  1.00  0.00    -0.107 C  
HETATM   13  C   UNL     1     -10.129   6.385  66.971  1.00  0.00    -0.174 C  
HETATM   14  OXT UNL     1     -10.831   5.396  66.836  1.00  0.00    -0.237 OA 
HETATM   15  O   UNL     1     -10.604   7.628  66.722  1.00  0.00    -0.325 OA 
BRANCH  12  16
HETATM   16  N   UNL     1      -8.165   7.669  67.932  1.00  0.00    -0.122 N  
HETATM   17  C   UNL     1      -6.976   8.272  67.566  1.00  0.00    -0.075 C  
HETATM   18  H   UNL     1      -8.750   8.139  68.623  1.00  0.00     0.000 HD 
HETATM   19  O   UNL     1      -6.234   7.741  66.747  1.00  0.00    -0.047 OA 
BRANCH  17  20
HETATM   20  C   UNL     1      -6.649   9.643  68.100  1.00  0.00    -0.061 A  
HETATM   21  C   UNL     1      -7.263  10.774  67.519  1.00  0.00    -0.090 A  
HETATM   22 CL   UNL     1      -7.932  10.708  65.912  1.00  0.00    -0.158 Cl 
HETATM   23  C   UNL     1      -7.274  12.026  68.184  1.00  0.00    -0.090 A  
HETATM   24  C   UNL     1      -6.464  12.228  69.320  1.00  0.00    -0.109 A  
HETATM   25  C   UNL     1      -5.784  11.124  69.852  1.00  0.00    -0.083 A  
HETATM   26  C   UNL     1      -6.347  13.599  69.992  1.00  0.00    -0.065 C  
HETATM   27  C   UNL     1      -5.917   9.840  69.284  1.00  0.00    -0.033 A  
HETATM   28  N   UNL     1      -7.202  14.625  69.371  1.00  0.00    -0.155 N  
HETATM   29 CL   UNL     1      -5.189   8.546  70.176  1.00  0.00    -0.022 Cl 
HETATM   30  C   UNL     1      -8.478  14.098  68.911  1.00  0.00     0.002 C  
HETATM   31  C   UNL     1      -6.594  15.767  68.836  1.00  0.00    -0.119 C  
HETATM   32  C   UNL     1      -8.198  13.151  67.743  1.00  0.00    -0.168 C  
HETATM   33  O   UNL     1      -5.377  15.945  68.906  1.00  0.00    -0.102 OA 
BRANCH  31  34
HETATM   34  C   UNL     1      -7.380  16.833  68.132  1.00  0.00    -0.174 A  
HETATM   35  C   UNL     1      -7.157  16.985  66.749  1.00  0.00    -0.273 A  
HETATM   36  C   UNL     1      -7.744  18.028  66.010  1.00  0.00    -0.211 A  
HETATM   37  C   UNL     1      -8.572  18.940  66.681  1.00  0.00    -0.312 A  
HETATM   38  C   UNL     1      -9.300  20.105  66.318  1.00  0.00    -0.419 A  
HETATM   39  C   UNL     1      -9.907  20.554  67.469  1.00  0.00    -0.394 A  
HETATM   40  O   UNL     1      -9.599  19.747  68.519  1.00  0.00    -0.360 OA 
HETATM   41  C   UNL     1      -8.777  18.767  68.046  1.00  0.00    -0.297 A  
HETATM   42  C   UNL     1      -8.200  17.748  68.812  1.00  0.00    -0.229 A  
ENDBRANCH  31  34
ENDBRANCH  17  20
ENDBRANCH  12  16
ENDBRANCH  11  12
ENDBRANCH   7  11
ENDBRANCH   2   5
TORSDOF 6
ENDMDL
MODEL       34
REMARK 921   NORMALIZED FREE ENERGY PREDICTED BY IDOCK:   -6.10 KCAL/MOL
REMARK 922        TOTAL FREE ENERGY PREDICTED BY IDOCK:   -8.86 KCAL/MOL
REMARK 923 INTER-LIGAND FREE ENERGY PREDICTED BY IDOCK:   -8.59 KCAL/MOL
REMARK 924 INTRA-LIGAND FREE ENERGY PREDICTED BY IDOCK:   -0.26 KCAL/MOL
REMARK 927      BINDING AFFINITY PREDICTED BY RF-SCORE:    0.00 PKD
ROOT
HETATM    1  C   UNL     1      -7.371   5.770  65.137  1.00  0.00    -0.075 C  
HETATM    2  S   UNL     1      -8.290   4.253  65.220  1.00  0.00    -0.112 S  
HETATM    3  O   UNL     1      -9.686   4.553  64.975  1.00  0.00    -0.165 OA 
HETATM    4  O   UNL     1      -7.588   3.262  64.425  1.00  0.00    -0.073 OA 
ENDROOT
BRANCH   2   5
HETATM    5  C   UNL     1      -8.189   3.760  66.924  1.00  0.00    -0.096 A  
HETATM    6  C   UNL     1      -8.870   4.532  67.868  1.00  0.00    -0.120 A  
HETATM    7  C   UNL     1      -8.967   4.117  69.198  1.00  0.00    -0.164 A  
HETATM    8  C   UNL     1      -8.295   2.940  69.570  1.00  0.00    -0.086 A  
HETATM    9  C   UNL     1      -7.588   2.181  68.628  1.00  0.00    -0.046 A  
HETATM   10  C   UNL     1      -7.547   2.580  67.293  1.00  0.00    -0.061 A  
BRANCH   7  11
HETATM   11  C   UNL     1      -9.780   4.852  70.250  1.00  0.00    -0.287 C  
BRANCH  11  12
HETATM   12  CA  UNL     1      -9.384   6.287  70.662  1.00  0.00    -0.162 C  
HETATM   13  C   UNL     1      -7.974   6.301  71.288  1.00  0.00    -0.116 C  
HETATM   14  OXT UNL     1      -7.470   5.378  71.906  1.00  0.00    -0.088 OA 
HETATM   15  O   UNL     1      -7.332   7.483  71.133  1.00  0.00    -0.069 OA 
BRANCH  12  16
HETATM   16  N   UNL     1      -9.561   7.300  69.580  1.00  0.00    -0.156 N  
HETATM   17  C   UNL     1     -10.634   8.169  69.514  1.00  0.00    -0.213 C  
HETATM   18  H   UNL     1      -8.851   7.353  68.849  1.00  0.00     0.000 HD 
HETATM   19  O   UNL     1     -11.517   8.135  70.363  1.00  0.00    -0.234 OA 
BRANCH  17  20
HETATM   20  C   UNL     1     -10.655   9.235  68.449  1.00  0.00    -0.234 A  
HETATM   21  C   UNL     1     -10.673  10.594  68.833  1.00  0.00    -0.219 A  
HETATM   22 CL   UNL     1     -11.212  11.072  70.419  1.00  0.00    -0.230 Cl 
HETATM   23  C   UNL     1     -10.343  11.621  67.914  1.00  0.00    -0.206 A  
HETATM   24  C   UNL     1     -10.230  11.328  66.539  1.00  0.00    -0.269 A  
HETATM   25  C   UNL     1     -10.295   9.985  66.143  1.00  0.00    -0.225 A  
HETATM   26  C   UNL     1     -10.003  12.427  65.498  1.00  0.00    -0.243 C  
HETATM   27  C   UNL     1     -10.451   8.950  67.087  1.00  0.00    -0.274 A  
HETATM   28  N   UNL     1      -9.856  13.767  66.090  1.00  0.00    -0.301 N  
HETATM   29 CL   UNL     1     -10.300   7.340  66.467  1.00  0.00    -0.194 Cl 
HETATM   30  C   UNL     1      -9.149  13.752  67.362  1.00  0.00    -0.221 C  
HETATM   31  C   UNL     1     -10.765  14.765  65.718  1.00  0.00    -0.326 C  
HETATM   32  C   UNL     1     -10.037  13.036  68.381  1.00  0.00    -0.225 C  
HETATM   33  O   UNL     1     -11.652  14.556  64.888  1.00  0.00    -0.365 OA 
BRANCH  31  34
HETATM   34  C   UNL     1     -10.729  16.140  66.316  1.00  0.00    -0.213 A  
HETATM   35  C   UNL     1     -10.790  17.229  65.424  1.00  0.00    -0.024 A  
HETATM   36  C   UNL     1     -10.642  18.558  65.859  1.00  0.00    -0.336 A  
HETATM   37  C   UNL     1     -10.422  18.794  67.224  1.00  0.00    -0.489 A  
HETATM   38  C   UNL     1     -10.198  19.942  68.031  1.00  0.00    -0.572 A  
HETATM   39  C   UNL     1     -10.037  19.484  69.318  1.00  0.00    -0.214 A  
HETATM   40  O   UNL     1     -10.141  18.129  69.361  1.00  0.00    -0.200 OA 
HETATM   41  C   UNL     1     -10.366  17.703  68.084  1.00  0.00    -0.386 A  
HETATM   42  C   UNL     1     -10.500  16.369  67.683  1.00  0.00    -0.302 A  
ENDBRANCH  31  34
ENDBRANCH  17  20
ENDBRANCH  12  16
ENDBRANCH  11  12
ENDBRANCH   7  11
ENDBRANCH   2   5
TORSDOF 6
ENDMDL
MODEL       35
REMARK 921   NORMALIZED FREE ENERGY PREDICTED BY IDOCK:   -6.03 KCAL/MOL
REMARK 922        TOTAL FREE ENERGY PREDICTED BY IDOCK:   -8.76 KCAL/MOL
REMARK 923 INTER-LIGAND FREE ENERGY PREDICTED BY IDOCK:   -8.21 KCAL/MOL
REMARK 924 INTRA-LIGAND FREE ENERGY PREDICTED BY IDOCK:   -0.55 KCAL/MOL
REMARK 927      BINDING AFFINITY PREDICTED BY RF-SCORE:    0.00 PKD
ROOT
HETATM    1  C   UNL     1      -5.973   9.119  62.711  1.00  0.00    -0.093 C  
HETATM    2  S   UNL     1      -7.490   9.378  63.598  1.00  0.00    -0.116 S  
HETATM    3  O   UNL     1      -7.246  10.352  64.641  1.00  0.00    -0.117 OA 
HETATM    4  O   UNL     1      -8.548   9.575  62.624  1.00  0.00    -0.176 OA 
ENDROOT
BRANCH   2   5
HETATM    5  C   UNL     1      -7.791   7.837  64.429  1.00  0.00    -0.138 A  
HETATM    6  C   UNL     1      -8.164   7.884  65.775  1.00  0.00    -0.130 A  
HETATM    7  C   UNL     1      -8.569   6.729  66.447  1.00  0.00    -0.131 A  
HETATM    8  C   UNL     1      -8.517   5.509  65.749  1.00  0.00    -0.134 A  
HETATM    9  C   UNL     1      -8.116   5.459  64.407  1.00  0.00    -0.123 A  
HETATM   10  C   UNL     1      -7.767   6.630  63.735  1.00  0.00    -0.111 A  
BRANCH   7  11
HETATM   11  C   UNL     1      -9.087   6.726  67.875  1.00  0.00    -0.114 C  
BRANCH  11  12
HETATM   12  CA  UNL     1     -10.557   7.102  68.160  1.00  0.00    -0.192 C  
HETATM   13  C   UNL     1     -11.099   6.302  69.362  1.00  0.00    -0.410 C  
HETATM   14  OXT UNL     1     -10.730   5.185  69.686  1.00  0.00    -0.212 OA 
HETATM   15  O   UNL     1     -12.088   6.941  70.029  1.00  0.00    -0.176 OA 
BRANCH  12  16
HETATM   16  N   UNL     1     -10.797   8.571  68.271  1.00  0.00    -0.450 N  
HETATM   17  C   UNL     1     -10.116   9.393  69.150  1.00  0.00    -0.195 C  
HETATM   18  H   UNL     1     -11.502   8.992  67.666  1.00  0.00     0.000 HD 
HETATM   19  O   UNL     1      -9.268   8.931  69.905  1.00  0.00    -0.154 OA 
BRANCH  17  20
HETATM   20  C   UNL     1     -10.347  10.881  69.097  1.00  0.00    -0.228 A  
HETATM   21  C   UNL     1      -9.319  11.722  68.616  1.00  0.00    -0.090 A  
HETATM   22 CL   UNL     1      -7.659  11.194  68.602  1.00  0.00    -0.119 Cl 
HETATM   23  C   UNL     1      -9.587  13.055  68.217  1.00  0.00    -0.213 A  
HETATM   24  C   UNL     1     -10.832  13.645  68.521  1.00  0.00    -0.275 A  
HETATM   25  C   UNL     1     -11.830  12.833  69.077  1.00  0.00    -0.344 A  
HETATM   26  C   UNL     1     -11.117  15.119  68.224  1.00  0.00    -0.291 C  
HETATM   27  C   UNL     1     -11.610  11.460  69.312  1.00  0.00    -0.317 A  
HETATM   28  N   UNL     1     -10.001  15.802  67.547  1.00  0.00    -0.234 N  
HETATM   29 CL   UNL     1     -13.000  10.551  69.801  1.00  0.00     0.127 Cl 
HETATM   30  C   UNL     1      -9.301  14.947  66.602  1.00  0.00    -0.268 C  
HETATM   31  C   UNL     1      -9.416  16.909  68.175  1.00  0.00    -0.251 C  
HETATM   32  C   UNL     1      -8.585  13.856  67.400  1.00  0.00    -0.206 C  
HETATM   33  O   UNL     1      -9.836  17.339  69.251  1.00  0.00    -0.202 OA 
BRANCH  31  34
HETATM   34  C   UNL     1      -8.237  17.627  67.589  1.00  0.00    -0.225 A  
HETATM   35  C   UNL     1      -7.316  18.191  68.494  1.00  0.00    -0.285 A  
HETATM   36  C   UNL     1      -6.241  18.989  68.063  1.00  0.00    -0.228 A  
HETATM   37  C   UNL     1      -6.094  19.227  66.688  1.00  0.00    -0.173 A  
HETATM   38  C   UNL     1      -5.197  19.975  65.879  1.00  0.00    -0.176 A  
HETATM   39  C   UNL     1      -5.615  19.803  64.580  1.00  0.00    -0.211 A  
HETATM   40  O   UNL     1      -6.714  19.004  64.531  1.00  0.00    -0.311 OA 
HETATM   41  C   UNL     1      -7.016  18.658  65.816  1.00  0.00    -0.255 A  
HETATM   42  C   UNL     1      -8.102  17.869  66.213  1.00  0.00    -0.266 A  
ENDBRANCH  31  34
ENDBRANCH  17  20
ENDBRANCH  12  16
ENDBRANCH  11  12
ENDBRANCH   7  11
ENDBRANCH   2   5
TORSDOF 6
ENDMDL
MODEL       36
REMARK 921   NORMALIZED FREE ENERGY PREDICTED BY IDOCK:   -5.94 KCAL/MOL
REMARK 922        TOTAL FREE ENERGY PREDICTED BY IDOCK:   -8.64 KCAL/MOL
REMARK 923 INTER-LIGAND FREE ENERGY PREDICTED BY IDOCK:   -7.70 KCAL/MOL
REMARK 924 INTRA-LIGAND FREE ENERGY PREDICTED BY IDOCK:   -0.94 KCAL/MOL
REMARK 927      BINDING AFFINITY PREDICTED BY RF-SCORE:    0.00 PKD
ROOT
HETATM    1  C   UNL     1      -6.313  20.774  66.322  1.00  0.00    -0.254 C  
HETATM    2  S   UNL     1      -6.546  19.047  65.979  1.00  0.00    -0.243 S  
HETATM    3  O   UNL     1      -6.408  18.844  64.552  1.00  0.00    -0.486 OA 
HETATM    4  O   UNL     1      -5.742  18.293  66.923  1.00  0.00    -0.138 OA 
ENDROOT
BRANCH   2   5
HETATM    5  C   UNL     1      -8.256  18.743  66.352  1.00  0.00    -0.284 A  
HETATM    6  C   UNL     1      -8.659  17.416  66.530  1.00  0.00    -0.293 A  
HETATM    7  C   UNL     1      -9.946  17.112  66.979  1.00  0.00    -0.287 A  
HETATM    8  C   UNL     1     -10.843  18.177  67.173  1.00  0.00    -0.212 A  
HETATM    9  C   UNL     1     -10.447  19.505  66.967  1.00  0.00    -0.587 A  
HETATM   10  C   UNL     1      -9.142  19.796  66.572  1.00  0.00    -0.450 A  
BRANCH   7  11
HETATM   11  C   UNL     1     -10.414  15.702  67.294  1.00  0.00    -0.292 C  
BRANCH  11  12
HETATM   12  CA  UNL     1     -10.120  15.087  68.680  1.00  0.00    -0.233 C  
HETATM   13  C   UNL     1     -11.342  15.236  69.609  1.00  0.00    -0.290 C  
HETATM   14  OXT UNL     1     -12.159  16.141  69.556  1.00  0.00    -0.205 OA 
HETATM   15  O   UNL     1     -11.415  14.273  70.558  1.00  0.00    -0.214 OA 
BRANCH  12  16
HETATM   16  N   UNL     1      -9.587  13.694  68.625  1.00  0.00    -0.379 N  
HETATM   17  C   UNL     1      -8.508  13.319  67.846  1.00  0.00    -0.177 C  
HETATM   18  H   UNL     1     -10.043  12.980  69.192  1.00  0.00     0.000 HD 
HETATM   19  O   UNL     1      -7.934  14.139  67.139  1.00  0.00    -0.168 OA 
BRANCH  17  20
HETATM   20  C   UNL     1      -7.973  11.915  67.956  1.00  0.00    -0.147 A  
HETATM   21  C   UNL     1      -8.455  10.921  67.075  1.00  0.00    -0.134 A  
HETATM   22 CL   UNL     1      -9.985  11.105  66.265  1.00  0.00    -0.250 Cl 
HETATM   23  C   UNL     1      -7.757   9.700  66.893  1.00  0.00    -0.098 A  
HETATM   24  C   UNL     1      -6.706   9.352  67.765  1.00  0.00    -0.067 A  
HETATM   25  C   UNL     1      -6.278  10.306  68.698  1.00  0.00    -0.047 A  
HETATM   26  C   UNL     1      -6.012   7.990  67.685  1.00  0.00    -0.046 C  
HETATM   27  C   UNL     1      -6.865  11.587  68.757  1.00  0.00    -0.084 A  
HETATM   28  N   UNL     1      -6.511   7.147  66.585  1.00  0.00    -0.052 N  
HETATM   29 CL   UNL     1      -6.089  12.719  69.813  1.00  0.00    -0.131 Cl 
HETATM   30  C   UNL     1      -6.853   7.910  65.394  1.00  0.00    -0.058 C  
HETATM   31  C   UNL     1      -7.074   5.903  66.900  1.00  0.00    -0.070 C  
HETATM   32  C   UNL     1      -8.070   8.775  65.727  1.00  0.00    -0.109 C  
HETATM   33  O   UNL     1      -7.125   5.491  68.060  1.00  0.00    -0.064 OA 
BRANCH  31  34
HETATM   34  C   UNL     1      -7.664   5.007  65.852  1.00  0.00    -0.091 A  
HETATM   35  C   UNL     1      -6.761   4.315  65.019  1.00  0.00    -0.048 A  
HETATM   36  C   UNL     1      -7.197   3.544  63.927  1.00  0.00    -0.051 A  
HETATM   37  C   UNL     1      -8.573   3.472  63.665  1.00  0.00    -0.090 A  
HETATM   38  C   UNL     1      -9.386   2.852  62.679  1.00  0.00    -0.093 A  
HETATM   39  C   UNL     1     -10.685   3.188  62.983  1.00  0.00    -0.211 A  
HETATM   40  O   UNL     1     -10.730   3.979  64.088  1.00  0.00    -0.250 OA 
HETATM   41  C   UNL     1      -9.443   4.164  64.502  1.00  0.00    -0.165 A  
HETATM   42  C   UNL     1      -9.042   4.947  65.590  1.00  0.00    -0.151 A  
ENDBRANCH  31  34
ENDBRANCH  17  20
ENDBRANCH  12  16
ENDBRANCH  11  12
ENDBRANCH   7  11
ENDBRANCH   2   5
TORSDOF 6
ENDMDL
MODEL       37
REMARK 921   NORMALIZED FREE ENERGY PREDICTED BY IDOCK:   -5.90 KCAL/MOL
REMARK 922        TOTAL FREE ENERGY PREDICTED BY IDOCK:   -8.59 KCAL/MOL
REMARK 923 INTER-LIGAND FREE ENERGY PREDICTED BY IDOCK:   -9.03 KCAL/MOL
REMARK 924 INTRA-LIGAND FREE ENERGY PREDICTED BY IDOCK:    0.44 KCAL/MOL
REMARK 927      BINDING AFFINITY PREDICTED BY RF-SCORE:    0.00 PKD
ROOT
HETATM    1  C   UNL     1      -6.275  19.195  65.051  1.00  0.00    -0.282 C  
HETATM    2  S   UNL     1      -6.602  19.714  66.718  1.00  0.00    -0.194 S  
HETATM    3  O   UNL     1      -5.738  18.965  67.606  1.00  0.00    -0.182 OA 
HETATM    4  O   UNL     1      -6.618  21.165  66.738  1.00  0.00    -0.304 OA 
ENDROOT
BRANCH   2   5
HETATM    5  C   UNL     1      -8.252  19.144  67.048  1.00  0.00    -0.267 A  
HETATM    6  C   UNL     1      -8.471  17.764  67.080  1.00  0.00    -0.239 A  
HETATM    7  C   UNL     1      -9.701  17.243  67.489  1.00  0.00    -0.264 A  
HETATM    8  C   UNL     1     -10.731  18.150  67.793  1.00  0.00    -0.355 A  
HETATM    9  C   UNL     1     -10.519  19.534  67.734  1.00  0.00    -0.574 A  
HETATM   10  C   UNL     1      -9.269  20.038  67.377  1.00  0.00    -0.477 A  
BRANCH   7  11
HETATM   11  C   UNL     1      -9.972  15.757  67.648  1.00  0.00    -0.239 C  
BRANCH  11  12
HETATM   12  CA  UNL     1     -10.971  15.053  66.705  1.00  0.00    -0.325 C  
HETATM   13  C   UNL     1     -10.893  15.654  65.286  1.00  0.00    -0.406 C  
HETATM   14  OXT UNL     1     -10.591  16.808  65.028  1.00  0.00    -0.695 OA 
HETATM   15  O   UNL     1     -11.246  14.781  64.314  1.00  0.00    -0.201 OA 
BRANCH  12  16
HETATM   16  N   UNL     1     -10.875  13.564  66.721  1.00  0.00    -0.281 N  
HETATM   17  C   UNL     1      -9.682  12.873  66.621  1.00  0.00    -0.254 C  
HETATM   18  H   UNL     1     -11.738  13.026  66.811  1.00  0.00     0.000 HD 
HETATM   19  O   UNL     1      -8.621  13.475  66.500  1.00  0.00    -0.007 OA 
BRANCH  17  20
HETATM   20  C   UNL     1      -9.683  11.374  66.771  1.00  0.00    -0.221 A  
HETATM   21  C   UNL     1      -9.441  10.807  68.042  1.00  0.00    -0.160 A  
HETATM   22 CL   UNL     1      -8.623  11.710  69.287  1.00  0.00     0.324 Cl 
HETATM   23  C   UNL     1      -9.770   9.456  68.319  1.00  0.00    -0.162 A  
HETATM   24  C   UNL     1     -10.116   8.585  67.266  1.00  0.00    -0.317 A  
HETATM   25  C   UNL     1     -10.276   9.129  65.984  1.00  0.00    -0.093 A  
HETATM   26  C   UNL     1     -10.353   7.091  67.502  1.00  0.00    -0.225 C  
HETATM   27  C   UNL     1     -10.116  10.510  65.749  1.00  0.00    -0.265 A  
HETATM   28  N   UNL     1     -10.245   6.703  68.919  1.00  0.00    -0.168 N  
HETATM   29 CL   UNL     1     -10.553  11.057  64.166  1.00  0.00    -0.447 Cl 
HETATM   30  C   UNL     1     -10.757   7.718  69.827  1.00  0.00    -0.236 C  
HETATM   31  C   UNL     1      -9.282   5.752  69.279  1.00  0.00    -0.117 C  
HETATM   32  C   UNL     1      -9.827   8.930  69.745  1.00  0.00    -0.186 C  
HETATM   33  O   UNL     1      -8.557   5.214  68.440  1.00  0.00    -0.098 OA 
BRANCH  31  34
HETATM   34  C   UNL     1      -9.060   5.343  70.705  1.00  0.00    -0.168 A  
HETATM   35  C   UNL     1      -8.080   6.050  71.430  1.00  0.00    -0.115 A  
HETATM   36  C   UNL     1      -7.701   5.677  72.731  1.00  0.00    -0.098 A  
HETATM   37  C   UNL     1      -8.321   4.561  73.314  1.00  0.00    -0.099 A  
HETATM   38  C   UNL     1      -8.204   3.866  74.548  1.00  0.00    -0.089 A  
HETATM   39  C   UNL     1      -9.105   2.828  74.492  1.00  0.00    -0.078 A  
HETATM   40  O   UNL     1      -9.767   2.830  73.304  1.00  0.00    -0.095 OA 
HETATM   41  C   UNL     1      -9.286   3.881  72.579  1.00  0.00    -0.116 A  
HETATM   42  C   UNL     1      -9.678   4.220  71.279  1.00  0.00    -0.256 A  
ENDBRANCH  31  34
ENDBRANCH  17  20
ENDBRANCH  12  16
ENDBRANCH  11  12
ENDBRANCH   7  11
ENDBRANCH   2   5
TORSDOF 6
ENDMDL
MODEL       38
REMARK 921   NORMALIZED FREE ENERGY PREDICTED BY IDOCK:   -5.89 KCAL/MOL
REMARK 922        TOTAL FREE ENERGY PREDICTED BY IDOCK:   -8.57 KCAL/MOL
REMARK 923 INTER-LIGAND FREE ENERGY PREDICTED BY IDOCK:   -9.16 KCAL/MOL
REMARK 924 INTRA-LIGAND FREE ENERGY PREDICTED BY IDOCK:    0.59 KCAL/MOL
REMARK 927      BINDING AFFINITY PREDICTED BY RF-SCORE:    0.00 PKD
ROOT
HETATM    1  C   UNL     1      -6.916  20.846  67.297  1.00  0.00    -0.376 C  
HETATM    2  S   UNL     1      -7.033  19.156  67.831  1.00  0.00    -0.233 S  
HETATM    3  O   UNL     1      -5.908  18.427  67.284  1.00  0.00    -0.145 OA 
HETATM    4  O   UNL     1      -7.301  19.157  69.257  1.00  0.00    -0.306 OA 
ENDROOT
BRANCH   2   5
HETATM    5  C   UNL     1      -8.473  18.523  67.003  1.00  0.00    -0.264 A  
HETATM    6  C   UNL     1      -8.755  17.161  67.136  1.00  0.00    -0.227 A  
HETATM    7  C   UNL     1      -9.949  16.626  66.649  1.00  0.00    -0.290 A  
HETATM    8  C   UNL     1     -10.821  17.485  65.957  1.00  0.00     0.031 A  
HETATM    9  C   UNL     1     -10.523  18.846  65.800  1.00  0.00    -0.347 A  
HETATM   10  C   UNL     1      -9.352  19.375  66.340  1.00  0.00    -0.419 A  
BRANCH   7  11
HETATM   11  C   UNL     1     -10.366  15.180  66.852  1.00  0.00    -0.272 C  
BRANCH  11  12
HETATM   12  CA  UNL     1     -10.280  14.546  68.258  1.00  0.00    -0.234 C  
HETATM   13  C   UNL     1     -11.513  14.928  69.101  1.00  0.00    -0.302 C  
HETATM   14  OXT UNL     1     -12.148  15.964  68.989  1.00  0.00    -0.328 OA 
HETATM   15  O   UNL     1     -11.820  14.010  70.048  1.00  0.00    -0.288 OA 
BRANCH  12  16
HETATM   16  N   UNL     1     -10.004  13.079  68.246  1.00  0.00    -0.233 N  
HETATM   17  C   UNL     1     -10.866  12.143  67.705  1.00  0.00    -0.224 C  
HETATM   18  H   UNL     1      -9.132  12.749  68.659  1.00  0.00     0.000 HD 
HETATM   19  O   UNL     1     -11.931  12.490  67.207  1.00  0.00    -0.474 OA 
BRANCH  17  20
HETATM   20  C   UNL     1     -10.437  10.700  67.634  1.00  0.00    -0.267 A  
HETATM   21  C   UNL     1     -10.510   9.900  68.797  1.00  0.00    -0.213 A  
HETATM   22 CL   UNL     1     -10.545  10.621  70.382  1.00  0.00    -0.004 Cl 
HETATM   23  C   UNL     1     -10.462   8.485  68.718  1.00  0.00    -0.208 A  
HETATM   24  C   UNL     1     -10.095   7.858  67.510  1.00  0.00    -0.276 A  
HETATM   25  C   UNL     1      -9.940   8.659  66.370  1.00  0.00    -0.331 A  
HETATM   26  C   UNL     1      -9.906   6.342  67.416  1.00  0.00    -0.131 C  
HETATM   27  C   UNL     1     -10.161  10.051  66.418  1.00  0.00    -0.241 A  
HETATM   28  N   UNL     1     -10.206   5.640  68.675  1.00  0.00    -0.184 N  
HETATM   29 CL   UNL     1     -10.138  10.867  64.891  1.00  0.00    -0.348 Cl 
HETATM   30  C   UNL     1     -11.314   6.234  69.407  1.00  0.00    -0.378 C  
HETATM   31  C   UNL     1      -9.191   4.886  69.278  1.00  0.00    -0.110 C  
HETATM   32  C   UNL     1     -10.865   7.612  69.896  1.00  0.00    -0.241 C  
HETATM   33  O   UNL     1      -8.077   4.771  68.763  1.00  0.00    -0.082 OA 
BRANCH  31  34
HETATM   34  C   UNL     1      -9.389   4.189  70.591  1.00  0.00    -0.218 A  
HETATM   35  C   UNL     1     -10.357   4.727  71.463  1.00  0.00    -0.203 A  
HETATM   36  C   UNL     1     -10.543   4.232  72.766  1.00  0.00    -0.240 A  
HETATM   37  C   UNL     1      -9.732   3.174  73.202  1.00  0.00    -0.158 A  
HETATM   38  C   UNL     1      -9.588   2.439  74.409  1.00  0.00    -0.118 A  
HETATM   39  C   UNL     1      -8.584   1.525  74.186  1.00  0.00    -0.053 A  
HETATM   40  O   UNL     1      -8.094   1.649  72.924  1.00  0.00    -0.050 OA 
HETATM   41  C   UNL     1      -8.785   2.660  72.323  1.00  0.00    -0.067 A  
HETATM   42  C   UNL     1      -8.567   3.136  71.025  1.00  0.00    -0.109 A  
ENDBRANCH  31  34
ENDBRANCH  17  20
ENDBRANCH  12  16
ENDBRANCH  11  12
ENDBRANCH   7  11
ENDBRANCH   2   5
TORSDOF 6
ENDMDL
MODEL       39
REMARK 921   NORMALIZED FREE ENERGY PREDICTED BY IDOCK:   -5.84 KCAL/MOL
REMARK 922        TOTAL FREE ENERGY PREDICTED BY IDOCK:   -8.51 KCAL/MOL
REMARK 923 INTER-LIGAND FREE ENERGY PREDICTED BY IDOCK:   -8.05 KCAL/MOL
REMARK 924 INTRA-LIGAND FREE ENERGY PREDICTED BY IDOCK:   -0.46 KCAL/MOL
REMARK 927      BINDING AFFINITY PREDICTED BY RF-SCORE:    0.00 PKD
ROOT
HETATM    1  C   UNL     1      -6.546   5.711  63.386  1.00  0.00    -0.032 C  
HETATM    2  S   UNL     1      -6.809   6.443  64.983  1.00  0.00    -0.048 S  
HETATM    3  O   UNL     1      -5.559   6.407  65.712  1.00  0.00    -0.016 OA 
HETATM    4  O   UNL     1      -7.526   7.690  64.789  1.00  0.00    -0.081 OA 
ENDROOT
BRANCH   2   5
HETATM    5  C   UNL     1      -7.895   5.313  65.820  1.00  0.00    -0.099 A  
HETATM    6  C   UNL     1      -7.719   5.137  67.196  1.00  0.00    -0.092 A  
HETATM    7  C   UNL     1      -8.631   4.391  67.945  1.00  0.00    -0.110 A  
HETATM    8  C   UNL     1      -9.686   3.762  67.261  1.00  0.00    -0.144 A  
HETATM    9  C   UNL     1      -9.845   3.916  65.877  1.00  0.00    -0.137 A  
HETATM   10  C   UNL     1      -8.957   4.709  65.152  1.00  0.00    -0.150 A  
BRANCH   7  11
HETATM   11  C   UNL     1      -8.559   4.248  69.456  1.00  0.00    -0.106 C  
BRANCH  11  12
HETATM   12  CA  UNL     1      -9.855   4.290  70.294  1.00  0.00    -0.193 C  
HETATM   13  C   UNL     1      -9.643   3.594  71.654  1.00  0.00    -0.156 C  
HETATM   14  OXT UNL     1      -8.869   2.674  71.860  1.00  0.00    -0.071 OA 
HETATM   15  O   UNL     1     -10.451   4.069  72.631  1.00  0.00    -0.177 OA 
BRANCH  12  16
HETATM   16  N   UNL     1     -10.457   5.650  70.414  1.00  0.00    -0.264 N  
HETATM   17  C   UNL     1      -9.787   6.740  70.939  1.00  0.00    -0.186 C  
HETATM   18  H   UNL     1     -11.415   5.784  70.091  1.00  0.00     0.000 HD 
HETATM   19  O   UNL     1      -8.638   6.625  71.350  1.00  0.00    -0.125 OA 
BRANCH  17  20
HETATM   20  C   UNL     1     -10.442   8.096  70.902  1.00  0.00    -0.229 A  
HETATM   21  C   UNL     1      -9.769   9.170  70.278  1.00  0.00    -0.211 A  
HETATM   22 CL   UNL     1      -8.044   9.136  70.045  1.00  0.00    -0.113 Cl 
HETATM   23  C   UNL     1     -10.460  10.351  69.904  1.00  0.00    -0.266 A  
HETATM   24  C   UNL     1     -11.772  10.576  70.367  1.00  0.00    -0.434 A  
HETATM   25  C   UNL     1     -12.415   9.542  71.062  1.00  0.00    -0.347 A  
HETATM   26  C   UNL     1     -12.506  11.892  70.096  1.00  0.00    -0.077 C  
HETATM   27  C   UNL     1     -11.781   8.302  71.279  1.00  0.00    -0.283 A  
HETATM   28  N   UNL     1     -11.730  12.830  69.267  1.00  0.00    -0.307 N  
HETATM   29 CL   UNL     1     -12.776   7.060  71.961  1.00  0.00    -0.281 Cl 
HETATM   30  C   UNL     1     -10.938  12.164  68.245  1.00  0.00    -0.234 C  
HETATM   31  C   UNL     1     -11.415  14.087  69.799  1.00  0.00    -0.230 C  
HETATM   32  C   UNL     1      -9.842  11.363  68.951  1.00  0.00    -0.127 C  
HETATM   33  O   UNL     1     -11.801  14.432  70.917  1.00  0.00    -0.314 OA 
BRANCH  31  34
HETATM   34  C   UNL     1     -10.576  15.082  69.051  1.00  0.00    -0.245 A  
HETATM   35  C   UNL     1      -9.298  15.364  69.574  1.00  0.00    -0.252 A  
HETATM   36  C   UNL     1      -8.475  16.365  69.029  1.00  0.00    -0.225 A  
HETATM   37  C   UNL     1      -8.953  17.102  67.935  1.00  0.00    -0.230 A  
HETATM   38  C   UNL     1      -8.463  18.177  67.146  1.00  0.00    -0.247 A  
HETATM   39  C   UNL     1      -9.443  18.452  66.219  1.00  0.00    -0.241 A  
HETATM   40  O   UNL     1     -10.507  17.622  66.385  1.00  0.00    -0.341 OA 
HETATM   41  C   UNL     1     -10.217  16.803  67.437  1.00  0.00    -0.288 A  
HETATM   42  C   UNL     1     -11.065  15.821  67.963  1.00  0.00    -0.337 A  
ENDBRANCH  31  34
ENDBRANCH  17  20
ENDBRANCH  12  16
ENDBRANCH  11  12
ENDBRANCH   7  11
ENDBRANCH   2   5
TORSDOF 6
ENDMDL
MODEL       40
REMARK 921   NORMALIZED FREE ENERGY PREDICTED BY IDOCK:   -5.81 KCAL/MOL
REMARK 922        TOTAL FREE ENERGY PREDICTED BY IDOCK:   -8.48 KCAL/MOL
REMARK 923 INTER-LIGAND FREE ENERGY PREDICTED BY IDOCK:   -7.44 KCAL/MOL
REMARK 924 INTRA-LIGAND FREE ENERGY PREDICTED BY IDOCK:   -1.04 KCAL/MOL
REMARK 927      BINDING AFFINITY PREDICTED BY RF-SCORE:    0.00 PKD
ROOT
HETATM    1  C   UNL     1     -10.117   6.626  66.560  1.00  0.00    -0.072 C  
HETATM    2  S   UNL     1      -8.621   6.355  65.641  1.00  0.00    -0.098 S  
HETATM    3  O   UNL     1      -8.708   5.059  65.002  1.00  0.00    -0.145 OA 
HETATM    4  O   UNL     1      -8.350   7.553  64.868  1.00  0.00    -0.124 OA 
ENDROOT
BRANCH   2   5
HETATM    5  C   UNL     1      -7.356   6.205  66.879  1.00  0.00    -0.082 A  
HETATM    6  C   UNL     1      -7.590   5.337  67.950  1.00  0.00    -0.084 A  
HETATM    7  C   UNL     1      -6.582   5.048  68.872  1.00  0.00    -0.048 A  
HETATM    8  C   UNL     1      -5.352   5.714  68.732  1.00  0.00     0.000 A  
HETATM    9  C   UNL     1      -5.127   6.606  67.675  1.00  0.00    -0.004 A  
HETATM   10  C   UNL     1      -6.126   6.842  66.731  1.00  0.00    -0.036 A  
BRANCH   7  11
HETATM   11  C   UNL     1      -6.736   4.036  69.994  1.00  0.00    -0.034 C  
BRANCH  11  12
HETATM   12  CA  UNL     1      -8.130   3.771  70.604  1.00  0.00    -0.054 C  
HETATM   13  C   UNL     1      -8.002   2.995  71.931  1.00  0.00    -0.058 C  
HETATM   14  OXT UNL     1      -7.110   2.208  72.202  1.00  0.00    -0.028 OA 
HETATM   15  O   UNL     1      -9.024   3.228  72.788  1.00  0.00    -0.087 OA 
BRANCH  12  16
HETATM   16  N   UNL     1      -8.986   4.988  70.711  1.00  0.00    -0.130 N  
HETATM   17  C   UNL     1      -8.651   6.094  71.470  1.00  0.00    -0.131 C  
HETATM   18  H   UNL     1      -9.867   5.005  70.197  1.00  0.00     0.000 HD 
HETATM   19  O   UNL     1      -7.608   6.116  72.114  1.00  0.00    -0.094 OA 
BRANCH  17  20
HETATM   20  C   UNL     1      -9.526   7.320  71.413  1.00  0.00    -0.165 A  
HETATM   21  C   UNL     1      -9.207   8.354  70.505  1.00  0.00    -0.151 A  
HETATM   22 CL   UNL     1      -7.597   8.521  69.864  1.00  0.00    -0.070 Cl 
HETATM   23  C   UNL     1     -10.160   9.345  70.157  1.00  0.00    -0.273 A  
HETATM   24  C   UNL     1     -11.357   9.462  70.893  1.00  0.00    -0.386 A  
HETATM   25  C   UNL     1     -11.639   8.483  71.855  1.00  0.00    -0.410 A  
HETATM   26  C   UNL     1     -12.352  10.596  70.636  1.00  0.00    -0.369 C  
HETATM   27  C   UNL     1     -10.764   7.399  72.075  1.00  0.00    -0.219 A  
HETATM   28  N   UNL     1     -11.955  11.477  69.524  1.00  0.00    -0.331 N  
HETATM   29 CL   UNL     1     -11.351   6.165  73.140  1.00  0.00    -0.148 Cl 
HETATM   30  C   UNL     1     -11.302  10.762  68.438  1.00  0.00    -0.302 C  
HETATM   31  C   UNL     1     -11.756  12.838  69.789  1.00  0.00    -0.282 C  
HETATM   32  C   UNL     1      -9.955  10.254  68.955  1.00  0.00    -0.223 C  
HETATM   33  O   UNL     1     -11.941  13.313  70.911  1.00  0.00    -0.246 OA 
BRANCH  31  34
HETATM   34  C   UNL     1     -11.291  13.796  68.733  1.00  0.00    -0.318 A  
HETATM   35  C   UNL     1     -11.999  13.799  67.515  1.00  0.00    -0.411 A  
HETATM   36  C   UNL     1     -11.581  14.565  66.412  1.00  0.00    -0.370 A  
HETATM   37  C   UNL     1     -10.420  15.342  66.539  1.00  0.00    -0.299 A  
HETATM   38  C   UNL     1      -9.674  16.197  65.684  1.00  0.00    -0.239 A  
HETATM   39  C   UNL     1      -8.609  16.651  66.427  1.00  0.00    -0.310 A  
HETATM   40  O   UNL     1      -8.642  16.129  67.682  1.00  0.00    -0.170 OA 
HETATM   41  C   UNL     1      -9.740  15.322  67.752  1.00  0.00    -0.215 A  
HETATM   42  C   UNL     1     -10.123  14.564  68.865  1.00  0.00    -0.224 A  
ENDBRANCH  31  34
ENDBRANCH  17  20
ENDBRANCH  12  16
ENDBRANCH  11  12
ENDBRANCH   7  11
ENDBRANCH   2   5
TORSDOF 6
ENDMDL
MODEL       41
REMARK 921   NORMALIZED FREE ENERGY PREDICTED BY IDOCK:   -5.80 KCAL/MOL
REMARK 922        TOTAL FREE ENERGY PREDICTED BY IDOCK:   -8.46 KCAL/MOL
REMARK 923 INTER-LIGAND FREE ENERGY PREDICTED BY IDOCK:   -7.11 KCAL/MOL
REMARK 924 INTRA-LIGAND FREE ENERGY PREDICTED BY IDOCK:   -1.35 KCAL/MOL
REMARK 927      BINDING AFFINITY PREDICTED BY RF-SCORE:    0.00 PKD
ROOT
HETATM    1  C   UNL     1     -13.159  12.225  63.644  1.00  0.00     0.006 C  
HETATM    2  S   UNL     1     -11.661  12.218  64.598  1.00  0.00    -0.346 S  
HETATM    3  O   UNL     1     -11.946  11.624  65.887  1.00  0.00    -0.312 OA 
HETATM    4  O   UNL     1     -10.598  11.702  63.755  1.00  0.00    -0.337 OA 
ENDROOT
BRANCH   2   5
HETATM    5  C   UNL     1     -11.324  13.934  64.915  1.00  0.00    -0.347 A  
HETATM    6  C   UNL     1     -10.157  14.250  65.616  1.00  0.00    -0.364 A  
HETATM    7  C   UNL     1      -9.747  15.577  65.763  1.00  0.00    -0.383 A  
HETATM    8  C   UNL     1     -10.583  16.585  65.249  1.00  0.00    -0.273 A  
HETATM    9  C   UNL     1     -11.767  16.267  64.570  1.00  0.00     0.030 A  
HETATM   10  C   UNL     1     -12.134  14.935  64.384  1.00  0.00    -0.417 A  
BRANCH   7  11
HETATM   11  C   UNL     1      -8.439  15.984  66.419  1.00  0.00    -0.363 C  
BRANCH  11  12
HETATM   12  CA  UNL     1      -8.186  15.642  67.904  1.00  0.00    -0.148 C  
HETATM   13  C   UNL     1      -9.177  16.399  68.811  1.00  0.00    -0.239 C  
HETATM   14  OXT UNL     1      -9.670  17.486  68.560  1.00  0.00    -0.291 OA 
HETATM   15  O   UNL     1      -9.431  15.760  69.978  1.00  0.00    -0.105 OA 
BRANCH  12  16
HETATM   16  N   UNL     1      -8.126  14.178  68.187  1.00  0.00    -0.137 N  
HETATM   17  C   UNL     1      -7.033  13.385  67.889  1.00  0.00    -0.141 C  
HETATM   18  H   UNL     1      -8.936  13.737  68.623  1.00  0.00     0.000 HD 
HETATM   19  O   UNL     1      -6.040  13.867  67.355  1.00  0.00    -0.345 OA 
BRANCH  17  20
HETATM   20  C   UNL     1      -7.026  11.944  68.328  1.00  0.00    -0.077 A  
HETATM   21  C   UNL     1      -7.485  10.949  67.436  1.00  0.00    -0.100 A  
HETATM   22 CL   UNL     1      -8.537  11.349  66.107  1.00  0.00    -0.161 Cl 
HETATM   23  C   UNL     1      -7.182   9.579  67.644  1.00  0.00    -0.082 A  
HETATM   24  C   UNL     1      -6.629   9.159  68.871  1.00  0.00    -0.048 A  
HETATM   25  C   UNL     1      -6.248  10.141  69.796  1.00  0.00    -0.058 A  
HETATM   26  C   UNL     1      -6.406   7.677  69.188  1.00  0.00    -0.036 C  
HETATM   27  C   UNL     1      -6.394  11.513  69.508  1.00  0.00    -0.116 A  
HETATM   28  N   UNL     1      -6.763   6.785  68.072  1.00  0.00    -0.065 N  
HETATM   29 CL   UNL     1      -5.686  12.600  70.656  1.00  0.00    -0.177 Cl 
HETATM   30  C   UNL     1      -6.449   7.351  66.769  1.00  0.00    -0.052 C  
HETATM   31  C   UNL     1      -7.755   5.818  68.281  1.00  0.00    -0.093 C  
HETATM   32  C   UNL     1      -7.375   8.548  66.544  1.00  0.00    -0.084 C  
HETATM   33  O   UNL     1      -8.300   5.677  69.377  1.00  0.00    -0.104 OA 
BRANCH  31  34
HETATM   34  C   UNL     1      -8.225   4.908  67.185  1.00  0.00    -0.106 A  
HETATM   35  C   UNL     1      -7.336   3.899  66.764  1.00  0.00    -0.072 A  
HETATM   36  C   UNL     1      -7.618   3.068  65.666  1.00  0.00    -0.074 A  
HETATM   37  C   UNL     1      -8.823   3.261  64.973  1.00  0.00    -0.128 A  
HETATM   38  C   UNL     1      -9.443   2.677  63.836  1.00  0.00    -0.121 A  
HETATM   39  C   UNL     1     -10.635   3.341  63.663  1.00  0.00    -0.258 A  
HETATM   40  O   UNL     1     -10.791   4.302  64.613  1.00  0.00    -0.229 OA 
HETATM   41  C   UNL     1      -9.684   4.263  65.409  1.00  0.00    -0.200 A  
HETATM   42  C   UNL     1      -9.428   5.113  66.491  1.00  0.00    -0.153 A  
ENDBRANCH  31  34
ENDBRANCH  17  20
ENDBRANCH  12  16
ENDBRANCH  11  12
ENDBRANCH   7  11
ENDBRANCH   2   5
TORSDOF 6
ENDMDL
MODEL       42
REMARK 921   NORMALIZED FREE ENERGY PREDICTED BY IDOCK:   -5.74 KCAL/MOL
REMARK 922        TOTAL FREE ENERGY PREDICTED BY IDOCK:   -8.38 KCAL/MOL
REMARK 923 INTER-LIGAND FREE ENERGY PREDICTED BY IDOCK:   -9.71 KCAL/MOL
REMARK 924 INTRA-LIGAND FREE ENERGY PREDICTED BY IDOCK:    1.34 KCAL/MOL
REMARK 927      BINDING AFFINITY PREDICTED BY RF-SCORE:    0.00 PKD
ROOT
HETATM    1  C   UNL     1     -11.159  18.958  67.664  1.00  0.00    -0.040 C  
HETATM    2  S   UNL     1     -10.054  19.970  66.711  1.00  0.00    -0.481 S  
HETATM    3  O   UNL     1     -10.614  20.130  65.385  1.00  0.00    -0.345 OA 
HETATM    4  O   UNL     1      -9.699  21.124  67.516  1.00  0.00    -0.333 OA 
ENDROOT
BRANCH   2   5
HETATM    5  C   UNL     1      -8.596  18.974  66.508  1.00  0.00    -0.311 A  
HETATM    6  C   UNL     1      -8.690  17.612  66.810  1.00  0.00    -0.277 A  
HETATM    7  C   UNL     1      -7.636  16.741  66.525  1.00  0.00    -0.334 A  
HETATM    8  C   UNL     1      -6.454  17.290  65.996  1.00  0.00    -0.059 A  
HETATM    9  C   UNL     1      -6.352  18.660  65.720  1.00  0.00    -0.285 A  
HETATM   10  C   UNL     1      -7.433  19.508  65.959  1.00  0.00    -0.312 A  
BRANCH   7  11
HETATM   11  C   UNL     1      -7.711  15.238  66.729  1.00  0.00     0.024 C  
BRANCH  11  12
HETATM   12  CA  UNL     1      -7.193  14.615  68.044  1.00  0.00    -0.140 C  
HETATM   13  C   UNL     1      -6.620  15.706  68.971  1.00  0.00    -0.130 C  
HETATM   14  OXT UNL     1      -6.100  16.744  68.598  1.00  0.00    -0.139 OA 
HETATM   15  O   UNL     1      -6.697  15.387  70.285  1.00  0.00    -0.064 OA 
BRANCH  12  16
HETATM   16  N   UNL     1      -8.179  13.722  68.721  1.00  0.00    -0.320 N  
HETATM   17  C   UNL     1      -9.211  13.082  68.060  1.00  0.00    -0.212 C  
HETATM   18  H   UNL     1      -8.086  13.576  69.726  1.00  0.00     0.000 HD 
HETATM   19  O   UNL     1      -9.369  13.235  66.854  1.00  0.00    -0.230 OA 
BRANCH  17  20
HETATM   20  C   UNL     1     -10.076  12.105  68.814  1.00  0.00    -0.098 A  
HETATM   21  C   UNL     1      -9.539  10.852  69.186  1.00  0.00    -0.106 A  
HETATM   22 CL   UNL     1      -8.157  10.187  68.363  1.00  0.00    -0.101 Cl 
HETATM   23  C   UNL     1     -10.162  10.052  70.177  1.00  0.00    -0.297 A  
HETATM   24  C   UNL     1     -11.457  10.375  70.633  1.00  0.00    -0.438 A  
HETATM   25  C   UNL     1     -12.029  11.579  70.200  1.00  0.00    -0.452 A  
HETATM   26  C   UNL     1     -12.217   9.469  71.604  1.00  0.00    -0.398 C  
HETATM   27  C   UNL     1     -11.328  12.457  69.347  1.00  0.00    -0.220 A  
HETATM   28  N   UNL     1     -11.436   8.298  72.040  1.00  0.00    -0.309 N  
HETATM   29 CL   UNL     1     -12.078  13.994  69.074  1.00  0.00    -0.383 Cl 
HETATM   30  C   UNL     1     -10.020   8.590  72.205  1.00  0.00    -0.317 C  
HETATM   31  C   UNL     1     -11.940   7.020  71.768  1.00  0.00    -0.326 C  
HETATM   32  C   UNL     1      -9.438   8.879  70.820  1.00  0.00    -0.280 C  
HETATM   33  O   UNL     1     -13.028   6.858  71.212  1.00  0.00    -0.350 OA 
BRANCH  31  34
HETATM   34  C   UNL     1     -11.184   5.774  72.119  1.00  0.00    -0.327 A  
HETATM   35  C   UNL     1     -11.249   5.341  73.459  1.00  0.00    -0.243 A  
HETATM   36  C   UNL     1     -10.485   4.259  73.930  1.00  0.00    -0.288 A  
HETATM   37  C   UNL     1      -9.632   3.600  73.031  1.00  0.00    -0.160 A  
HETATM   38  C   UNL     1      -8.707   2.525  73.115  1.00  0.00    -0.071 A  
HETATM   39  C   UNL     1      -8.174   2.377  71.855  1.00  0.00    -0.057 A  
HETATM   40  O   UNL     1      -8.704   3.291  70.999  1.00  0.00    -0.069 OA 
HETATM   41  C   UNL     1      -9.587   4.046  71.714  1.00  0.00    -0.155 A  
HETATM   42  C   UNL     1     -10.326   5.125  71.216  1.00  0.00    -0.276 A  
ENDBRANCH  31  34
ENDBRANCH  17  20
ENDBRANCH  12  16
ENDBRANCH  11  12
ENDBRANCH   7  11
ENDBRANCH   2   5
TORSDOF 6
ENDMDL
MODEL       43
REMARK 921   NORMALIZED FREE ENERGY PREDICTED BY IDOCK:   -5.73 KCAL/MOL
REMARK 922        TOTAL FREE ENERGY PREDICTED BY IDOCK:   -8.36 KCAL/MOL
REMARK 923 INTER-LIGAND FREE ENERGY PREDICTED BY IDOCK:   -8.49 KCAL/MOL
REMARK 924 INTRA-LIGAND FREE ENERGY PREDICTED BY IDOCK:    0.13 KCAL/MOL
REMARK 927      BINDING AFFINITY PREDICTED BY RF-SCORE:    0.00 PKD
ROOT
HETATM    1  C   UNL     1     -12.053   8.573  72.667  1.00  0.00    -0.235 C  
HETATM    2  S   UNL     1     -12.336   7.341  71.419  1.00  0.00    -0.381 S  
HETATM    3  O   UNL     1     -13.681   6.829  71.583  1.00  0.00    -0.241 OA 
HETATM    4  O   UNL     1     -11.892   7.883  70.148  1.00  0.00     0.040 OA 
ENDROOT
BRANCH   2   5
HETATM    5  C   UNL     1     -11.249   6.005  71.854  1.00  0.00    -0.282 A  
HETATM    6  C   UNL     1     -10.091   5.832  71.091  1.00  0.00    -0.257 A  
HETATM    7  C   UNL     1      -9.115   4.908  71.469  1.00  0.00    -0.172 A  
HETATM    8  C   UNL     1      -9.369   4.107  72.597  1.00  0.00    -0.155 A  
HETATM    9  C   UNL     1     -10.544   4.262  73.345  1.00  0.00    -0.283 A  
HETATM   10  C   UNL     1     -11.483   5.228  72.986  1.00  0.00    -0.340 A  
BRANCH   7  11
HETATM   11  C   UNL     1      -7.789   4.744  70.747  1.00  0.00    -0.074 C  
BRANCH  11  12
HETATM   12  CA  UNL     1      -7.641   5.238  69.291  1.00  0.00    -0.073 C  
HETATM   13  C   UNL     1      -7.871   4.079  68.300  1.00  0.00    -0.069 C  
HETATM   14  OXT UNL     1      -7.628   2.904  68.524  1.00  0.00    -0.048 OA 
HETATM   15  O   UNL     1      -8.335   4.488  67.096  1.00  0.00    -0.105 OA 
BRANCH  12  16
HETATM   16  N   UNL     1      -8.449   6.453  68.978  1.00  0.00    -0.124 N  
HETATM   17  C   UNL     1      -8.013   7.469  68.149  1.00  0.00    -0.123 C  
HETATM   18  H   UNL     1      -9.374   6.538  69.399  1.00  0.00     0.000 HD 
HETATM   19  O   UNL     1      -6.904   7.416  67.629  1.00  0.00    -0.072 OA 
BRANCH  17  20
HETATM   20  C   UNL     1      -8.955   8.592  67.800  1.00  0.00    -0.140 A  
HETATM   21  C   UNL     1      -8.497   9.926  67.878  1.00  0.00    -0.121 A  
HETATM   22 CL   UNL     1      -7.118  10.347  68.855  1.00  0.00    -0.069 Cl 
HETATM   23  C   UNL     1      -9.198  10.982  67.242  1.00  0.00    -0.156 A  
HETATM   24  C   UNL     1     -10.492  10.759  66.727  1.00  0.00    -0.305 A  
HETATM   25  C   UNL     1     -10.985   9.447  66.724  1.00  0.00     0.163 A  
HETATM   26  C   UNL     1     -11.334  11.899  66.149  1.00  0.00    -0.324 C  
HETATM   27  C   UNL     1     -10.208   8.372  67.202  1.00  0.00    -0.292 A  
HETATM   28  N   UNL     1     -10.630  13.192  66.134  1.00  0.00    -0.275 N  
HETATM   29 CL   UNL     1     -10.869   6.793  66.937  1.00  0.00    -0.429 Cl 
HETATM   30  C   UNL     1      -9.210  13.063  65.849  1.00  0.00     0.172 C  
HETATM   31  C   UNL     1     -11.187  14.263  66.845  1.00  0.00    -0.326 C  
HETATM   32  C   UNL     1      -8.559  12.346  67.034  1.00  0.00    -0.191 C  
HETATM   33  O   UNL     1     -12.258  14.156  67.444  1.00  0.00    -0.380 OA 
BRANCH  31  34
HETATM   34  C   UNL     1     -10.508  15.598  66.935  1.00  0.00    -0.307 A  
HETATM   35  C   UNL     1      -9.512  15.876  65.978  1.00  0.00    -0.389 A  
HETATM   36  C   UNL     1      -8.726  17.041  66.038  1.00  0.00    -0.168 A  
HETATM   37  C   UNL     1      -8.946  17.943  67.090  1.00  0.00    -0.252 A  
HETATM   38  C   UNL     1      -8.366  19.170  67.510  1.00  0.00    -0.315 A  
HETATM   39  C   UNL     1      -9.042  19.545  68.648  1.00  0.00    -0.343 A  
HETATM   40  O   UNL     1      -9.997  18.630  68.964  1.00  0.00    -0.385 OA 
HETATM   41  C   UNL     1      -9.935  17.645  68.021  1.00  0.00    -0.326 A  
HETATM   42  C   UNL     1     -10.727  16.491  67.996  1.00  0.00    -0.343 A  
ENDBRANCH  31  34
ENDBRANCH  17  20
ENDBRANCH  12  16
ENDBRANCH  11  12
ENDBRANCH   7  11
ENDBRANCH   2   5
TORSDOF 6
ENDMDL
MODEL       44
REMARK 921   NORMALIZED FREE ENERGY PREDICTED BY IDOCK:   -5.60 KCAL/MOL
REMARK 922        TOTAL FREE ENERGY PREDICTED BY IDOCK:   -8.19 KCAL/MOL
REMARK 923 INTER-LIGAND FREE ENERGY PREDICTED BY IDOCK:   -6.85 KCAL/MOL
REMARK 924 INTRA-LIGAND FREE ENERGY PREDICTED BY IDOCK:   -1.34 KCAL/MOL
REMARK 927      BINDING AFFINITY PREDICTED BY RF-SCORE:    0.00 PKD
ROOT
HETATM    1  C   UNL     1      -6.668  18.173  69.567  1.00  0.00    -0.096 C  
HETATM    2  S   UNL     1      -6.773  16.600  68.749  1.00  0.00    -0.186 S  
HETATM    3  O   UNL     1      -6.391  16.782  67.364  1.00  0.00    -0.137 OA 
HETATM    4  O   UNL     1      -6.108  15.618  69.584  1.00  0.00    -0.140 OA 
ENDROOT
BRANCH   2   5
HETATM    5  C   UNL     1      -8.508  16.219  68.731  1.00  0.00    -0.240 A  
HETATM    6  C   UNL     1      -9.168  16.239  67.498  1.00  0.00    -0.206 A  
HETATM    7  C   UNL     1     -10.487  15.797  67.385  1.00  0.00    -0.297 A  
HETATM    8  C   UNL     1     -11.153  15.405  68.560  1.00  0.00    -0.295 A  
HETATM    9  C   UNL     1     -10.500  15.413  69.799  1.00  0.00    -0.303 A  
HETATM   10  C   UNL     1      -9.164  15.804  69.887  1.00  0.00     0.140 A  
BRANCH   7  11
HETATM   11  C   UNL     1     -11.227  15.692  66.062  1.00  0.00    -0.045 C  
BRANCH  11  12
HETATM   12  CA  UNL     1     -11.862  14.349  65.642  1.00  0.00    -0.355 C  
HETATM   13  C   UNL     1     -12.452  14.450  64.221  1.00  0.00    -0.272 C  
HETATM   14  OXT UNL     1     -12.900  15.466  63.716  1.00  0.00    -0.524 OA 
HETATM   15  O   UNL     1     -12.481  13.265  63.567  1.00  0.00    -0.728 OA 
BRANCH  12  16
HETATM   16  N   UNL     1     -10.965  13.170  65.826  1.00  0.00    -0.276 N  
HETATM   17  C   UNL     1     -11.300  12.065  66.586  1.00  0.00    -0.340 C  
HETATM   18  H   UNL     1     -10.054  13.181  65.367  1.00  0.00     0.000 HD 
HETATM   19  O   UNL     1     -12.379  12.011  67.166  1.00  0.00    -0.317 OA 
BRANCH  17  20
HETATM   20  C   UNL     1     -10.375  10.876  66.608  1.00  0.00    -0.289 A  
HETATM   21  C   UNL     1      -9.957  10.349  67.850  1.00  0.00    -0.167 A  
HETATM   22 CL   UNL     1     -10.016  11.312  69.300  1.00  0.00    -0.061 Cl 
HETATM   23  C   UNL     1      -9.391   9.053  67.945  1.00  0.00    -0.155 A  
HETATM   24  C   UNL     1      -9.007   8.364  66.776  1.00  0.00    -0.172 A  
HETATM   25  C   UNL     1      -9.345   8.926  65.537  1.00  0.00    -0.214 A  
HETATM   26  C   UNL     1      -8.275   7.021  66.837  1.00  0.00    -0.117 C  
HETATM   27  C   UNL     1     -10.066  10.135  65.454  1.00  0.00    -0.272 A  
HETATM   28  N   UNL     1      -8.088   6.523  68.210  1.00  0.00    -0.110 N  
HETATM   29 CL   UNL     1     -10.591  10.587  63.867  1.00  0.00     0.012 Cl 
HETATM   30  C   UNL     1      -9.210   6.830  69.084  1.00  0.00    -0.137 C  
HETATM   31  C   UNL     1      -6.783   6.303  68.669  1.00  0.00    -0.061 C  
HETATM   32  C   UNL     1      -9.245   8.346  69.284  1.00  0.00    -0.154 C  
HETATM   33  O   UNL     1      -5.803   6.481  67.943  1.00  0.00    -0.017 OA 
BRANCH  31  34
HETATM   34  C   UNL     1      -6.496   5.857  70.072  1.00  0.00    -0.039 A  
HETATM   35  C   UNL     1      -6.976   4.587  70.451  1.00  0.00    -0.041 A  
HETATM   36  C   UNL     1      -6.873   4.116  71.771  1.00  0.00    -0.030 A  
HETATM   37  C   UNL     1      -6.277   4.945  72.733  1.00  0.00    -0.030 A  
HETATM   38  C   UNL     1      -6.020   4.857  74.128  1.00  0.00    -0.035 A  
HETATM   39  C   UNL     1      -5.406   6.036  74.482  1.00  0.00    -0.037 A  
HETATM   40  O   UNL     1      -5.271   6.850  73.401  1.00  0.00    -0.040 OA 
HETATM   41  C   UNL     1      -5.810   6.192  72.333  1.00  0.00    -0.037 A  
HETATM   42  C   UNL     1      -5.906   6.695  71.031  1.00  0.00    -0.028 A  
ENDBRANCH  31  34
ENDBRANCH  17  20
ENDBRANCH  12  16
ENDBRANCH  11  12
ENDBRANCH   7  11
ENDBRANCH   2   5
TORSDOF 6
ENDMDL
MODEL       45
REMARK 921   NORMALIZED FREE ENERGY PREDICTED BY IDOCK:   -5.57 KCAL/MOL
REMARK 922        TOTAL FREE ENERGY PREDICTED BY IDOCK:   -8.15 KCAL/MOL
REMARK 923 INTER-LIGAND FREE ENERGY PREDICTED BY IDOCK:   -8.64 KCAL/MOL
REMARK 924 INTRA-LIGAND FREE ENERGY PREDICTED BY IDOCK:    0.50 KCAL/MOL
REMARK 927      BINDING AFFINITY PREDICTED BY RF-SCORE:    0.00 PKD
ROOT
HETATM    1  C   UNL     1      -6.523   2.048  71.542  1.00  0.00    -0.019 C  
HETATM    2  S   UNL     1      -6.900   3.545  70.663  1.00  0.00    -0.033 S  
HETATM    3  O   UNL     1      -5.927   4.549  71.038  1.00  0.00    -0.016 OA 
HETATM    4  O   UNL     1      -7.121   3.201  69.271  1.00  0.00    -0.044 OA 
ENDROOT
BRANCH   2   5
HETATM    5  C   UNL     1      -8.449   4.086  71.346  1.00  0.00    -0.085 A  
HETATM    6  C   UNL     1      -8.997   5.275  70.857  1.00  0.00    -0.160 A  
HETATM    7  C   UNL     1     -10.281   5.679  71.229  1.00  0.00    -0.279 A  
HETATM    8  C   UNL     1     -10.972   4.891  72.167  1.00  0.00    -0.068 A  
HETATM    9  C   UNL     1     -10.409   3.714  72.678  1.00  0.00    -0.224 A  
HETATM   10  C   UNL     1      -9.148   3.296  72.255  1.00  0.00    -0.145 A  
BRANCH   7  11
HETATM   11  C   UNL     1     -10.977   6.900  70.654  1.00  0.00    -0.304 C  
BRANCH  11  12
HETATM   12  CA  UNL     1     -10.356   7.643  69.451  1.00  0.00    -0.214 C  
HETATM   13  C   UNL     1     -10.762   6.964  68.127  1.00  0.00    -0.205 C  
HETATM   14  OXT UNL     1     -11.004   5.776  67.992  1.00  0.00    -0.230 OA 
HETATM   15  O   UNL     1     -10.784   7.814  67.073  1.00  0.00    -0.347 OA 
BRANCH  12  16
HETATM   16  N   UNL     1     -10.596   9.116  69.457  1.00  0.00    -0.222 N  
HETATM   17  C   UNL     1      -9.705  10.038  68.941  1.00  0.00    -0.181 C  
HETATM   18  H   UNL     1     -11.464   9.461  69.865  1.00  0.00     0.000 HD 
HETATM   19  O   UNL     1      -8.643   9.672  68.450  1.00  0.00    -0.118 OA 
BRANCH  17  20
HETATM   20  C   UNL     1     -10.097  11.492  68.886  1.00  0.00    -0.144 A  
HETATM   21  C   UNL     1      -9.133  12.454  68.509  1.00  0.00    -0.067 A  
HETATM   22 CL   UNL     1      -7.430  12.115  68.635  1.00  0.00    -0.114 Cl 
HETATM   23  C   UNL     1      -9.516  13.757  68.103  1.00  0.00    -0.212 A  
HETATM   24  C   UNL     1     -10.841  14.197  68.303  1.00  0.00    -0.259 A  
HETATM   25  C   UNL     1     -11.785  13.266  68.758  1.00  0.00    -0.366 A  
HETATM   26  C   UNL     1     -11.266  15.636  67.999  1.00  0.00    -0.339 C  
HETATM   27  C   UNL     1     -11.432  11.921  68.994  1.00  0.00    -0.297 A  
HETATM   28  N   UNL     1     -10.180  16.455  67.433  1.00  0.00    -0.275 N  
HETATM   29 CL   UNL     1     -12.747  10.851  69.346  1.00  0.00     0.081 Cl 
HETATM   30  C   UNL     1      -9.307  15.704  66.543  1.00  0.00    -0.276 C  
HETATM   31  C   UNL     1      -9.781  17.606  68.124  1.00  0.00    -0.310 C  
HETATM   32  C   UNL     1      -8.544  14.683  67.389  1.00  0.00    -0.212 C  
HETATM   33  O   UNL     1     -10.339  17.962  69.164  1.00  0.00    -0.340 OA 
BRANCH  31  34
HETATM   34  C   UNL     1      -8.645  18.464  67.654  1.00  0.00    -0.268 A  
HETATM   35  C   UNL     1      -7.818  19.031  68.645  1.00  0.00    -0.383 A  
HETATM   36  C   UNL     1      -6.799  19.948  68.329  1.00  0.00    -0.330 A  
HETATM   37  C   UNL     1      -6.613  20.305  66.986  1.00  0.00    -0.263 A  
HETATM   38  C   UNL     1      -5.750  21.187  66.282  1.00  0.00    -0.302 A  
HETATM   39  C   UNL     1      -6.093  21.084  64.954  1.00  0.00    -0.231 A  
HETATM   40  O   UNL     1      -7.115  20.202  64.789  1.00  0.00    -0.272 OA 
HETATM   41  C   UNL     1      -7.442  19.731  66.027  1.00  0.00    -0.320 A  
HETATM   42  C   UNL     1      -8.471  18.825  66.308  1.00  0.00    -0.256 A  
ENDBRANCH  31  34
ENDBRANCH  17  20
ENDBRANCH  12  16
ENDBRANCH  11  12
ENDBRANCH   7  11
ENDBRANCH   2   5
TORSDOF 6
ENDMDL
MODEL       46
REMARK 921   NORMALIZED FREE ENERGY PREDICTED BY IDOCK:   -5.57 KCAL/MOL
REMARK 922        TOTAL FREE ENERGY PREDICTED BY IDOCK:   -8.14 KCAL/MOL
REMARK 923 INTER-LIGAND FREE ENERGY PREDICTED BY IDOCK:   -7.75 KCAL/MOL
REMARK 924 INTRA-LIGAND FREE ENERGY PREDICTED BY IDOCK:   -0.39 KCAL/MOL
REMARK 927      BINDING AFFINITY PREDICTED BY RF-SCORE:    0.00 PKD
ROOT
HETATM    1  C   UNL     1      -7.737  14.360  70.172  1.00  0.00     0.748 C  
HETATM    2  S   UNL     1      -6.035  14.763  70.480  1.00  0.00    -0.131 S  
HETATM    3  O   UNL     1      -5.772  14.575  71.892  1.00  0.00    -0.101 OA 
HETATM    4  O   UNL     1      -5.229  14.096  69.474  1.00  0.00    -0.087 OA 
ENDROOT
BRANCH   2   5
HETATM    5  C   UNL     1      -5.930  16.513  70.193  1.00  0.00    -0.132 A  
HETATM    6  C   UNL     1      -6.741  17.060  69.195  1.00  0.00    -0.241 A  
HETATM    7  C   UNL     1      -6.829  18.443  69.021  1.00  0.00    -0.280 A  
HETATM    8  C   UNL     1      -6.021  19.261  69.831  1.00  0.00    -0.292 A  
HETATM    9  C   UNL     1      -5.188  18.710  70.813  1.00  0.00    -0.263 A  
HETATM   10  C   UNL     1      -5.152  17.330  71.011  1.00  0.00    -0.191 A  
BRANCH   7  11
HETATM   11  C   UNL     1      -7.768  19.106  68.029  1.00  0.00    -0.318 C  
BRANCH  11  12
HETATM   12  CA  UNL     1      -9.282  18.803  68.083  1.00  0.00    -0.314 C  
HETATM   13  C   UNL     1     -10.091  19.980  67.500  1.00  0.00    -0.425 C  
HETATM   14  OXT UNL     1      -9.750  21.151  67.529  1.00  0.00    -0.333 OA 
HETATM   15  O   UNL     1     -11.281  19.603  66.974  1.00  0.00    -0.319 OA 
BRANCH  12  16
HETATM   16  N   UNL     1      -9.657  17.482  67.500  1.00  0.00    -0.261 N  
HETATM   17  C   UNL     1      -9.174  17.013  66.293  1.00  0.00    -0.247 C  
HETATM   18  H   UNL     1     -10.307  16.892  68.021  1.00  0.00     0.000 HD 
HETATM   19  O   UNL     1      -8.399  17.690  65.627  1.00  0.00    -0.467 OA 
BRANCH  17  20
HETATM   20  C   UNL     1      -9.519  15.613  65.854  1.00  0.00    -0.376 A  
HETATM   21  C   UNL     1      -8.863  14.518  66.459  1.00  0.00    -0.122 A  
HETATM   22 CL   UNL     1      -7.333  14.721  67.265  1.00  0.00    -0.204 Cl 
HETATM   23  C   UNL     1      -9.379  13.202  66.350  1.00  0.00    -0.188 A  
HETATM   24  C   UNL     1     -10.416  12.925  65.437  1.00  0.00    -0.308 A  
HETATM   25  C   UNL     1     -11.016  14.002  64.770  1.00  0.00    -0.410 A  
HETATM   26  C   UNL     1     -10.915  11.497  65.194  1.00  0.00    -0.234 C  
HETATM   27  C   UNL     1     -10.611  15.330  65.015  1.00  0.00    -0.418 A  
HETATM   28  N   UNL     1     -10.251  10.498  66.048  1.00  0.00    -0.254 N  
HETATM   29 CL   UNL     1     -11.585  16.559  64.278  1.00  0.00    -0.025 Cl 
HETATM   30  C   UNL     1      -9.957  10.995  67.383  1.00  0.00    -0.182 C  
HETATM   31  C   UNL     1      -9.542   9.459  65.431  1.00  0.00    -0.226 C  
HETATM   32  C   UNL     1      -8.886  12.080  67.251  1.00  0.00    -0.183 C  
HETATM   33  O   UNL     1      -9.494   9.346  64.205  1.00  0.00    -0.017 OA 
BRANCH  31  34
HETATM   34  C   UNL     1      -8.784   8.432  66.220  1.00  0.00    -0.164 A  
HETATM   35  C   UNL     1      -7.396   8.630  66.363  1.00  0.00    -0.080 A  
HETATM   36  C   UNL     1      -6.567   7.674  66.975  1.00  0.00    -0.062 A  
HETATM   37  C   UNL     1      -7.150   6.490  67.452  1.00  0.00    -0.080 A  
HETATM   38  C   UNL     1      -6.673   5.307  68.079  1.00  0.00    -0.055 A  
HETATM   39  C   UNL     1      -7.775   4.508  68.281  1.00  0.00    -0.080 A  
HETATM   40  O   UNL     1      -8.900   5.114  67.816  1.00  0.00    -0.106 OA 
HETATM   41  C   UNL     1      -8.522   6.320  67.300  1.00  0.00    -0.108 A  
HETATM   42  C   UNL     1      -9.373   7.246  66.686  1.00  0.00    -0.215 A  
ENDBRANCH  31  34
ENDBRANCH  17  20
ENDBRANCH  12  16
ENDBRANCH  11  12
ENDBRANCH   7  11
ENDBRANCH   2   5
TORSDOF 6
ENDMDL
MODEL       47
REMARK 921   NORMALIZED FREE ENERGY PREDICTED BY IDOCK:   -5.54 KCAL/MOL
REMARK 922        TOTAL FREE ENERGY PREDICTED BY IDOCK:   -8.11 KCAL/MOL
REMARK 923 INTER-LIGAND FREE ENERGY PREDICTED BY IDOCK:   -6.72 KCAL/MOL
REMARK 924 INTRA-LIGAND FREE ENERGY PREDICTED BY IDOCK:   -1.39 KCAL/MOL
REMARK 927      BINDING AFFINITY PREDICTED BY RF-SCORE:    0.00 PKD
ROOT
HETATM    1  C   UNL     1     -11.152  11.314  63.635  1.00  0.00    -0.215 C  
HETATM    2  S   UNL     1     -12.388  12.547  63.961  1.00  0.00    -0.468 S  
HETATM    3  O   UNL     1     -12.272  13.584  62.956  1.00  0.00    -0.557 OA 
HETATM    4  O   UNL     1     -13.648  11.866  64.189  1.00  0.00    -0.481 OA 
ENDROOT
BRANCH   2   5
HETATM    5  C   UNL     1     -11.883  13.294  65.492  1.00  0.00    -0.370 A  
HETATM    6  C   UNL     1     -10.766  14.133  65.471  1.00  0.00    -0.330 A  
HETATM    7  C   UNL     1     -10.407  14.877  66.598  1.00  0.00    -0.283 A  
HETATM    8  C   UNL     1     -11.160  14.696  67.772  1.00  0.00    -0.306 A  
HETATM    9  C   UNL     1     -12.263  13.832  67.799  1.00  0.00    -0.208 A  
HETATM   10  C   UNL     1     -12.641  13.139  66.650  1.00  0.00     0.197 A  
BRANCH   7  11
HETATM   11  C   UNL     1      -9.272  15.886  66.612  1.00  0.00    -0.280 C  
BRANCH  11  12
HETATM   12  CA  UNL     1      -7.822  15.406  66.839  1.00  0.00    -0.161 C  
HETATM   13  C   UNL     1      -6.869  16.611  66.984  1.00  0.00    -0.209 C  
HETATM   14  OXT UNL     1      -7.027  17.699  66.454  1.00  0.00    -0.211 OA 
HETATM   15  O   UNL     1      -5.776  16.342  67.735  1.00  0.00    -0.113 OA 
BRANCH  12  16
HETATM   16  N   UNL     1      -7.678  14.405  67.937  1.00  0.00    -0.131 N  
HETATM   17  C   UNL     1      -7.578  13.043  67.721  1.00  0.00    -0.152 C  
HETATM   18  H   UNL     1      -7.653  14.744  68.898  1.00  0.00     0.000 HD 
HETATM   19  O   UNL     1      -7.614  12.588  66.584  1.00  0.00     0.117 OA 
BRANCH  17  20
HETATM   20  C   UNL     1      -7.314  12.129  68.890  1.00  0.00    -0.054 A  
HETATM   21  C   UNL     1      -8.059  10.935  69.015  1.00  0.00    -0.126 A  
HETATM   22 CL   UNL     1      -9.595  10.748  68.217  1.00  0.00    -0.161 Cl 
HETATM   23  C   UNL     1      -7.628   9.887  69.867  1.00  0.00    -0.167 A  
HETATM   24  C   UNL     1      -6.585  10.112  70.789  1.00  0.00    -0.003 A  
HETATM   25  C   UNL     1      -5.896  11.330  70.723  1.00  0.00    -0.044 A  
HETATM   26  C   UNL     1      -6.175   9.051  71.814  1.00  0.00    -0.065 C  
HETATM   27  C   UNL     1      -6.218  12.302  69.754  1.00  0.00    -0.125 A  
HETATM   28  N   UNL     1      -6.929   7.793  71.681  1.00  0.00    -0.060 N  
HETATM   29 CL   UNL     1      -5.144  13.657  69.665  1.00  0.00    -0.084 Cl 
HETATM   30  C   UNL     1      -7.229   7.454  70.299  1.00  0.00    -0.066 C  
HETATM   31  C   UNL     1      -7.687   7.350  72.773  1.00  0.00    -0.092 C  
HETATM   32  C   UNL     1      -8.221   8.490  69.768  1.00  0.00    -0.121 C  
HETATM   33  O   UNL     1      -7.706   7.966  73.840  1.00  0.00    -0.136 OA 
BRANCH  31  34
HETATM   34  C   UNL     1      -8.534   6.114  72.706  1.00  0.00    -0.123 A  
HETATM   35  C   UNL     1      -9.897   6.287  72.392  1.00  0.00    -0.176 A  
HETATM   36  C   UNL     1     -10.810   5.217  72.421  1.00  0.00    -0.283 A  
HETATM   37  C   UNL     1     -10.338   3.945  72.778  1.00  0.00    -0.237 A  
HETATM   38  C   UNL     1     -10.920   2.661  72.951  1.00  0.00    -0.084 A  
HETATM   39  C   UNL     1      -9.898   1.822  73.330  1.00  0.00    -0.080 A  
HETATM   40  O   UNL     1      -8.723   2.503  73.409  1.00  0.00    -0.073 OA 
HETATM   41  C   UNL     1      -8.989   3.801  73.082  1.00  0.00    -0.099 A  
HETATM   42  C   UNL     1      -8.057   4.845  73.073  1.00  0.00    -0.101 A  
ENDBRANCH  31  34
ENDBRANCH  17  20
ENDBRANCH  12  16
ENDBRANCH  11  12
ENDBRANCH   7  11
ENDBRANCH   2   5
TORSDOF 6
ENDMDL
MODEL       48
REMARK 921   NORMALIZED FREE ENERGY PREDICTED BY IDOCK:   -5.52 KCAL/MOL
REMARK 922        TOTAL FREE ENERGY PREDICTED BY IDOCK:   -8.08 KCAL/MOL
REMARK 923 INTER-LIGAND FREE ENERGY PREDICTED BY IDOCK:   -8.15 KCAL/MOL
REMARK 924 INTRA-LIGAND FREE ENERGY PREDICTED BY IDOCK:    0.07 KCAL/MOL
REMARK 927      BINDING AFFINITY PREDICTED BY RF-SCORE:    0.00 PKD
ROOT
HETATM    1  C   UNL     1     -12.257  13.244  63.231  1.00  0.00    -0.313 C  
HETATM    2  S   UNL     1     -11.500  13.029  64.824  1.00  0.00    -0.346 S  
HETATM    3  O   UNL     1     -12.463  12.400  65.703  1.00  0.00    -0.640 OA 
HETATM    4  O   UNL     1     -10.185  12.450  64.618  1.00  0.00    -0.291 OA 
ENDROOT
BRANCH   2   5
HETATM    5  C   UNL     1     -11.280  14.680  65.442  1.00  0.00    -0.347 A  
HETATM    6  C   UNL     1     -11.303  14.866  66.827  1.00  0.00    -0.328 A  
HETATM    7  C   UNL     1     -10.979  16.103  67.390  1.00  0.00    -0.210 A  
HETATM    8  C   UNL     1     -10.705  17.170  66.517  1.00  0.00    -0.074 A  
HETATM    9  C   UNL     1     -10.710  16.989  65.127  1.00  0.00    -0.066 A  
HETATM   10  C   UNL     1     -10.981  15.735  64.583  1.00  0.00    -0.333 A  
BRANCH   7  11
HETATM   11  C   UNL     1     -10.881  16.345  68.886  1.00  0.00    -0.334 C  
BRANCH  11  12
HETATM   12  CA  UNL     1     -10.682  15.152  69.845  1.00  0.00    -0.257 C  
HETATM   13  C   UNL     1     -12.021  14.754  70.500  1.00  0.00    -0.312 C  
HETATM   14  OXT UNL     1     -12.943  15.518  70.735  1.00  0.00    -0.475 OA 
HETATM   15  O   UNL     1     -12.078  13.448  70.853  1.00  0.00    -0.326 OA 
BRANCH  12  16
HETATM   16  N   UNL     1      -9.957  13.998  69.237  1.00  0.00    -0.422 N  
HETATM   17  C   UNL     1      -8.646  14.061  68.804  1.00  0.00    -0.032 C  
HETATM   18  H   UNL     1     -10.456  13.114  69.134  1.00  0.00     0.000 HD 
HETATM   19  O   UNL     1      -8.008  15.104  68.897  1.00  0.00    -0.152 OA 
BRANCH  17  20
HETATM   20  C   UNL     1      -7.968  12.806  68.317  1.00  0.00    -0.151 A  
HETATM   21  C   UNL     1      -8.756  11.747  67.816  1.00  0.00    -0.155 A  
HETATM   22 CL   UNL     1     -10.442  11.606  68.231  1.00  0.00    -0.209 Cl 
HETATM   23  C   UNL     1      -8.183  10.711  67.035  1.00  0.00    -0.124 A  
HETATM   24  C   UNL     1      -6.782  10.586  66.949  1.00  0.00    -0.086 A  
HETATM   25  C   UNL     1      -5.992  11.594  67.520  1.00  0.00    -0.079 A  
HETATM   26  C   UNL     1      -6.121   9.410  66.225  1.00  0.00    -0.060 C  
HETATM   27  C   UNL     1      -6.576  12.715  68.146  1.00  0.00    -0.081 A  
HETATM   28  N   UNL     1      -7.091   8.498  65.595  1.00  0.00    -0.078 N  
HETATM   29 CL   UNL     1      -5.478  13.971  68.610  1.00  0.00    -0.083 Cl 
HETATM   30  C   UNL     1      -8.249   9.188  65.049  1.00  0.00    -0.149 C  
HETATM   31  C   UNL     1      -7.104   7.156  65.998  1.00  0.00    -0.073 C  
HETATM   32  C   UNL     1      -9.048   9.760  66.221  1.00  0.00    -0.192 C  
HETATM   33  O   UNL     1      -6.305   6.722  66.830  1.00  0.00    -0.038 OA 
BRANCH  31  34
HETATM   34  C   UNL     1      -8.096   6.170  65.456  1.00  0.00    -0.131 A  
HETATM   35  C   UNL     1      -9.150   5.788  66.309  1.00  0.00    -0.154 A  
HETATM   36  C   UNL     1     -10.068   4.783  65.955  1.00  0.00    -0.282 A  
HETATM   37  C   UNL     1      -9.917   4.146  64.714  1.00  0.00    -0.196 A  
HETATM   38  C   UNL     1     -10.587   3.101  64.024  1.00  0.00    -0.126 A  
HETATM   39  C   UNL     1      -9.922   2.939  62.830  1.00  0.00    -0.097 A  
HETATM   40  O   UNL     1      -8.882   3.811  62.739  1.00  0.00    -0.089 OA 
HETATM   41  C   UNL     1      -8.869   4.543  63.890  1.00  0.00    -0.144 A  
HETATM   42  C   UNL     1      -7.933   5.531  64.217  1.00  0.00    -0.120 A  
ENDBRANCH  31  34
ENDBRANCH  17  20
ENDBRANCH  12  16
ENDBRANCH  11  12
ENDBRANCH   7  11
ENDBRANCH   2   5
TORSDOF 6
ENDMDL
MODEL       49
REMARK 921   NORMALIZED FREE ENERGY PREDICTED BY IDOCK:   -5.50 KCAL/MOL
REMARK 922        TOTAL FREE ENERGY PREDICTED BY IDOCK:   -8.06 KCAL/MOL
REMARK 923 INTER-LIGAND FREE ENERGY PREDICTED BY IDOCK:   -7.79 KCAL/MOL
REMARK 924 INTRA-LIGAND FREE ENERGY PREDICTED BY IDOCK:   -0.27 KCAL/MOL
REMARK 927      BINDING AFFINITY PREDICTED BY RF-SCORE:    0.00 PKD
ROOT
HETATM    1  C   UNL     1      -8.596   6.121  73.087  1.00  0.00    -0.117 C  
HETATM    2  S   UNL     1      -9.436   4.744  72.343  1.00  0.00    -0.136 S  
HETATM    3  O   UNL     1      -9.744   3.784  73.383  1.00  0.00    -0.109 OA 
HETATM    4  O   UNL     1     -10.476   5.270  71.480  1.00  0.00    -0.220 OA 
ENDROOT
BRANCH   2   5
HETATM    5  C   UNL     1      -8.209   3.973  71.315  1.00  0.00    -0.072 A  
HETATM    6  C   UNL     1      -8.049   4.459  70.014  1.00  0.00    -0.060 A  
HETATM    7  C   UNL     1      -7.002   4.012  69.206  1.00  0.00    -0.046 A  
HETATM    8  C   UNL     1      -6.162   3.005  69.714  1.00  0.00    -0.028 A  
HETATM    9  C   UNL     1      -6.341   2.499  71.009  1.00  0.00    -0.019 A  
HETATM   10  C   UNL     1      -7.357   2.995  71.823  1.00  0.00    -0.040 A  
BRANCH   7  11
HETATM   11  C   UNL     1      -6.708   4.573  67.825  1.00  0.00    -0.051 C  
BRANCH  11  12
HETATM   12  CA  UNL     1      -7.843   5.222  67.003  1.00  0.00    -0.100 C  
HETATM   13  C   UNL     1      -8.981   4.210  66.758  1.00  0.00    -0.126 C  
HETATM   14  OXT UNL     1      -8.840   3.001  66.667  1.00  0.00    -0.129 OA 
HETATM   15  O   UNL     1     -10.192   4.794  66.596  1.00  0.00    -0.231 OA 
BRANCH  12  16
HETATM   16  N   UNL     1      -8.320   6.526  67.549  1.00  0.00    -0.120 N  
HETATM   17  C   UNL     1      -8.649   7.612  66.760  1.00  0.00    -0.129 C  
HETATM   18  H   UNL     1      -8.407   6.622  68.561  1.00  0.00     0.000 HD 
HETATM   19  O   UNL     1      -8.549   7.548  65.540  1.00  0.00    -0.141 OA 
BRANCH  17  20
HETATM   20  C   UNL     1      -9.236   8.841  67.404  1.00  0.00    -0.158 A  
HETATM   21  C   UNL     1      -8.913  10.114  66.884  1.00  0.00    -0.132 A  
HETATM   22 CL   UNL     1      -7.484  10.354  65.918  1.00  0.00    -0.135 Cl 
HETATM   23  C   UNL     1      -9.687  11.257  67.207  1.00  0.00    -0.192 A  
HETATM   24  C   UNL     1     -10.642  11.192  68.242  1.00  0.00    -0.221 A  
HETATM   25  C   UNL     1     -10.907   9.943  68.820  1.00  0.00    -0.240 A  
HETATM   26  C   UNL     1     -11.408  12.433  68.709  1.00  0.00    -0.293 C  
HETATM   27  C   UNL     1     -10.254   8.776  68.371  1.00  0.00    -0.196 A  
HETATM   28  N   UNL     1     -11.086  13.642  67.931  1.00  0.00    -0.253 N  
HETATM   29 CL   UNL     1     -10.840   7.288  69.034  1.00  0.00    -0.177 Cl 
HETATM   30  C   UNL     1     -10.853  13.365  66.522  1.00  0.00    -0.282 C  
HETATM   31  C   UNL     1     -10.552  14.748  68.605  1.00  0.00    -0.255 C  
HETATM   32  C   UNL     1      -9.564  12.549  66.413  1.00  0.00    -0.247 C  
HETATM   33  O   UNL     1     -10.383  14.742  69.826  1.00  0.00    -0.138 OA 
BRANCH  31  34
HETATM   34  C   UNL     1     -10.138  15.996  67.884  1.00  0.00    -0.241 A  
HETATM   35  C   UNL     1      -8.891  15.974  67.229  1.00  0.00    -0.207 A  
HETATM   36  C   UNL     1      -8.345  17.122  66.627  1.00  0.00    -0.286 A  
HETATM   37  C   UNL     1      -9.073  18.320  66.690  1.00  0.00    -0.294 A  
HETATM   38  C   UNL     1      -8.865  19.655  66.251  1.00  0.00    -0.410 A  
HETATM   39  C   UNL     1      -9.974  20.367  66.646  1.00  0.00    -0.355 A  
HETATM   40  O   UNL     1     -10.852  19.563  67.303  1.00  0.00    -0.493 OA 
HETATM   41  C   UNL     1     -10.302  18.315  67.341  1.00  0.00    -0.392 A  
HETATM   42  C   UNL     1     -10.867  17.194  67.959  1.00  0.00    -0.317 A  
ENDBRANCH  31  34
ENDBRANCH  17  20
ENDBRANCH  12  16
ENDBRANCH  11  12
ENDBRANCH   7  11
ENDBRANCH   2   5
TORSDOF 6
ENDMDL
MODEL       50
REMARK 921   NORMALIZED FREE ENERGY PREDICTED BY IDOCK:   -5.26 KCAL/MOL
REMARK 922        TOTAL FREE ENERGY PREDICTED BY IDOCK:   -7.72 KCAL/MOL
REMARK 923 INTER-LIGAND FREE ENERGY PREDICTED BY IDOCK:   -9.03 KCAL/MOL
REMARK 924 INTRA-LIGAND FREE ENERGY PREDICTED BY IDOCK:    1.31 KCAL/MOL
REMARK 927      BINDING AFFINITY PREDICTED BY RF-SCORE:    0.00 PKD
ROOT
HETATM    1  C   UNL     1     -10.786  17.646  68.068  1.00  0.00    -0.328 C  
HETATM    2  S   UNL     1     -10.378  18.686  66.687  1.00  0.00    -0.427 S  
HETATM    3  O   UNL     1     -10.505  17.904  65.475  1.00  0.00    -0.650 OA 
HETATM    4  O   UNL     1     -11.091  19.939  66.846  1.00  0.00    -0.297 OA 
ENDROOT
BRANCH   2   5
HETATM    5  C   UNL     1      -8.642  19.017  66.874  1.00  0.00    -0.295 A  
HETATM    6  C   UNL     1      -7.765  17.929  66.854  1.00  0.00    -0.244 A  
HETATM    7  C   UNL     1      -6.382  18.123  66.835  1.00  0.00    -0.200 A  
HETATM    8  C   UNL     1      -5.902  19.443  66.913  1.00  0.00    -0.173 A  
HETATM    9  C   UNL     1      -6.783  20.532  66.961  1.00  0.00    -0.320 A  
HETATM   10  C   UNL     1      -8.161  20.323  66.923  1.00  0.00    -0.345 A  
BRANCH   7  11
HETATM   11  C   UNL     1      -5.376  16.992  66.706  1.00  0.00    -0.185 C  
BRANCH  11  12
HETATM   12  CA  UNL     1      -5.217  15.972  67.855  1.00  0.00    -0.127 C  
HETATM   13  C   UNL     1      -5.397  16.663  69.222  1.00  0.00    -0.136 C  
HETATM   14  OXT UNL     1      -5.125  17.828  69.462  1.00  0.00    -0.165 OA 
HETATM   15  O   UNL     1      -5.853  15.830  70.187  1.00  0.00    -0.157 OA 
BRANCH  12  16
HETATM   16  N   UNL     1      -6.055  14.747  67.697  1.00  0.00    -0.116 N  
HETATM   17  C   UNL     1      -7.393  14.686  68.037  1.00  0.00    -0.135 C  
HETATM   18  H   UNL     1      -5.615  13.907  67.319  1.00  0.00     0.000 HD 
HETATM   19  O   UNL     1      -7.963  15.665  68.506  1.00  0.00    -0.129 OA 
BRANCH  17  20
HETATM   20  C   UNL     1      -8.178  13.438  67.725  1.00  0.00    -0.172 A  
HETATM   21  C   UNL     1      -8.040  12.308  68.562  1.00  0.00    -0.101 A  
HETATM   22 CL   UNL     1      -6.640  12.109  69.579  1.00  0.00    -0.098 Cl 
HETATM   23  C   UNL     1      -8.987  11.254  68.534  1.00  0.00    -0.166 A  
HETATM   24  C   UNL     1      -9.947  11.196  67.503  1.00  0.00    -0.204 A  
HETATM   25  C   UNL     1     -10.032  12.278  66.617  1.00  0.00    -0.229 A  
HETATM   26  C   UNL     1     -10.905  10.009  67.362  1.00  0.00    -0.249 C  
HETATM   27  C   UNL     1      -9.198  13.406  66.758  1.00  0.00    -0.236 A  
HETATM   28  N   UNL     1     -10.752   9.009  68.432  1.00  0.00    -0.149 N  
HETATM   29 CL   UNL     1      -9.566  14.745  65.723  1.00  0.00    -0.336 Cl 
HETATM   30  C   UNL     1     -10.444   9.601  69.724  1.00  0.00    -0.238 C  
HETATM   31  C   UNL     1     -10.410   7.698  68.076  1.00  0.00    -0.205 C  
HETATM   32  C   UNL     1      -9.043  10.209  69.638  1.00  0.00    -0.195 C  
HETATM   33  O   UNL     1     -10.273   7.362  66.898  1.00  0.00    -0.243 OA 
BRANCH  31  34
HETATM   34  C   UNL     1     -10.174   6.629  69.101  1.00  0.00    -0.201 A  
HETATM   35  C   UNL     1      -9.289   5.590  68.752  1.00  0.00    -0.152 A  
HETATM   36  C   UNL     1      -9.085   4.474  69.583  1.00  0.00    -0.166 A  
HETATM   37  C   UNL     1      -9.793   4.402  70.792  1.00  0.00    -0.273 A  
HETATM   38  C   UNL     1      -9.891   3.464  71.854  1.00  0.00    -0.238 A  
HETATM   39  C   UNL     1     -10.789   3.992  72.753  1.00  0.00    -0.048 A  
HETATM   40  O   UNL     1     -11.258   5.191  72.315  1.00  0.00    -0.167 OA 
HETATM   41  C   UNL     1     -10.660   5.441  71.114  1.00  0.00    -0.206 A  
HETATM   42  C   UNL     1     -10.893   6.559  70.305  1.00  0.00    -0.333 A  
ENDBRANCH  31  34
ENDBRANCH  17  20
ENDBRANCH  12  16
ENDBRANCH  11  12
ENDBRANCH   7  11
ENDBRANCH   2   5
TORSDOF 6
ENDMDL
MODEL       51
REMARK 921   NORMALIZED FREE ENERGY PREDICTED BY IDOCK:   -5.18 KCAL/MOL
REMARK 922        TOTAL FREE ENERGY PREDICTED BY IDOCK:   -7.62 KCAL/MOL
REMARK 923 INTER-LIGAND FREE ENERGY PREDICTED BY IDOCK:   -7.71 KCAL/MOL
REMARK 924 INTRA-LIGAND FREE ENERGY PREDICTED BY IDOCK:    0.09 KCAL/MOL
REMARK 927      BINDING AFFINITY PREDICTED BY RF-SCORE:    0.00 PKD
ROOT
HETATM    1  C   UNL     1      -5.292  20.328  68.799  1.00  0.00    -0.231 C  
HETATM    2  S   UNL     1      -5.992  18.728  68.473  1.00  0.00    -0.213 S  
HETATM    3  O   UNL     1      -5.334  18.173  67.309  1.00  0.00    -0.130 OA 
HETATM    4  O   UNL     1      -6.037  17.997  69.726  1.00  0.00    -0.246 OA 
ENDROOT
BRANCH   2   5
HETATM    5  C   UNL     1      -7.664  19.064  67.975  1.00  0.00    -0.273 A  
HETATM    6  C   UNL     1      -8.584  18.013  68.026  1.00  0.00    -0.267 A  
HETATM    7  C   UNL     1      -9.944  18.239  67.804  1.00  0.00    -0.343 A  
HETATM    8  C   UNL     1     -10.345  19.540  67.452  1.00  0.00    -0.572 A  
HETATM    9  C   UNL     1      -9.418  20.587  67.373  1.00  0.00    -0.551 A  
HETATM   10  C   UNL     1      -8.072  20.356  67.652  1.00  0.00    -0.283 A  
BRANCH   7  11
HETATM   11  C   UNL     1     -11.008  17.165  67.948  1.00  0.00    -0.208 C  
BRANCH  11  12
HETATM   12  CA  UNL     1     -10.907  15.866  67.119  1.00  0.00    -0.267 C  
HETATM   13  C   UNL     1     -10.585  16.188  65.645  1.00  0.00    -0.363 C  
HETATM   14  OXT UNL     1     -10.918  17.206  65.060  1.00  0.00    -0.614 OA 
HETATM   15  O   UNL     1      -9.922  15.193  65.012  1.00  0.00    -0.293 OA 
BRANCH  12  16
HETATM   16  N   UNL     1     -10.000  14.838  67.710  1.00  0.00    -0.222 N  
HETATM   17  C   UNL     1     -10.200  13.477  67.581  1.00  0.00    -0.239 C  
HETATM   18  H   UNL     1      -9.188  15.158  68.239  1.00  0.00     0.000 HD 
HETATM   19  O   UNL     1     -11.168  13.045  66.965  1.00  0.00    -0.269 OA 
BRANCH  17  20
HETATM   20  C   UNL     1      -9.160  12.525  68.112  1.00  0.00    -0.204 A  
HETATM   21  C   UNL     1      -9.463  11.147  68.196  1.00  0.00    -0.180 A  
HETATM   22 CL   UNL     1     -11.113  10.592  68.235  1.00  0.00    -0.319 Cl 
HETATM   23  C   UNL     1      -8.439  10.178  68.345  1.00  0.00    -0.118 A  
HETATM   24  C   UNL     1      -7.125  10.583  68.658  1.00  0.00    -0.077 A  
HETATM   25  C   UNL     1      -6.839  11.955  68.658  1.00  0.00    -0.086 A  
HETATM   26  C   UNL     1      -6.020   9.566  68.955  1.00  0.00    -0.042 C  
HETATM   27  C   UNL     1      -7.826  12.909  68.337  1.00  0.00    -0.133 A  
HETATM   28  N   UNL     1      -6.462   8.169  68.812  1.00  0.00    -0.051 N  
HETATM   29 CL   UNL     1      -7.267  14.540  68.173  1.00  0.00    -0.116 Cl 
HETATM   30  C   UNL     1      -7.411   7.981  67.726  1.00  0.00    -0.093 C  
HETATM   31  C   UNL     1      -6.380   7.325  69.928  1.00  0.00    -0.035 C  
HETATM   32  C   UNL     1      -8.706   8.700  68.107  1.00  0.00    -0.142 C  
HETATM   33  O   UNL     1      -5.917   7.715  71.002  1.00  0.00    -0.034 OA 
BRANCH  31  34
HETATM   34  C   UNL     1      -6.864   5.906  69.892  1.00  0.00    -0.064 A  
HETATM   35  C   UNL     1      -6.025   4.959  69.273  1.00  0.00    -0.018 A  
HETATM   36  C   UNL     1      -6.427   3.626  69.072  1.00  0.00    -0.033 A  
HETATM   37  C   UNL     1      -7.706   3.242  69.501  1.00  0.00    -0.050 A  
HETATM   38  C   UNL     1      -8.473   2.046  69.457  1.00  0.00    -0.087 A  
HETATM   39  C   UNL     1      -9.680   2.340  70.049  1.00  0.00     0.113 A  
HETATM   40  O   UNL     1      -9.713   3.639  70.451  1.00  0.00    -0.189 OA 
HETATM   41  C   UNL     1      -8.515   4.196  70.110  1.00  0.00    -0.064 A  
HETATM   42  C   UNL     1      -8.149   5.531  70.316  1.00  0.00    -0.102 A  
ENDBRANCH  31  34
ENDBRANCH  17  20
ENDBRANCH  12  16
ENDBRANCH  11  12
ENDBRANCH   7  11
ENDBRANCH   2   5
TORSDOF 6
ENDMDL
MODEL       52
REMARK 921   NORMALIZED FREE ENERGY PREDICTED BY IDOCK:   -5.16 KCAL/MOL
REMARK 922        TOTAL FREE ENERGY PREDICTED BY IDOCK:   -7.60 KCAL/MOL
REMARK 923 INTER-LIGAND FREE ENERGY PREDICTED BY IDOCK:   -6.75 KCAL/MOL
REMARK 924 INTRA-LIGAND FREE ENERGY PREDICTED BY IDOCK:   -0.84 KCAL/MOL
REMARK 927      BINDING AFFINITY PREDICTED BY RF-SCORE:    0.00 PKD
ROOT
HETATM    1  C   UNL     1      -5.639  20.506  67.797  1.00  0.00    -0.211 C  
HETATM    2  S   UNL     1      -6.376  19.083  67.031  1.00  0.00    -0.186 S  
HETATM    3  O   UNL     1      -6.344  19.272  65.596  1.00  0.00    -0.202 OA 
HETATM    4  O   UNL     1      -5.801  17.899  67.642  1.00  0.00    -0.140 OA 
ENDROOT
BRANCH   2   5
HETATM    5  C   UNL     1      -8.089  19.161  67.495  1.00  0.00    -0.273 A  
HETATM    6  C   UNL     1      -8.815  17.966  67.512  1.00  0.00    -0.248 A  
HETATM    7  C   UNL     1     -10.117  17.926  68.017  1.00  0.00    -0.360 A  
HETATM    8  C   UNL     1     -10.697  19.137  68.436  1.00  0.00     0.005 A  
HETATM    9  C   UNL     1      -9.978  20.338  68.392  1.00  0.00    -0.323 A  
HETATM   10  C   UNL     1      -8.660  20.352  67.936  1.00  0.00    -0.149 A  
BRANCH   7  11
HETATM   11  C   UNL     1     -10.922  16.647  68.163  1.00  0.00    -0.327 C  
BRANCH  11  12
HETATM   12  CA  UNL     1     -10.715  15.747  69.401  1.00  0.00    -0.266 C  
HETATM   13  C   UNL     1     -12.072  15.373  70.032  1.00  0.00    -0.359 C  
HETATM   14  OXT UNL     1     -13.076  16.065  70.000  1.00  0.00     0.014 OA 
HETATM   15  O   UNL     1     -12.049  14.191  70.692  1.00  0.00    -0.314 OA 
BRANCH  12  16
HETATM   16  N   UNL     1      -9.834  14.567  69.153  1.00  0.00    -0.389 N  
HETATM   17  C   UNL     1      -9.939  13.754  68.041  1.00  0.00    -0.246 C  
HETATM   18  H   UNL     1      -9.115  14.349  69.843  1.00  0.00     0.000 HD 
HETATM   19  O   UNL     1     -10.795  13.970  67.189  1.00  0.00    -0.281 OA 
BRANCH  17  20
HETATM   20  C   UNL     1      -8.922  12.664  67.825  1.00  0.00    -0.189 A  
HETATM   21  C   UNL     1      -9.349  11.317  67.794  1.00  0.00    -0.163 A  
HETATM   22 CL   UNL     1     -10.858  10.837  68.519  1.00  0.00    -0.245 Cl 
HETATM   23  C   UNL     1      -8.524  10.297  67.257  1.00  0.00    -0.125 A  
HETATM   24  C   UNL     1      -7.170  10.565  66.969  1.00  0.00    -0.098 A  
HETATM   25  C   UNL     1      -6.720  11.887  67.079  1.00  0.00    -0.119 A  
HETATM   26  C   UNL     1      -6.212   9.462  66.510  1.00  0.00    -0.065 C  
HETATM   27  C   UNL     1      -7.594  12.930  67.448  1.00  0.00    -0.148 A  
HETATM   28  N   UNL     1      -6.868   8.153  66.348  1.00  0.00    -0.065 N  
HETATM   29 CL   UNL     1      -6.943  14.531  67.334  1.00  0.00    -0.184 Cl 
HETATM   30  C   UNL     1      -8.226   8.258  65.836  1.00  0.00    -0.119 C  
HETATM   31  C   UNL     1      -6.407   7.075  67.115  1.00  0.00    -0.052 C  
HETATM   32  C   UNL     1      -9.082   8.925  66.914  1.00  0.00    -0.163 C  
HETATM   33  O   UNL     1      -5.452   7.191  67.885  1.00  0.00    -0.019 OA 
BRANCH  31  34
HETATM   34  C   UNL     1      -7.054   5.724  67.060  1.00  0.00    -0.070 A  
HETATM   35  C   UNL     1      -7.088   5.080  65.807  1.00  0.00    -0.068 A  
HETATM   36  C   UNL     1      -7.774   3.868  65.610  1.00  0.00    -0.089 A  
HETATM   37  C   UNL     1      -8.445   3.295  66.701  1.00  0.00    -0.107 A  
HETATM   38  C   UNL     1      -9.249   2.141  66.903  1.00  0.00    -0.049 A  
HETATM   39  C   UNL     1      -9.622   2.158  68.227  1.00  0.00    -0.068 A  
HETATM   40  O   UNL     1      -9.106   3.248  68.856  1.00  0.00    -0.118 OA 
HETATM   41  C   UNL     1      -8.396   3.950  67.927  1.00  0.00    -0.093 A  
HETATM   42  C   UNL     1      -7.731   5.160  68.153  1.00  0.00    -0.084 A  
ENDBRANCH  31  34
ENDBRANCH  17  20
ENDBRANCH  12  16
ENDBRANCH  11  12
ENDBRANCH   7  11
ENDBRANCH   2   5
TORSDOF 6
ENDMDL
MODEL       53
REMARK 921   NORMALIZED FREE ENERGY PREDICTED BY IDOCK:   -5.09 KCAL/MOL
REMARK 922        TOTAL FREE ENERGY PREDICTED BY IDOCK:   -7.49 KCAL/MOL
REMARK 923 INTER-LIGAND FREE ENERGY PREDICTED BY IDOCK:   -6.32 KCAL/MOL
REMARK 924 INTRA-LIGAND FREE ENERGY PREDICTED BY IDOCK:   -1.17 KCAL/MOL
REMARK 927      BINDING AFFINITY PREDICTED BY RF-SCORE:    0.00 PKD
ROOT
HETATM    1  C   UNL     1     -11.819   9.242  70.900  1.00  0.00    -0.282 C  
HETATM    2  S   UNL     1     -12.602   7.982  71.876  1.00  0.00    -0.324 S  
HETATM    3  O   UNL     1     -13.187   8.608  73.043  1.00  0.00    -0.239 OA 
HETATM    4  O   UNL     1     -13.404   7.162  70.986  1.00  0.00    -0.270 OA 
ENDROOT
BRANCH   2   5
HETATM    5  C   UNL     1     -11.261   6.984  72.478  1.00  0.00    -0.275 A  
HETATM    6  C   UNL     1     -10.989   5.785  71.812  1.00  0.00    -0.317 A  
HETATM    7  C   UNL     1      -9.856   5.031  72.127  1.00  0.00    -0.220 A  
HETATM    8  C   UNL     1      -9.043   5.476  73.185  1.00  0.00    -0.126 A  
HETATM    9  C   UNL     1      -9.333   6.664  73.871  1.00  0.00    -0.203 A  
HETATM   10  C   UNL     1     -10.437   7.434  73.507  1.00  0.00    -0.396 A  
BRANCH   7  11
HETATM   11  C   UNL     1      -9.445   3.779  71.373  1.00  0.00    -0.225 C  
BRANCH  11  12
HETATM   12  CA  UNL     1      -8.891   3.895  69.936  1.00  0.00    -0.086 C  
HETATM   13  C   UNL     1      -9.452   2.766  69.047  1.00  0.00    -0.090 C  
HETATM   14  OXT UNL     1      -9.773   1.656  69.439  1.00  0.00    -0.044 OA 
HETATM   15  O   UNL     1      -9.516   3.099  67.736  1.00  0.00    -0.204 OA 
BRANCH  12  16
HETATM   16  N   UNL     1      -9.044   5.252  69.335  1.00  0.00    -0.103 N  
HETATM   17  C   UNL     1      -7.977   6.054  68.975  1.00  0.00    -0.104 C  
HETATM   18  H   UNL     1      -9.987   5.608  69.182  1.00  0.00     0.000 HD 
HETATM   19  O   UNL     1      -6.824   5.673  69.149  1.00  0.00    -0.057 OA 
BRANCH  17  20
HETATM   20  C   UNL     1      -8.239   7.355  68.262  1.00  0.00    -0.125 A  
HETATM   21  C   UNL     1      -7.689   8.549  68.780  1.00  0.00    -0.102 A  
HETATM   22 CL   UNL     1      -7.200   8.663  70.448  1.00  0.00    -0.042 Cl 
HETATM   23  C   UNL     1      -7.601   9.721  67.988  1.00  0.00    -0.082 A  
HETATM   24  C   UNL     1      -8.282   9.792  66.755  1.00  0.00    -0.120 A  
HETATM   25  C   UNL     1      -8.903   8.630  66.276  1.00  0.00    -0.187 A  
HETATM   26  C   UNL     1      -8.322  11.081  65.930  1.00  0.00    -0.119 C  
HETATM   27  C   UNL     1      -8.837   7.417  66.991  1.00  0.00    -0.128 A  
HETATM   28  N   UNL     1      -7.536  12.175  66.525  1.00  0.00     0.190 N  
HETATM   29 CL   UNL     1      -9.467   6.027  66.171  1.00  0.00    -0.151 Cl 
HETATM   30  C   UNL     1      -6.320  11.713  67.176  1.00  0.00    -0.139 C  
HETATM   31  C   UNL     1      -8.195  13.364  66.863  1.00  0.00     0.058 C  
HETATM   32  C   UNL     1      -6.728  10.895  68.403  1.00  0.00    -0.059 C  
HETATM   33  O   UNL     1      -9.397  13.522  66.642  1.00  0.00    -0.255 OA 
BRANCH  31  34
HETATM   34  C   UNL     1      -7.488  14.506  67.529  1.00  0.00    -0.216 A  
HETATM   35  C   UNL     1      -7.266  14.401  68.916  1.00  0.00    -0.125 A  
HETATM   36  C   UNL     1      -6.723  15.460  69.666  1.00  0.00    -0.184 A  
HETATM   37  C   UNL     1      -6.401  16.653  69.002  1.00  0.00    -0.183 A  
HETATM   38  C   UNL     1      -5.883  17.919  69.388  1.00  0.00    -0.230 A  
HETATM   39  C   UNL     1      -5.815  18.673  68.239  1.00  0.00    -0.201 A  
HETATM   40  O   UNL     1      -6.261  17.961  67.170  1.00  0.00    -0.146 OA 
HETATM   41  C   UNL     1      -6.628  16.731  67.632  1.00  0.00    -0.144 A  
HETATM   42  C   UNL     1      -7.176  15.701  66.860  1.00  0.00    -0.068 A  
ENDBRANCH  31  34
ENDBRANCH  17  20
ENDBRANCH  12  16
ENDBRANCH  11  12
ENDBRANCH   7  11
ENDBRANCH   2   5
TORSDOF 6
ENDMDL
MODEL       54
REMARK 921   NORMALIZED FREE ENERGY PREDICTED BY IDOCK:   -5.00 KCAL/MOL
REMARK 922        TOTAL FREE ENERGY PREDICTED BY IDOCK:   -7.38 KCAL/MOL
REMARK 923 INTER-LIGAND FREE ENERGY PREDICTED BY IDOCK:   -7.82 KCAL/MOL
REMARK 924 INTRA-LIGAND FREE ENERGY PREDICTED BY IDOCK:    0.44 KCAL/MOL
REMARK 927      BINDING AFFINITY PREDICTED BY RF-SCORE:    0.00 PKD
ROOT
HETATM    1  C   UNL     1      -8.830   6.269  74.116  1.00  0.00    -0.135 C  
HETATM    2  S   UNL     1      -8.289   7.220  72.718  1.00  0.00    -0.110 S  
HETATM    3  O   UNL     1      -8.370   8.624  73.064  1.00  0.00    -0.404 OA 
HETATM    4  O   UNL     1      -7.050   6.640  72.235  1.00  0.00    -0.071 OA 
ENDROOT
BRANCH   2   5
HETATM    5  C   UNL     1      -9.537   6.950  71.483  1.00  0.00    -0.162 A  
HETATM    6  C   UNL     1      -9.171   6.258  70.325  1.00  0.00    -0.163 A  
HETATM    7  C   UNL     1     -10.130   5.871  69.387  1.00  0.00    -0.260 A  
HETATM    8  C   UNL     1     -11.462   6.265  69.608  1.00  0.00    -0.425 A  
HETATM    9  C   UNL     1     -11.824   6.984  70.755  1.00  0.00    -0.401 A  
HETATM   10  C   UNL     1     -10.862   7.315  71.709  1.00  0.00    -0.251 A  
BRANCH   7  11
HETATM   11  C   UNL     1      -9.816   5.027  68.164  1.00  0.00    -0.203 C  
BRANCH  11  12
HETATM   12  CA  UNL     1      -8.431   5.137  67.490  1.00  0.00    -0.105 C  
HETATM   13  C   UNL     1      -8.480   4.571  66.056  1.00  0.00    -0.114 C  
HETATM   14  OXT UNL     1      -9.221   3.679  65.677  1.00  0.00    -0.144 OA 
HETATM   15  O   UNL     1      -7.566   5.129  65.228  1.00  0.00    -0.079 OA 
BRANCH  12  16
HETATM   16  N   UNL     1      -7.825   6.499  67.567  1.00  0.00    -0.111 N  
HETATM   17  C   UNL     1      -8.357   7.609  66.938  1.00  0.00    -0.124 C  
HETATM   18  H   UNL     1      -6.972   6.617  68.114  1.00  0.00     0.000 HD 
HETATM   19  O   UNL     1      -9.375   7.515  66.262  1.00  0.00    -0.172 OA 
BRANCH  17  20
HETATM   20  C   UNL     1      -7.737   8.961  67.180  1.00  0.00    -0.095 A  
HETATM   21  C   UNL     1      -8.541  10.118  67.073  1.00  0.00    -0.129 A  
HETATM   22 CL   UNL     1     -10.027  10.099  66.166  1.00  0.00    -0.293 Cl 
HETATM   23  C   UNL     1      -8.120  11.357  67.620  1.00  0.00    -0.124 A  
HETATM   24  C   UNL     1      -6.792  11.518  68.063  1.00  0.00    -0.064 A  
HETATM   25  C   UNL     1      -5.964  10.387  68.092  1.00  0.00    -0.044 A  
HETATM   26  C   UNL     1      -6.261  12.872  68.540  1.00  0.00    -0.077 C  
HETATM   27  C   UNL     1      -6.444   9.118  67.709  1.00  0.00    -0.056 A  
HETATM   28  N   UNL     1      -7.286  13.930  68.542  1.00  0.00    -0.099 N  
HETATM   29 CL   UNL     1      -5.370   7.791  68.001  1.00  0.00    -0.030 Cl 
HETATM   30  C   UNL     1      -8.604  13.442  68.918  1.00  0.00     0.240 C  
HETATM   31  C   UNL     1      -7.073  15.068  67.753  1.00  0.00    -0.170 C  
HETATM   32  C   UNL     1      -9.093  12.512  67.807  1.00  0.00    -0.191 C  
HETATM   33  O   UNL     1      -6.042  15.215  67.095  1.00  0.00    -0.276 OA 
BRANCH  31  34
HETATM   34  C   UNL     1      -8.090  16.165  67.647  1.00  0.00    -0.163 A  
HETATM   35  C   UNL     1      -8.897  16.181  66.492  1.00  0.00    -0.331 A  
HETATM   36  C   UNL     1      -9.798  17.227  66.227  1.00  0.00    -0.299 A  
HETATM   37  C   UNL     1      -9.883  18.285  67.145  1.00  0.00    -0.329 A  
HETATM   38  C   UNL     1     -10.615  19.500  67.225  1.00  0.00    -0.610 A  
HETATM   39  C   UNL     1     -10.224  20.109  68.396  1.00  0.00    -0.300 A  
HETATM   40  O   UNL     1      -9.295  19.355  69.041  1.00  0.00    -0.373 OA 
HETATM   41  C   UNL     1      -9.076  18.246  68.277  1.00  0.00    -0.305 A  
HETATM   42  C   UNL     1      -8.163  17.225  68.565  1.00  0.00    -0.267 A  
ENDBRANCH  31  34
ENDBRANCH  17  20
ENDBRANCH  12  16
ENDBRANCH  11  12
ENDBRANCH   7  11
ENDBRANCH   2   5
TORSDOF 6
ENDMDL
MODEL       55
REMARK 921   NORMALIZED FREE ENERGY PREDICTED BY IDOCK:   -4.92 KCAL/MOL
REMARK 922        TOTAL FREE ENERGY PREDICTED BY IDOCK:   -7.27 KCAL/MOL
REMARK 923 INTER-LIGAND FREE ENERGY PREDICTED BY IDOCK:   -6.58 KCAL/MOL
REMARK 924 INTRA-LIGAND FREE ENERGY PREDICTED BY IDOCK:   -0.69 KCAL/MOL
REMARK 927      BINDING AFFINITY PREDICTED BY RF-SCORE:    0.00 PKD
ROOT
HETATM    1  C   UNL     1     -12.604  11.735  63.224  1.00  0.00    -0.254 C  
HETATM    2  S   UNL     1     -10.939  11.888  63.822  1.00  0.00    -0.461 S  
HETATM    3  O   UNL     1     -10.609  10.689  64.563  1.00  0.00    -0.304 OA 
HETATM    4  O   UNL     1     -10.108  12.338  62.721  1.00  0.00     0.024 OA 
ENDROOT
BRANCH   2   5
HETATM    5  C   UNL     1     -11.013  13.198  65.021  1.00  0.00    -0.303 A  
HETATM    6  C   UNL     1     -11.733  12.965  66.197  1.00  0.00    -0.451 A  
HETATM    7  C   UNL     1     -11.703  13.884  67.249  1.00  0.00    -0.418 A  
HETATM    8  C   UNL     1     -10.989  15.080  67.057  1.00  0.00    -0.318 A  
HETATM    9  C   UNL     1     -10.291  15.324  65.867  1.00  0.00    -0.346 A  
HETATM   10  C   UNL     1     -10.285  14.373  64.848  1.00  0.00    -0.357 A  
BRANCH   7  11
HETATM   11  C   UNL     1     -12.374  13.646  68.590  1.00  0.00     0.003 C  
BRANCH  11  12
HETATM   12  CA  UNL     1     -11.567  13.026  69.753  1.00  0.00    -0.216 C  
HETATM   13  C   UNL     1     -12.470  12.813  70.985  1.00  0.00    -0.277 C  
HETATM   14  OXT UNL     1     -13.440  13.496  71.273  1.00  0.00    -0.222 OA 
HETATM   15  O   UNL     1     -12.059  11.798  71.781  1.00  0.00     0.361 OA 
BRANCH  12  16
HETATM   16  N   UNL     1     -10.790  11.810  69.372  1.00  0.00    -0.441 N  
HETATM   17  C   UNL     1      -9.550  11.855  68.764  1.00  0.00    -0.012 C  
HETATM   18  H   UNL     1     -11.197  10.896  69.571  1.00  0.00     0.000 HD 
HETATM   19  O   UNL     1      -9.025  12.930  68.495  1.00  0.00    -0.152 OA 
BRANCH  17  20
HETATM   20  C   UNL     1      -8.795  10.571  68.532  1.00  0.00    -0.144 A  
HETATM   21  C   UNL     1      -9.354   9.584  67.690  1.00  0.00    -0.123 A  
HETATM   22 CL   UNL     1     -11.063   9.549  67.359  1.00  0.00    -0.098 Cl 
HETATM   23  C   UNL     1      -8.560   8.536  67.160  1.00  0.00    -0.123 A  
HETATM   24  C   UNL     1      -7.260   8.316  67.658  1.00  0.00    -0.088 A  
HETATM   25  C   UNL     1      -6.731   9.249  68.561  1.00  0.00    -0.058 A  
HETATM   26  C   UNL     1      -6.418   7.119  67.208  1.00  0.00    -0.057 C  
HETATM   27  C   UNL     1      -7.466  10.388  68.950  1.00  0.00    -0.099 A  
HETATM   28  N   UNL     1      -7.080   6.296  66.182  1.00  0.00    -0.066 N  
HETATM   29 CL   UNL     1      -6.600  11.550  69.899  1.00  0.00    -0.107 Cl 
HETATM   30  C   UNL     1      -7.866   7.081  65.244  1.00  0.00    -0.121 C  
HETATM   31  C   UNL     1      -7.327   4.946  66.466  1.00  0.00    -0.082 C  
HETATM   32  C   UNL     1      -9.052   7.673  66.009  1.00  0.00    -0.152 C  
HETATM   33  O   UNL     1      -6.974   4.433  67.529  1.00  0.00    -0.060 OA 
BRANCH  31  34
HETATM   34  C   UNL     1      -8.051   4.050  65.506  1.00  0.00    -0.101 A  
HETATM   35  C   UNL     1      -7.261   3.222  64.683  1.00  0.00    -0.062 A  
HETATM   36  C   UNL     1      -7.822   2.432  63.664  1.00  0.00    -0.068 A  
HETATM   37  C   UNL     1      -9.210   2.481  63.467  1.00  0.00    -0.094 A  
HETATM   38  C   UNL     1     -10.126   1.883  62.560  1.00  0.00    -0.095 A  
HETATM   39  C   UNL     1     -11.370   2.364  62.897  1.00  0.00    -0.050 A  
HETATM   40  O   UNL     1     -11.285   3.222  63.948  1.00  0.00    -0.253 OA 
HETATM   41  C   UNL     1      -9.967   3.304  64.293  1.00  0.00    -0.166 A  
HETATM   42  C   UNL     1      -9.440   4.110  65.309  1.00  0.00    -0.173 A  
ENDBRANCH  31  34
ENDBRANCH  17  20
ENDBRANCH  12  16
ENDBRANCH  11  12
ENDBRANCH   7  11
ENDBRANCH   2   5
TORSDOF 6
ENDMDL
MODEL       56
REMARK 921   NORMALIZED FREE ENERGY PREDICTED BY IDOCK:   -4.68 KCAL/MOL
REMARK 922        TOTAL FREE ENERGY PREDICTED BY IDOCK:   -6.94 KCAL/MOL
REMARK 923 INTER-LIGAND FREE ENERGY PREDICTED BY IDOCK:   -7.14 KCAL/MOL
REMARK 924 INTRA-LIGAND FREE ENERGY PREDICTED BY IDOCK:    0.19 KCAL/MOL
REMARK 927      BINDING AFFINITY PREDICTED BY RF-SCORE:    0.00 PKD
ROOT
HETATM    1  C   UNL     1     -12.006   6.936  72.042  1.00  0.00    -0.306 C  
HETATM    2  S   UNL     1     -10.851   6.016  73.030  1.00  0.00    -0.258 S  
HETATM    3  O   UNL     1     -10.624   6.745  74.260  1.00  0.00    -0.257 OA 
HETATM    4  O   UNL     1     -11.286   4.632  73.051  1.00  0.00    -0.253 OA 
ENDROOT
BRANCH   2   5
HETATM    5  C   UNL     1      -9.324   6.097  72.125  1.00  0.00    -0.151 A  
HETATM    6  C   UNL     1      -8.965   4.990  71.351  1.00  0.00    -0.159 A  
HETATM    7  C   UNL     1      -7.865   5.042  70.492  1.00  0.00    -0.074 A  
HETATM    8  C   UNL     1      -7.089   6.215  70.489  1.00  0.00    -0.071 A  
HETATM    9  C   UNL     1      -7.434   7.314  71.286  1.00  0.00    -0.079 A  
HETATM   10  C   UNL     1      -8.567   7.266  72.097  1.00  0.00    -0.126 A  
BRANCH   7  11
HETATM   11  C   UNL     1      -7.484   3.916  69.547  1.00  0.00    -0.053 C  
BRANCH  11  12
HETATM   12  CA  UNL     1      -8.004   3.925  68.093  1.00  0.00    -0.076 C  
HETATM   13  C   UNL     1      -9.170   2.929  67.929  1.00  0.00    -0.205 C  
HETATM   14  OXT UNL     1      -9.313   1.902  68.573  1.00  0.00    -0.159 OA 
HETATM   15  O   UNL     1     -10.032   3.270  66.943  1.00  0.00     0.147 OA 
BRANCH  12  16
HETATM   16  N   UNL     1      -8.312   5.287  67.566  1.00  0.00    -0.107 N  
HETATM   17  C   UNL     1      -8.289   5.611  66.223  1.00  0.00    -0.114 C  
HETATM   18  H   UNL     1      -8.553   6.019  68.235  1.00  0.00     0.000 HD 
HETATM   19  O   UNL     1      -7.994   4.768  65.383  1.00  0.00    -0.096 OA 
BRANCH  17  20
HETATM   20  C   UNL     1      -8.735   6.983  65.787  1.00  0.00    -0.116 A  
HETATM   21  C   UNL     1      -9.071   7.943  66.768  1.00  0.00    -0.156 A  
HETATM   22 CL   UNL     1      -9.510   7.462  68.383  1.00  0.00    -0.143 Cl 
HETATM   23  C   UNL     1      -9.154   9.321  66.447  1.00  0.00    -0.200 A  
HETATM   24  C   UNL     1      -9.144   9.734  65.099  1.00  0.00    -0.270 A  
HETATM   25  C   UNL     1      -8.893   8.768  64.114  1.00  0.00     0.083 A  
HETATM   26  C   UNL     1      -9.360  11.197  64.703  1.00  0.00    -0.175 C  
HETATM   27  C   UNL     1      -8.639   7.424  64.456  1.00  0.00     0.302 A  
HETATM   28  N   UNL     1      -9.506  12.096  65.860  1.00  0.00    -0.216 N  
HETATM   29 CL   UNL     1      -8.139   6.400  63.151  1.00  0.00    -0.086 Cl 
HETATM   30  C   UNL     1      -8.664  11.717  66.984  1.00  0.00    -0.181 C  
HETATM   31  C   UNL     1     -10.693  12.830  65.990  1.00  0.00    -0.272 C  
HETATM   32  C   UNL     1      -9.185  10.387  67.531  1.00  0.00    -0.156 C  
HETATM   33  O   UNL     1     -11.589  12.765  65.146  1.00  0.00    -0.312 OA 
BRANCH  31  34
HETATM   34  C   UNL     1     -10.953  13.722  67.167  1.00  0.00    -0.299 A  
HETATM   35  C   UNL     1     -10.097  14.829  67.334  1.00  0.00    -0.231 A  
HETATM   36  C   UNL     1     -10.169  15.662  68.464  1.00  0.00    -0.211 A  
HETATM   37  C   UNL     1     -11.123  15.371  69.450  1.00  0.00    -0.283 A  
HETATM   38  C   UNL     1     -11.482  15.926  70.708  1.00  0.00    -0.437 A  
HETATM   39  C   UNL     1     -12.510  15.150  71.192  1.00  0.00    -0.352 A  
HETATM   40  O   UNL     1     -12.806  14.149  70.321  1.00  0.00    -0.297 OA 
HETATM   41  C   UNL     1     -11.956  14.273  69.262  1.00  0.00    -0.335 A  
HETATM   42  C   UNL     1     -11.904  13.419  68.155  1.00  0.00    -0.396 A  
ENDBRANCH  31  34
ENDBRANCH  17  20
ENDBRANCH  12  16
ENDBRANCH  11  12
ENDBRANCH   7  11
ENDBRANCH   2   5
TORSDOF 6
ENDMDL
MODEL       57
REMARK 921   NORMALIZED FREE ENERGY PREDICTED BY IDOCK:   -4.61 KCAL/MOL
REMARK 922        TOTAL FREE ENERGY PREDICTED BY IDOCK:   -6.85 KCAL/MOL
REMARK 923 INTER-LIGAND FREE ENERGY PREDICTED BY IDOCK:   -6.43 KCAL/MOL
REMARK 924 INTRA-LIGAND FREE ENERGY PREDICTED BY IDOCK:   -0.43 KCAL/MOL
REMARK 927      BINDING AFFINITY PREDICTED BY RF-SCORE:    0.00 PKD
ROOT
HETATM    1  C   UNL     1      -9.954   8.197  72.000  1.00  0.00    -0.233 C  
HETATM    2  S   UNL     1     -11.107   7.350  70.949  1.00  0.00    -0.269 S  
HETATM    3  O   UNL     1     -12.390   7.312  71.619  1.00  0.00    -0.317 OA 
HETATM    4  O   UNL     1     -10.978   7.898  69.611  1.00  0.00    -0.214 OA 
ENDROOT
BRANCH   2   5
HETATM    5  C   UNL     1     -10.527   5.670  70.910  1.00  0.00    -0.256 A  
HETATM    6  C   UNL     1     -10.313   5.083  69.660  1.00  0.00    -0.260 A  
HETATM    7  C   UNL     1      -9.710   3.828  69.551  1.00  0.00    -0.152 A  
HETATM    8  C   UNL     1      -9.396   3.145  70.739  1.00  0.00    -0.223 A  
HETATM    9  C   UNL     1      -9.637   3.723  71.993  1.00  0.00    -0.213 A  
HETATM   10  C   UNL     1     -10.189   5.000  72.083  1.00  0.00    -0.259 A  
BRANCH   7  11
HETATM   11  C   UNL     1      -9.352   3.180  68.225  1.00  0.00    -0.246 C  
BRANCH  11  12
HETATM   12  CA  UNL     1      -8.567   3.983  67.165  1.00  0.00    -0.102 C  
HETATM   13  C   UNL     1      -9.251   3.874  65.787  1.00  0.00    -0.154 C  
HETATM   14  OXT UNL     1      -9.904   2.918  65.400  1.00  0.00     0.054 OA 
HETATM   15  O   UNL     1      -9.020   4.942  64.988  1.00  0.00    -0.152 OA 
BRANCH  12  16
HETATM   16  N   UNL     1      -8.270   5.390  67.567  1.00  0.00    -0.101 N  
HETATM   17  C   UNL     1      -7.027   5.979  67.426  1.00  0.00    -0.069 C  
HETATM   18  H   UNL     1      -9.025   5.947  67.967  1.00  0.00     0.000 HD 
HETATM   19  O   UNL     1      -6.087   5.346  66.960  1.00  0.00    -0.028 OA 
BRANCH  17  20
HETATM   20  C   UNL     1      -6.864   7.442  67.749  1.00  0.00    -0.074 A  
HETATM   21  C   UNL     1      -7.604   8.397  67.016  1.00  0.00    -0.092 A  
HETATM   22 CL   UNL     1      -8.254   8.018  65.446  1.00  0.00    -0.144 Cl 
HETATM   23  C   UNL     1      -7.763   9.723  67.491  1.00  0.00    -0.095 A  
HETATM   24  C   UNL     1      -6.986  10.183  68.574  1.00  0.00    -0.069 A  
HETATM   25  C   UNL     1      -6.185   9.255  69.253  1.00  0.00    -0.041 A  
HETATM   26  C   UNL     1      -7.032  11.642  69.035  1.00  0.00    -0.111 C  
HETATM   27  C   UNL     1      -6.165   7.895  68.881  1.00  0.00    -0.039 A  
HETATM   28  N   UNL     1      -7.999  12.459  68.283  1.00  0.00    -0.154 N  
HETATM   29 CL   UNL     1      -5.294   6.840  69.944  1.00  0.00    -0.014 Cl 
HETATM   30  C   UNL     1      -9.203  11.726  67.922  1.00  0.00    -0.181 C  
HETATM   31  C   UNL     1      -7.526  13.573  67.578  1.00  0.00    -0.167 C  
HETATM   32  C   UNL     1      -8.810  10.656  66.902  1.00  0.00    -0.143 C  
HETATM   33  O   UNL     1      -6.338  13.899  67.605  1.00  0.00    -0.195 OA 
BRANCH  31  34
HETATM   34  C   UNL     1      -8.428  14.425  66.735  1.00  0.00    -0.076 A  
HETATM   35  C   UNL     1      -8.355  15.819  66.927  1.00  0.00    -0.283 A  
HETATM   36  C   UNL     1      -9.236  16.707  66.284  1.00  0.00    -0.328 A  
HETATM   37  C   UNL     1     -10.216  16.176  65.431  1.00  0.00    -0.294 A  
HETATM   38  C   UNL     1     -11.275  16.710  64.649  1.00  0.00    -0.023 A  
HETATM   39  C   UNL     1     -11.887  15.636  64.045  1.00  0.00     0.068 A  
HETATM   40  O   UNL     1     -11.280  14.473  64.405  1.00  0.00    -0.309 OA 
HETATM   41  C   UNL     1     -10.266  14.797  65.258  1.00  0.00    -0.384 A  
HETATM   42  C   UNL     1      -9.412  13.887  65.891  1.00  0.00    -0.085 A  
ENDBRANCH  31  34
ENDBRANCH  17  20
ENDBRANCH  12  16
ENDBRANCH  11  12
ENDBRANCH   7  11
ENDBRANCH   2   5
TORSDOF 6
ENDMDL
MODEL       58
REMARK 921   NORMALIZED FREE ENERGY PREDICTED BY IDOCK:   -4.57 KCAL/MOL
REMARK 922        TOTAL FREE ENERGY PREDICTED BY IDOCK:   -6.79 KCAL/MOL
REMARK 923 INTER-LIGAND FREE ENERGY PREDICTED BY IDOCK:   -5.42 KCAL/MOL
REMARK 924 INTRA-LIGAND FREE ENERGY PREDICTED BY IDOCK:   -1.37 KCAL/MOL
REMARK 927      BINDING AFFINITY PREDICTED BY RF-SCORE:    0.00 PKD
ROOT
HETATM    1  C   UNL     1      -8.708   4.212  73.313  1.00  0.00    -0.095 C  
HETATM    2  S   UNL     1      -9.524   5.057  71.981  1.00  0.00    -0.145 S  
HETATM    3  O   UNL     1     -10.666   4.267  71.573  1.00  0.00     0.135 OA 
HETATM    4  O   UNL     1      -9.676   6.449  72.363  1.00  0.00    -0.155 OA 
ENDROOT
BRANCH   2   5
HETATM    5  C   UNL     1      -8.372   4.983  70.631  1.00  0.00    -0.106 A  
HETATM    6  C   UNL     1      -8.889   4.876  69.337  1.00  0.00    -0.120 A  
HETATM    7  C   UNL     1      -8.055   4.972  68.221  1.00  0.00    -0.086 A  
HETATM    8  C   UNL     1      -6.673   5.105  68.443  1.00  0.00    -0.054 A  
HETATM    9  C   UNL     1      -6.152   5.184  69.741  1.00  0.00    -0.021 A  
HETATM   10  C   UNL     1      -7.004   5.141  70.844  1.00  0.00    -0.055 A  
BRANCH   7  11
HETATM   11  C   UNL     1      -8.564   4.971  66.790  1.00  0.00    -0.109 C  
BRANCH  11  12
HETATM   12  CA  UNL     1      -9.159   6.261  66.184  1.00  0.00    -0.138 C  
HETATM   13  C   UNL     1     -10.670   6.352  66.482  1.00  0.00    -0.072 C  
HETATM   14  OXT UNL     1     -11.417   5.398  66.620  1.00  0.00     0.530 OA 
HETATM   15  O   UNL     1     -11.130   7.624  66.531  1.00  0.00     0.360 OA 
BRANCH  12  16
HETATM   16  N   UNL     1      -8.410   7.501  66.544  1.00  0.00    -0.121 N  
HETATM   17  C   UNL     1      -7.983   8.433  65.617  1.00  0.00    -0.115 C  
HETATM   18  H   UNL     1      -8.202   7.670  67.528  1.00  0.00     0.000 HD 
HETATM   19  O   UNL     1      -8.201   8.268  64.422  1.00  0.00    -0.165 OA 
BRANCH  17  20
HETATM   20  C   UNL     1      -7.343   9.710  66.096  1.00  0.00    -0.098 A  
HETATM   21  C   UNL     1      -8.080  10.915  66.040  1.00  0.00    -0.142 A  
HETATM   22 CL   UNL     1      -9.443  11.085  64.969  1.00  0.00    -0.254 Cl 
HETATM   23  C   UNL     1      -7.681  12.055  66.781  1.00  0.00    -0.014 A  
HETATM   24  C   UNL     1      -6.411  12.088  67.394  1.00  0.00    -0.137 A  
HETATM   25  C   UNL     1      -5.639  10.918  67.379  1.00  0.00    -0.045 A  
HETATM   26  C   UNL     1      -5.888  13.345  68.094  1.00  0.00    -0.108 C  
HETATM   27  C   UNL     1      -6.120   9.732  66.787  1.00  0.00    -0.063 A  
HETATM   28  N   UNL     1      -6.862  14.450  68.107  1.00  0.00    -0.108 N  
HETATM   29 CL   UNL     1      -5.145   8.322  67.036  1.00  0.00    -0.028 Cl 
HETATM   30  C   UNL     1      -8.235  13.995  68.263  1.00  0.00    -0.153 C  
HETATM   31  C   UNL     1      -6.508  15.660  67.496  1.00  0.00    -0.170 C  
HETATM   32  C   UNL     1      -8.621  13.231  66.995  1.00  0.00    -0.169 C  
HETATM   33  O   UNL     1      -5.399  15.827  66.987  1.00  0.00    -0.317 OA 
BRANCH  31  34
HETATM   34  C   UNL     1      -7.459  16.817  67.409  1.00  0.00    -0.187 A  
HETATM   35  C   UNL     1      -7.561  17.649  68.541  1.00  0.00    -0.272 A  
HETATM   36  C   UNL     1      -8.505  18.688  68.619  1.00  0.00    -0.337 A  
HETATM   37  C   UNL     1      -9.369  18.890  67.533  1.00  0.00    -0.327 A  
HETATM   38  C   UNL     1     -10.441  19.776  67.241  1.00  0.00    -0.579 A  
HETATM   39  C   UNL     1     -10.889  19.438  65.985  1.00  0.00    -0.309 A  
HETATM   40  O   UNL     1     -10.170  18.400  65.482  1.00  0.00    -0.522 OA 
HETATM   41  C   UNL     1      -9.247  18.055  66.427  1.00  0.00    -0.242 A  
HETATM   42  C   UNL     1      -8.326  17.007  66.322  1.00  0.00    -0.308 A  
ENDBRANCH  31  34
ENDBRANCH  17  20
ENDBRANCH  12  16
ENDBRANCH  11  12
ENDBRANCH   7  11
ENDBRANCH   2   5
TORSDOF 6
ENDMDL
MODEL       59
REMARK 921   NORMALIZED FREE ENERGY PREDICTED BY IDOCK:   -4.56 KCAL/MOL
REMARK 922        TOTAL FREE ENERGY PREDICTED BY IDOCK:   -6.78 KCAL/MOL
REMARK 923 INTER-LIGAND FREE ENERGY PREDICTED BY IDOCK:   -6.67 KCAL/MOL
REMARK 924 INTRA-LIGAND FREE ENERGY PREDICTED BY IDOCK:   -0.12 KCAL/MOL
REMARK 927      BINDING AFFINITY PREDICTED BY RF-SCORE:    0.00 PKD
ROOT
HETATM    1  C   UNL     1     -10.927  16.805  68.327  1.00  0.00    -0.327 C  
HETATM    2  S   UNL     1     -10.224  18.000  67.217  1.00  0.00    -0.380 S  
HETATM    3  O   UNL     1     -10.312  17.475  65.870  1.00  0.00    -0.494 OA 
HETATM    4  O   UNL     1     -10.777  19.299  67.551  1.00  0.00    -0.463 OA 
ENDROOT
BRANCH   2   5
HETATM    5  C   UNL     1      -8.493  18.021  67.620  1.00  0.00    -0.239 A  
HETATM    6  C   UNL     1      -7.848  16.793  67.792  1.00  0.00    -0.187 A  
HETATM    7  C   UNL     1      -6.462  16.728  67.952  1.00  0.00    -0.151 A  
HETATM    8  C   UNL     1      -5.749  17.938  68.010  1.00  0.00    -0.157 A  
HETATM    9  C   UNL     1      -6.401  19.170  67.865  1.00  0.00    -0.230 A  
HETATM   10  C   UNL     1      -7.778  19.216  67.651  1.00  0.00    -0.271 A  
BRANCH   7  11
HETATM   11  C   UNL     1      -5.688  15.424  68.038  1.00  0.00    -0.146 C  
BRANCH  11  12
HETATM   12  CA  UNL     1      -5.705  14.605  69.347  1.00  0.00    -0.095 C  
HETATM   13  C   UNL     1      -5.756  15.542  70.571  1.00  0.00    -0.096 C  
HETATM   14  OXT UNL     1      -5.284  16.666  70.617  1.00  0.00    -0.202 OA 
HETATM   15  O   UNL     1      -6.346  14.979  71.652  1.00  0.00     0.542 OA 
BRANCH  12  16
HETATM   16  N   UNL     1      -6.744  13.534  69.378  1.00  0.00    -0.229 N  
HETATM   17  C   UNL     1      -7.111  12.792  68.272  1.00  0.00    -0.104 C  
HETATM   18  H   UNL     1      -7.209  13.340  70.265  1.00  0.00     0.000 HD 
HETATM   19  O   UNL     1      -6.588  12.996  67.182  1.00  0.00    -0.184 OA 
BRANCH  17  20
HETATM   20  C   UNL     1      -8.083  11.652  68.438  1.00  0.00    -0.153 A  
HETATM   21  C   UNL     1      -7.602  10.390  68.855  1.00  0.00    -0.103 A  
HETATM   22 CL   UNL     1      -5.926   9.959  68.660  1.00  0.00    -0.039 Cl 
HETATM   23  C   UNL     1      -8.482   9.400  69.360  1.00  0.00    -0.142 A  
HETATM   24  C   UNL     1      -9.876   9.561  69.227  1.00  0.00    -0.184 A  
HETATM   25  C   UNL     1     -10.356  10.783  68.734  1.00  0.00    -0.209 A  
HETATM   26  C   UNL     1     -10.856   8.461  69.641  1.00  0.00    -0.148 C  
HETATM   27  C   UNL     1      -9.477  11.831  68.396  1.00  0.00    -0.188 A  
HETATM   28  N   UNL     1     -10.195   7.286  70.234  1.00  0.00    -0.197 N  
HETATM   29 CL   UNL     1     -10.227  13.343  68.005  1.00  0.00    -0.237 Cl 
HETATM   30  C   UNL     1      -9.039   7.634  71.046  1.00  0.00    -0.147 C  
HETATM   31  C   UNL     1     -10.363   6.041  69.613  1.00  0.00    -0.232 C  
HETATM   32  C   UNL     1      -7.960   8.185  70.111  1.00  0.00    -0.107 C  
HETATM   33  O   UNL     1     -11.074   5.906  68.616  1.00  0.00    -0.284 OA 
BRANCH  31  34
HETATM   34  C   UNL     1      -9.677   4.804  70.111  1.00  0.00    -0.288 A  
HETATM   35  C   UNL     1     -10.251   4.157  71.224  1.00  0.00    -0.067 A  
HETATM   36  C   UNL     1      -9.630   3.063  71.852  1.00  0.00    -0.222 A  
HETATM   37  C   UNL     1      -8.401   2.612  71.348  1.00  0.00    -0.082 A  
HETATM   38  C   UNL     1      -7.471   1.597  71.702  1.00  0.00    -0.036 A  
HETATM   39  C   UNL     1      -6.439   1.687  70.797  1.00  0.00    -0.024 A  
HETATM   40  O   UNL     1      -6.665   2.693  69.910  1.00  0.00    -0.032 OA 
HETATM   41  C   UNL     1      -7.856   3.266  70.248  1.00  0.00    -0.043 A  
HETATM   42  C   UNL     1      -8.443   4.364  69.608  1.00  0.00    -0.089 A  
ENDBRANCH  31  34
ENDBRANCH  17  20
ENDBRANCH  12  16
ENDBRANCH  11  12
ENDBRANCH   7  11
ENDBRANCH   2   5
TORSDOF 6
ENDMDL
MODEL       60
REMARK 921   NORMALIZED FREE ENERGY PREDICTED BY IDOCK:   -4.31 KCAL/MOL
REMARK 922        TOTAL FREE ENERGY PREDICTED BY IDOCK:   -6.45 KCAL/MOL
REMARK 923 INTER-LIGAND FREE ENERGY PREDICTED BY IDOCK:   -7.02 KCAL/MOL
REMARK 924 INTRA-LIGAND FREE ENERGY PREDICTED BY IDOCK:    0.57 KCAL/MOL
REMARK 927      BINDING AFFINITY PREDICTED BY RF-SCORE:    0.00 PKD
ROOT
HETATM    1  C   UNL     1      -7.547   5.050  67.111  1.00  0.00    -0.088 C  
HETATM    2  S   UNL     1      -5.938   5.027  67.862  1.00  0.00    -0.023 S  
HETATM    3  O   UNL     1      -5.241   3.842  67.407  1.00  0.00    -0.010 OA 
HETATM    4  O   UNL     1      -5.353   6.345  67.703  1.00  0.00    -0.004 OA 
ENDROOT
BRANCH   2   5
HETATM    5  C   UNL     1      -6.254   4.772  69.592  1.00  0.00    -0.026 A  
HETATM    6  C   UNL     1      -7.583   4.608  69.994  1.00  0.00    -0.054 A  
HETATM    7  C   UNL     1      -7.894   4.247  71.307  1.00  0.00    -0.072 A  
HETATM    8  C   UNL     1      -6.836   4.130  72.225  1.00  0.00    -0.042 A  
HETATM    9  C   UNL     1      -5.506   4.322  71.827  1.00  0.00     0.000 A  
HETATM   10  C   UNL     1      -5.208   4.628  70.499  1.00  0.00     0.000 A  
BRANCH   7  11
HETATM   11  C   UNL     1      -9.305   3.950  71.784  1.00  0.00    -0.197 C  
BRANCH  11  12
HETATM   12  CA  UNL     1     -10.330   5.098  71.913  1.00  0.00    -0.212 C  
HETATM   13  C   UNL     1     -10.333   5.662  73.348  1.00  0.00    -0.222 C  
HETATM   14  OXT UNL     1     -10.072   5.024  74.355  1.00  0.00    -0.194 OA 
HETATM   15  O   UNL     1     -10.711   6.961  73.413  1.00  0.00    -0.306 OA 
BRANCH  12  16
HETATM   16  N   UNL     1     -10.197   6.151  70.864  1.00  0.00    -0.195 N  
HETATM   17  C   UNL     1     -10.556   5.964  69.542  1.00  0.00    -0.308 C  
HETATM   18  H   UNL     1      -9.820   7.059  71.137  1.00  0.00     0.000 HD 
HETATM   19  O   UNL     1     -11.004   4.887  69.164  1.00  0.00     0.488 OA 
BRANCH  17  20
HETATM   20  C   UNL     1     -10.496   7.130  68.590  1.00  0.00    -0.218 A  
HETATM   21  C   UNL     1     -10.393   8.441  69.108  1.00  0.00    -0.220 A  
HETATM   22 CL   UNL     1     -10.873   8.799  70.744  1.00  0.00    -0.265 Cl 
HETATM   23  C   UNL     1      -9.986   9.524  68.290  1.00  0.00    -0.184 A  
HETATM   24  C   UNL     1      -9.913   9.362  66.891  1.00  0.00    -0.293 A  
HETATM   25  C   UNL     1     -10.098   8.077  66.364  1.00  0.00    -0.174 A  
HETATM   26  C   UNL     1      -9.603  10.538  65.961  1.00  0.00    -0.194 C  
HETATM   27  C   UNL     1     -10.332   6.968  67.203  1.00  0.00    -0.281 A  
HETATM   28  N   UNL     1      -9.335  11.794  66.681  1.00  0.00    -0.193 N  
HETATM   29 CL   UNL     1     -10.327   5.423  66.422  1.00  0.00    -0.284 Cl 
HETATM   30  C   UNL     1      -8.619  11.591  67.931  1.00  0.00    -0.143 C  
HETATM   31  C   UNL     1     -10.159  12.898  66.428  1.00  0.00    -0.269 C  
HETATM   32  C   UNL     1      -9.554  10.853  68.891  1.00  0.00    -0.192 C  
HETATM   33  O   UNL     1     -11.069  12.850  65.598  1.00  0.00    -0.274 OA 
BRANCH  31  34
HETATM   34  C   UNL     1      -9.998  14.198  67.160  1.00  0.00    -0.255 A  
HETATM   35  C   UNL     1     -11.166  14.786  67.684  1.00  0.00    -0.332 A  
HETATM   36  C   UNL     1     -11.155  16.059  68.281  1.00  0.00    -0.351 A  
HETATM   37  C   UNL     1      -9.940  16.757  68.347  1.00  0.00    -0.268 A  
HETATM   38  C   UNL     1      -9.527  18.030  68.823  1.00  0.00    -0.279 A  
HETATM   39  C   UNL     1      -8.176  18.114  68.576  1.00  0.00    -0.307 A  
HETATM   40  O   UNL     1      -7.727  16.981  67.974  1.00  0.00    -0.172 OA 
HETATM   41  C   UNL     1      -8.801  16.153  67.823  1.00  0.00    -0.183 A  
HETATM   42  C   UNL     1      -8.780  14.894  67.214  1.00  0.00    -0.224 A  
ENDBRANCH  31  34
ENDBRANCH  17  20
ENDBRANCH  12  16
ENDBRANCH  11  12
ENDBRANCH   7  11
ENDBRANCH   2   5
TORSDOF 6
ENDMDL
MODEL       61
REMARK 921   NORMALIZED FREE ENERGY PREDICTED BY IDOCK:   -4.31 KCAL/MOL
REMARK 922        TOTAL FREE ENERGY PREDICTED BY IDOCK:   -6.44 KCAL/MOL
REMARK 923 INTER-LIGAND FREE ENERGY PREDICTED BY IDOCK:   -6.15 KCAL/MOL
REMARK 924 INTRA-LIGAND FREE ENERGY PREDICTED BY IDOCK:   -0.29 KCAL/MOL
REMARK 927      BINDING AFFINITY PREDICTED BY RF-SCORE:    0.00 PKD
ROOT
HETATM    1  C   UNL     1      -6.859  15.975  67.327  1.00  0.00    -0.201 C  
HETATM    2  S   UNL     1      -7.709  16.022  68.886  1.00  0.00    -0.207 S  
HETATM    3  O   UNL     1      -6.997  15.174  69.819  1.00  0.00    -0.177 OA 
HETATM    4  O   UNL     1      -7.987  17.411  69.201  1.00  0.00    -0.160 OA 
ENDROOT
BRANCH   2   5
HETATM    5  C   UNL     1      -9.259  15.211  68.576  1.00  0.00    -0.192 A  
HETATM    6  C   UNL     1      -9.585  14.912  67.249  1.00  0.00    -0.216 A  
HETATM    7  C   UNL     1     -10.706  14.137  66.944  1.00  0.00    -0.286 A  
HETATM    8  C   UNL     1     -11.535  13.734  68.005  1.00  0.00    -0.344 A  
HETATM    9  C   UNL     1     -11.223  14.059  69.332  1.00  0.00    -0.283 A  
HETATM   10  C   UNL     1     -10.070  14.786  69.625  1.00  0.00    -0.008 A  
BRANCH   7  11
HETATM   11  C   UNL     1     -11.057  13.687  65.537  1.00  0.00    -0.301 C  
BRANCH  11  12
HETATM   12  CA  UNL     1     -11.896  12.407  65.327  1.00  0.00    -0.399 C  
HETATM   13  C   UNL     1     -12.632  12.458  63.972  1.00  0.00    -0.412 C  
HETATM   14  OXT UNL     1     -13.008  13.476  63.414  1.00  0.00    -0.283 OA 
HETATM   15  O   UNL     1     -12.881  11.234  63.452  1.00  0.00     0.127 OA 
BRANCH  12  16
HETATM   16  N   UNL     1     -11.134  11.141  65.538  1.00  0.00    -0.081 N  
HETATM   17  C   UNL     1      -9.933  10.858  64.915  1.00  0.00    -0.303 C  
HETATM   18  H   UNL     1     -11.522  10.447  66.177  1.00  0.00     0.000 HD 
HETATM   19  O   UNL     1      -9.434  11.657  64.131  1.00  0.00    -0.151 OA 
BRANCH  17  20
HETATM   20  C   UNL     1      -9.185   9.605  65.291  1.00  0.00    -0.295 A  
HETATM   21  C   UNL     1      -9.211   9.162  66.633  1.00  0.00    -0.164 A  
HETATM   22 CL   UNL     1      -9.592  10.256  67.932  1.00  0.00    -0.157 Cl 
HETATM   23  C   UNL     1      -8.836   7.839  66.976  1.00  0.00    -0.136 A  
HETATM   24  C   UNL     1      -8.199   7.017  66.024  1.00  0.00    -0.129 A  
HETATM   25  C   UNL     1      -8.096   7.488  64.708  1.00  0.00    -0.112 A  
HETATM   26  C   UNL     1      -7.663   5.630  66.388  1.00  0.00    -0.099 C  
HETATM   27  C   UNL     1      -8.629   8.738  64.334  1.00  0.00    -0.084 A  
HETATM   28  N   UNL     1      -7.942   5.247  67.783  1.00  0.00    -0.099 N  
HETATM   29 CL   UNL     1      -8.612   9.084  62.637  1.00  0.00    -0.214 Cl 
HETATM   30  C   UNL     1      -9.233   5.723  68.255  1.00  0.00    -0.117 C  
HETATM   31  C   UNL     1      -6.861   4.966  68.628  1.00  0.00    -0.051 C  
HETATM   32  C   UNL     1      -9.166   7.249  68.338  1.00  0.00    -0.137 C  
HETATM   33  O   UNL     1      -5.697   4.996  68.222  1.00  0.00    -0.015 OA 
BRANCH  31  34
HETATM   34  C   UNL     1      -7.048   4.628  70.077  1.00  0.00    -0.049 A  
HETATM   35  C   UNL     1      -6.015   5.001  70.960  1.00  0.00    -0.017 A  
HETATM   36  C   UNL     1      -6.025   4.630  72.317  1.00  0.00    -0.016 A  
HETATM   37  C   UNL     1      -7.099   3.862  72.792  1.00  0.00    -0.053 A  
HETATM   38  C   UNL     1      -7.454   3.279  74.038  1.00  0.00    -0.056 A  
HETATM   39  C   UNL     1      -8.648   2.627  73.832  1.00  0.00    -0.072 A  
HETATM   40  O   UNL     1      -9.052   2.763  72.541  1.00  0.00    -0.080 OA 
HETATM   41  C   UNL     1      -8.106   3.508  71.900  1.00  0.00    -0.063 A  
HETATM   42  C   UNL     1      -8.121   3.852  70.544  1.00  0.00    -0.059 A  
ENDBRANCH  31  34
ENDBRANCH  17  20
ENDBRANCH  12  16
ENDBRANCH  11  12
ENDBRANCH   7  11
ENDBRANCH   2   5
TORSDOF 6
ENDMDL
MODEL       62
REMARK 921   NORMALIZED FREE ENERGY PREDICTED BY IDOCK:   -3.97 KCAL/MOL
REMARK 922        TOTAL FREE ENERGY PREDICTED BY IDOCK:   -5.98 KCAL/MOL
REMARK 923 INTER-LIGAND FREE ENERGY PREDICTED BY IDOCK:   -4.99 KCAL/MOL
REMARK 924 INTRA-LIGAND FREE ENERGY PREDICTED BY IDOCK:   -0.99 KCAL/MOL
REMARK 927      BINDING AFFINITY PREDICTED BY RF-SCORE:    0.00 PKD
ROOT
HETATM    1  C   UNL     1      -6.332  16.030  69.160  1.00  0.00    -0.151 C  
HETATM    2  S   UNL     1      -7.322  14.574  68.931  1.00  0.00    -0.132 S  
HETATM    3  O   UNL     1      -7.180  14.139  67.557  1.00  0.00    -0.172 OA 
HETATM    4  O   UNL     1      -7.049  13.670  70.033  1.00  0.00     0.273 OA 
ENDROOT
BRANCH   2   5
HETATM    5  C   UNL     1      -8.998  15.142  69.091  1.00  0.00    -0.219 A  
HETATM    6  C   UNL     1      -9.819  15.081  67.962  1.00  0.00    -0.218 A  
HETATM    7  C   UNL     1     -11.184  15.359  68.052  1.00  0.00    -0.326 A  
HETATM    8  C   UNL     1     -11.690  15.774  69.296  1.00  0.00    -0.384 A  
HETATM    9  C   UNL     1     -10.860  15.862  70.422  1.00  0.00    -0.325 A  
HETATM   10  C   UNL     1      -9.510  15.528  70.328  1.00  0.00     0.478 A  
BRANCH   7  11
HETATM   11  C   UNL     1     -12.150  15.209  66.890  1.00  0.00     0.259 C  
BRANCH  11  12
HETATM   12  CA  UNL     1     -11.643  14.670  65.534  1.00  0.00    -0.335 C  
HETATM   13  C   UNL     1     -10.973  15.795  64.720  1.00  0.00    -0.393 C  
HETATM   14  OXT UNL     1     -11.267  16.978  64.782  1.00  0.00    -0.806 OA 
HETATM   15  O   UNL     1     -10.028  15.346  63.861  1.00  0.00     1.909 OA 
BRANCH  12  16
HETATM   16  N   UNL     1     -10.804  13.441  65.646  1.00  0.00    -0.280 N  
HETATM   17  C   UNL     1     -11.323  12.160  65.678  1.00  0.00    -0.347 C  
HETATM   18  H   UNL     1      -9.791  13.552  65.702  1.00  0.00     0.000 HD 
HETATM   19  O   UNL     1     -12.534  11.977  65.624  1.00  0.00    -0.390 OA 
BRANCH  17  20
HETATM   20  C   UNL     1     -10.383  10.983  65.668  1.00  0.00    -0.311 A  
HETATM   21  C   UNL     1     -10.347  10.119  66.786  1.00  0.00    -0.222 A  
HETATM   22 CL   UNL     1     -10.915  10.645  68.346  1.00  0.00    -0.276 Cl 
HETATM   23  C   UNL     1      -9.763   8.830  66.699  1.00  0.00    -0.309 A  
HETATM   24  C   UNL     1      -8.992   8.480  65.572  1.00  0.00    -0.182 A  
HETATM   25  C   UNL     1      -8.956   9.373  64.492  1.00  0.00    -0.227 A  
HETATM   26  C   UNL     1      -8.238   7.149  65.495  1.00  0.00    -0.139 C  
HETATM   27  C   UNL     1      -9.684  10.580  64.517  1.00  0.00    -0.314 A  
HETATM   28  N   UNL     1      -8.464   6.285  66.666  1.00  0.00    -0.111 N  
HETATM   29 CL   UNL     1      -9.709  11.471  63.032  1.00  0.00    -0.406 Cl 
HETATM   30  C   UNL     1      -9.819   6.374  67.186  1.00  0.00    -0.146 C  
HETATM   31  C   UNL     1      -7.358   5.905  67.438  1.00  0.00    -0.077 C  
HETATM   32  C   UNL     1     -10.005   7.776  67.769  1.00  0.00    -0.220 C  
HETATM   33  O   UNL     1      -6.212   6.246  67.138  1.00  0.00    -0.030 OA 
BRANCH  31  34
HETATM   34  C   UNL     1      -7.500   5.079  68.681  1.00  0.00    -0.070 A  
HETATM   35  C   UNL     1      -6.811   5.523  69.828  1.00  0.00    -0.060 A  
HETATM   36  C   UNL     1      -6.772   4.766  71.013  1.00  0.00    -0.031 A  
HETATM   37  C   UNL     1      -7.439   3.532  71.041  1.00  0.00    -0.037 A  
HETATM   38  C   UNL     1      -7.608   2.493  71.995  1.00  0.00    -0.045 A  
HETATM   39  C   UNL     1      -8.376   1.530  71.384  1.00  0.00    -0.047 A  
HETATM   40  O   UNL     1      -8.690   1.901  70.114  1.00  0.00    -0.048 OA 
HETATM   41  C   UNL     1      -8.113   3.118  69.897  1.00  0.00    -0.044 A  
HETATM   42  C   UNL     1      -8.162   3.841  68.699  1.00  0.00    -0.084 A  
ENDBRANCH  31  34
ENDBRANCH  17  20
ENDBRANCH  12  16
ENDBRANCH  11  12
ENDBRANCH   7  11
ENDBRANCH   2   5
TORSDOF 6
ENDMDL
MODEL       63
REMARK 921   NORMALIZED FREE ENERGY PREDICTED BY IDOCK:   -3.66 KCAL/MOL
REMARK 922        TOTAL FREE ENERGY PREDICTED BY IDOCK:   -5.57 KCAL/MOL
REMARK 923 INTER-LIGAND FREE ENERGY PREDICTED BY IDOCK:   -6.28 KCAL/MOL
REMARK 924 INTRA-LIGAND FREE ENERGY PREDICTED BY IDOCK:    0.72 KCAL/MOL
REMARK 927      BINDING AFFINITY PREDICTED BY RF-SCORE:    0.00 PKD
ROOT
HETATM    1  C   UNL     1      -6.770  20.443  68.165  1.00  0.00    -0.291 C  
HETATM    2  S   UNL     1      -6.767  18.703  67.808  1.00  0.00    -0.214 S  
HETATM    3  O   UNL     1      -6.131  18.504  66.522  1.00  0.00    -0.152 OA 
HETATM    4  O   UNL     1      -6.298  18.006  68.990  1.00  0.00    -0.217 OA 
ENDROOT
BRANCH   2   5
HETATM    5  C   UNL     1      -8.480  18.292  67.574  1.00  0.00    -0.249 A  
HETATM    6  C   UNL     1      -8.833  16.940  67.584  1.00  0.00    -0.215 A  
HETATM    7  C   UNL     1     -10.174  16.549  67.566  1.00  0.00    -0.283 A  
HETATM    8  C   UNL     1     -11.151  17.555  67.460  1.00  0.00     0.066 A  
HETATM    9  C   UNL     1     -10.794  18.910  67.422  1.00  0.00    -0.449 A  
HETATM   10  C   UNL     1      -9.453  19.286  67.496  1.00  0.00    -0.379 A  
BRANCH   7  11
HETATM   11  C   UNL     1     -10.630  15.105  67.682  1.00  0.00    -0.263 C  
BRANCH  11  12
HETATM   12  CA  UNL     1     -10.659  14.418  69.065  1.00  0.00    -0.237 C  
HETATM   13  C   UNL     1     -12.101  14.353  69.607  1.00  0.00    -0.334 C  
HETATM   14  OXT UNL     1     -12.982  15.161  69.361  1.00  0.00     0.263 OA 
HETATM   15  O   UNL     1     -12.311  13.315  70.450  1.00  0.00    -0.333 OA 
BRANCH  12  16
HETATM   16  N   UNL     1      -9.953  13.103  69.104  1.00  0.00    -0.343 N  
HETATM   17  C   UNL     1      -9.000  12.719  68.179  1.00  0.00    -0.199 C  
HETATM   18  H   UNL     1     -10.188  12.452  69.853  1.00  0.00     0.000 HD 
HETATM   19  O   UNL     1      -8.692  13.463  67.255  1.00  0.00    -0.199 OA 
BRANCH  17  20
HETATM   20  C   UNL     1      -8.259  11.422  68.379  1.00  0.00    -0.151 A  
HETATM   21  C   UNL     1      -8.913  10.345  69.017  1.00  0.00    -0.179 A  
HETATM   22 CL   UNL     1     -10.296  10.613  70.041  1.00  0.00    -0.104 Cl 
HETATM   23  C   UNL     1      -8.413   9.022  68.922  1.00  0.00    -0.130 A  
HETATM   24  C   UNL     1      -7.125   8.791  68.397  1.00  0.00    -0.077 A  
HETATM   25  C   UNL     1      -6.435   9.876  67.838  1.00  0.00    -0.059 A  
HETATM   26  C   UNL     1      -6.495   7.396  68.395  1.00  0.00    -0.045 C  
HETATM   27  C   UNL     1      -7.014  11.160  67.780  1.00  0.00    -0.078 A  
HETATM   28  N   UNL     1      -7.390   6.353  68.924  1.00  0.00    -0.084 N  
HETATM   29 CL   UNL     1      -6.131  12.341  66.873  1.00  0.00    -0.048 Cl 
HETATM   30  C   UNL     1      -8.785   6.570  68.573  1.00  0.00    -0.122 C  
HETATM   31  C   UNL     1      -6.975   5.623  70.045  1.00  0.00    -0.065 C  
HETATM   32  C   UNL     1      -9.264   7.822  69.311  1.00  0.00    -0.145 C  
HETATM   33  O   UNL     1      -5.874   5.808  70.566  1.00  0.00    -0.022 OA 
BRANCH  31  34
HETATM   34  C   UNL     1      -7.847   4.586  70.688  1.00  0.00    -0.057 A  
HETATM   35  C   UNL     1      -7.709   3.260  70.231  1.00  0.00    -0.043 A  
HETATM   36  C   UNL     1      -8.556   2.228  70.673  1.00  0.00    -0.099 A  
HETATM   37  C   UNL     1      -9.568   2.541  71.592  1.00  0.00    -0.217 A  
HETATM   38  C   UNL     1     -10.611   1.821  72.235  1.00  0.00    -0.125 A  
HETATM   39  C   UNL     1     -11.277   2.730  73.024  1.00  0.00     0.072 A  
HETATM   40  O   UNL     1     -10.720   3.965  72.909  1.00  0.00    -0.170 OA 
HETATM   41  C   UNL     1      -9.683   3.857  72.028  1.00  0.00    -0.164 A  
HETATM   42  C   UNL     1      -8.864   4.908  71.601  1.00  0.00    -0.146 A  
ENDBRANCH  31  34
ENDBRANCH  17  20
ENDBRANCH  12  16
ENDBRANCH  11  12
ENDBRANCH   7  11
ENDBRANCH   2   5
TORSDOF 6
ENDMDL
MODEL       64
REMARK 921   NORMALIZED FREE ENERGY PREDICTED BY IDOCK:   -3.63 KCAL/MOL
REMARK 922        TOTAL FREE ENERGY PREDICTED BY IDOCK:   -5.53 KCAL/MOL
REMARK 923 INTER-LIGAND FREE ENERGY PREDICTED BY IDOCK:   -5.87 KCAL/MOL
REMARK 924 INTRA-LIGAND FREE ENERGY PREDICTED BY IDOCK:    0.34 KCAL/MOL
REMARK 927      BINDING AFFINITY PREDICTED BY RF-SCORE:    0.00 PKD
ROOT
HETATM    1  C   UNL     1      -5.154  16.579  68.198  1.00  0.00    -0.109 C  
HETATM    2  S   UNL     1      -5.712  15.858  69.722  1.00  0.00    -0.147 S  
HETATM    3  O   UNL     1      -5.453  14.434  69.674  1.00  0.00    -0.091 OA 
HETATM    4  O   UNL     1      -5.207  16.673  70.812  1.00  0.00    -0.209 OA 
ENDROOT
BRANCH   2   5
HETATM    5  C   UNL     1      -7.480  16.035  69.680  1.00  0.00    -0.005 A  
HETATM    6  C   UNL     1      -8.004  17.237  69.196  1.00  0.00    -0.019 A  
HETATM    7  C   UNL     1      -9.376  17.387  68.985  1.00  0.00    -0.101 A  
HETATM    8  C   UNL     1     -10.217  16.319  69.345  1.00  0.00    -0.265 A  
HETATM    9  C   UNL     1      -9.693  15.125  69.857  1.00  0.00    -0.025 A  
HETATM   10  C   UNL     1      -8.316  14.971  70.010  1.00  0.00     0.403 A  
BRANCH   7  11
HETATM   11  C   UNL     1      -9.999  18.625  68.364  1.00  0.00    -0.428 C  
BRANCH  11  12
HETATM   12  CA  UNL     1     -10.937  18.483  67.145  1.00  0.00    -0.095 C  
HETATM   13  C   UNL     1     -10.621  19.562  66.089  1.00  0.00    -0.487 C  
HETATM   14  OXT UNL     1     -10.174  20.671  66.331  1.00  0.00    -0.198 OA 
HETATM   15  O   UNL     1     -10.935  19.185  64.828  1.00  0.00    -0.153 OA 
BRANCH  12  16
HETATM   16  N   UNL     1     -10.994  17.102  66.581  1.00  0.00     0.072 N  
HETATM   17  C   UNL     1      -9.946  16.511  65.900  1.00  0.00    -0.317 C  
HETATM   18  H   UNL     1     -11.853  16.566  66.703  1.00  0.00     0.000 HD 
HETATM   19  O   UNL     1      -8.898  17.120  65.718  1.00  0.00    -0.526 OA 
BRANCH  17  20
HETATM   20  C   UNL     1     -10.062  15.069  65.477  1.00  0.00    -0.400 A  
HETATM   21  C   UNL     1      -9.249  14.099  66.104  1.00  0.00    -0.055 A  
HETATM   22 CL   UNL     1      -7.779  14.551  66.922  1.00  0.00     0.063 Cl 
HETATM   23  C   UNL     1      -9.550  12.717  66.010  1.00  0.00    -0.190 A  
HETATM   24  C   UNL     1     -10.519  12.267  65.090  1.00  0.00    -0.320 A  
HETATM   25  C   UNL     1     -11.273  13.229  64.402  1.00  0.00    -0.409 A  
HETATM   26  C   UNL     1     -10.784  10.777  64.863  1.00  0.00    -0.096 C  
HETATM   27  C   UNL     1     -11.085  14.607  64.631  1.00  0.00    -0.334 A  
HETATM   28  N   UNL     1      -9.981   9.905  65.738  1.00  0.00    -0.284 N  
HETATM   29 CL   UNL     1     -12.232  15.657  63.868  1.00  0.00     0.031 Cl 
HETATM   30  C   UNL     1      -9.785  10.460  67.068  1.00  0.00    -0.178 C  
HETATM   31  C   UNL     1      -9.109   8.983  65.143  1.00  0.00    -0.143 C  
HETATM   32  C   UNL     1      -8.897  11.698  66.932  1.00  0.00    -0.190 C  
HETATM   33  O   UNL     1      -9.030   8.864  63.919  1.00  0.00    -0.030 OA 
BRANCH  31  34
HETATM   34  C   UNL     1      -8.210   8.099  65.955  1.00  0.00    -0.122 A  
HETATM   35  C   UNL     1      -8.425   6.709  65.864  1.00  0.00    -0.145 A  
HETATM   36  C   UNL     1      -7.726   5.793  66.669  1.00  0.00    -0.100 A  
HETATM   37  C   UNL     1      -6.791   6.289  67.590  1.00  0.00    -0.069 A  
HETATM   38  C   UNL     1      -5.935   5.720  68.571  1.00  0.00    -0.020 A  
HETATM   39  C   UNL     1      -5.269   6.772  69.158  1.00  0.00    -0.013 A  
HETATM   40  O   UNL     1      -5.661   7.953  68.610  1.00  0.00    -0.026 OA 
HETATM   41  C   UNL     1      -6.597   7.665  67.660  1.00  0.00    -0.062 A  
HETATM   42  C   UNL     1      -7.283   8.603  66.881  1.00  0.00    -0.075 A  
ENDBRANCH  31  34
ENDBRANCH  17  20
ENDBRANCH  12  16
ENDBRANCH  11  12
ENDBRANCH   7  11
ENDBRANCH   2   5
TORSDOF 6
ENDMDL
MODEL       65
REMARK 921   NORMALIZED FREE ENERGY PREDICTED BY IDOCK:   -3.54 KCAL/MOL
REMARK 922        TOTAL FREE ENERGY PREDICTED BY IDOCK:   -5.41 KCAL/MOL
REMARK 923 INTER-LIGAND FREE ENERGY PREDICTED BY IDOCK:   -5.24 KCAL/MOL
REMARK 924 INTRA-LIGAND FREE ENERGY PREDICTED BY IDOCK:   -0.17 KCAL/MOL
REMARK 927      BINDING AFFINITY PREDICTED BY RF-SCORE:    0.00 PKD
ROOT
HETATM    1  C   UNL     1      -7.753   6.240  71.786  1.00  0.00    -0.100 C  
HETATM    2  S   UNL     1      -9.123   5.327  71.119  1.00  0.00    -0.146 S  
HETATM    3  O   UNL     1     -10.040   5.030  72.199  1.00  0.00    -0.182 OA 
HETATM    4  O   UNL     1      -9.574   6.010  69.921  1.00  0.00    -0.154 OA 
ENDROOT
BRANCH   2   5
HETATM    5  C   UNL     1      -8.425   3.768  70.629  1.00  0.00    -0.069 A  
HETATM    6  C   UNL     1      -8.497   3.416  69.278  1.00  0.00    -0.095 A  
HETATM    7  C   UNL     1      -7.833   2.287  68.795  1.00  0.00    -0.058 A  
HETATM    8  C   UNL     1      -7.155   1.476  69.723  1.00  0.00    -0.033 A  
HETATM    9  C   UNL     1      -7.107   1.814  71.082  1.00  0.00    -0.032 A  
HETATM   10  C   UNL     1      -7.729   2.975  71.539  1.00  0.00    -0.048 A  
BRANCH   7  11
HETATM   11  C   UNL     1      -7.782   1.907  67.326  1.00  0.00    -0.060 C  
BRANCH  11  12
HETATM   12  CA  UNL     1      -7.762   3.012  66.247  1.00  0.00    -0.077 C  
HETATM   13  C   UNL     1      -8.908   2.804  65.237  1.00  0.00    -0.129 C  
HETATM   14  OXT UNL     1      -9.386   1.724  64.928  1.00  0.00    -0.133 OA 
HETATM   15  O   UNL     1      -9.329   3.954  64.659  1.00  0.00    -0.137 OA 
BRANCH  12  16
HETATM   16  N   UNL     1      -7.706   4.398  66.800  1.00  0.00    -0.093 N  
HETATM   17  C   UNL     1      -6.806   5.356  66.371  1.00  0.00    -0.059 C  
HETATM   18  H   UNL     1      -8.367   4.651  67.534  1.00  0.00     0.000 HD 
HETATM   19  O   UNL     1      -5.986   5.095  65.498  1.00  0.00    -0.024 OA 
BRANCH  17  20
HETATM   20  C   UNL     1      -6.914   6.760  66.907  1.00  0.00    -0.070 A  
HETATM   21  C   UNL     1      -7.807   7.667  66.293  1.00  0.00    -0.091 A  
HETATM   22 CL   UNL     1      -8.363   7.415  64.662  1.00  0.00    -0.032 Cl 
HETATM   23  C   UNL     1      -8.209   8.859  66.948  1.00  0.00    -0.112 A  
HETATM   24  C   UNL     1      -7.538   9.283  68.114  1.00  0.00    -0.084 A  
HETATM   25  C   UNL     1      -6.588   8.421  68.680  1.00  0.00    -0.055 A  
HETATM   26  C   UNL     1      -7.851  10.626  68.779  1.00  0.00    -0.125 C  
HETATM   27  C   UNL     1      -6.319   7.157  68.117  1.00  0.00    -0.043 A  
HETATM   28  N   UNL     1      -8.943  11.360  68.118  1.00  0.00    -0.163 N  
HETATM   29 CL   UNL     1      -5.282   6.128  69.047  1.00  0.00    -0.004 Cl 
HETATM   30  C   UNL     1      -9.991  10.487  67.611  1.00  0.00    -0.173 C  
HETATM   31  C   UNL     1      -8.673  12.633  67.598  1.00  0.00    -0.179 C  
HETATM   32  C   UNL     1      -9.401   9.668  66.462  1.00  0.00    -0.212 C  
HETATM   33  O   UNL     1      -7.564  13.157  67.715  1.00  0.00    -0.124 OA 
BRANCH  31  34
HETATM   34  C   UNL     1      -9.706  13.427  66.855  1.00  0.00    -0.253 A  
HETATM   35  C   UNL     1     -10.918  12.775  66.552  1.00  0.00    -0.291 A  
HETATM   36  C   UNL     1     -11.909  13.378  65.757  1.00  0.00    -0.412 A  
HETATM   37  C   UNL     1     -11.670  14.664  65.251  1.00  0.00    -0.346 A  
HETATM   38  C   UNL     1     -12.375  15.571  64.414  1.00  0.00    -0.011 A  
HETATM   39  C   UNL     1     -11.571  16.681  64.286  1.00  0.00     0.525 A  
HETATM   40  O   UNL     1     -10.415  16.519  64.983  1.00  0.00    -0.652 OA 
HETATM   41  C   UNL     1     -10.466  15.286  65.565  1.00  0.00    -0.374 A  
HETATM   42  C   UNL     1      -9.456  14.711  66.345  1.00  0.00    -0.325 A  
ENDBRANCH  31  34
ENDBRANCH  17  20
ENDBRANCH  12  16
ENDBRANCH  11  12
ENDBRANCH   7  11
ENDBRANCH   2   5
TORSDOF 6
ENDMDL
MODEL       66
REMARK 921   NORMALIZED FREE ENERGY PREDICTED BY IDOCK:   -3.47 KCAL/MOL
REMARK 922        TOTAL FREE ENERGY PREDICTED BY IDOCK:   -5.31 KCAL/MOL
REMARK 923 INTER-LIGAND FREE ENERGY PREDICTED BY IDOCK:   -5.48 KCAL/MOL
REMARK 924 INTRA-LIGAND FREE ENERGY PREDICTED BY IDOCK:    0.17 KCAL/MOL
REMARK 927      BINDING AFFINITY PREDICTED BY RF-SCORE:    0.00 PKD
ROOT
HETATM    1  C   UNL     1      -7.747   8.095  71.701  1.00  0.00    -0.092 C  
HETATM    2  S   UNL     1      -6.287   8.423  70.745  1.00  0.00    -0.039 S  
HETATM    3  O   UNL     1      -6.401   9.753  70.183  1.00  0.00    -0.057 OA 
HETATM    4  O   UNL     1      -5.136   8.046  71.544  1.00  0.00    -0.030 OA 
ENDROOT
BRANCH   2   5
HETATM    5  C   UNL     1      -6.391   7.302  69.370  1.00  0.00    -0.035 A  
HETATM    6  C   UNL     1      -7.366   7.549  68.400  1.00  0.00    -0.099 A  
HETATM    7  C   UNL     1      -7.403   6.807  67.217  1.00  0.00    -0.091 A  
HETATM    8  C   UNL     1      -6.478   5.759  67.068  1.00  0.00    -0.047 A  
HETATM    9  C   UNL     1      -5.519   5.495  68.055  1.00  0.00    -0.011 A  
HETATM   10  C   UNL     1      -5.460   6.280  69.206  1.00  0.00    -0.012 A  
BRANCH   7  11
HETATM   11  C   UNL     1      -8.366   7.091  66.077  1.00  0.00    -0.134 C  
BRANCH  11  12
HETATM   12  CA  UNL     1      -9.754   7.698  66.378  1.00  0.00    -0.127 C  
HETATM   13  C   UNL     1     -10.408   6.985  67.580  1.00  0.00    -0.225 C  
HETATM   14  OXT UNL     1     -10.223   5.820  67.892  1.00  0.00    -0.155 OA 
HETATM   15  O   UNL     1     -11.276   7.769  68.261  1.00  0.00     0.235 OA 
BRANCH  12  16
HETATM   16  N   UNL     1      -9.753   9.185  66.504  1.00  0.00    -0.219 N  
HETATM   17  C   UNL     1      -9.720  10.044  65.421  1.00  0.00    -0.302 C  
HETATM   18  H   UNL     1      -9.776   9.590  67.440  1.00  0.00     0.000 HD 
HETATM   19  O   UNL     1      -9.680   9.604  64.277  1.00  0.00    -0.083 OA 
BRANCH  17  20
HETATM   20  C   UNL     1      -9.845  11.528  65.653  1.00  0.00    -0.269 A  
HETATM   21  C   UNL     1      -8.961  12.163  66.553  1.00  0.00    -0.179 A  
HETATM   22 CL   UNL     1      -8.125  11.255  67.781  1.00  0.00    -0.115 Cl 
HETATM   23  C   UNL     1      -8.796  13.571  66.549  1.00  0.00     0.005 A  
HETATM   24  C   UNL     1      -9.687  14.383  65.819  1.00  0.00    -0.283 A  
HETATM   25  C   UNL     1     -10.623  13.755  64.986  1.00  0.00    -0.402 A  
HETATM   26  C   UNL     1      -9.624  15.911  65.890  1.00  0.00    -0.343 C  
HETATM   27  C   UNL     1     -10.667  12.351  64.863  1.00  0.00    -0.294 A  
HETATM   28  N   UNL     1      -8.520  16.409  66.728  1.00  0.00    -0.217 N  
HETATM   29 CL   UNL     1     -11.730  11.739  63.641  1.00  0.00    -0.550 Cl 
HETATM   30  C   UNL     1      -7.321  15.592  66.632  1.00  0.00     0.235 C  
HETATM   31  C   UNL     1      -8.831  17.207  67.837  1.00  0.00    -0.226 C  
HETATM   32  C   UNL     1      -7.629  14.234  67.265  1.00  0.00    -0.118 C  
HETATM   33  O   UNL     1      -9.992  17.527  68.099  1.00  0.00    -0.288 OA 
BRANCH  31  34
HETATM   34  C   UNL     1      -7.777  17.707  68.780  1.00  0.00    -0.246 A  
HETATM   35  C   UNL     1      -7.108  16.744  69.561  1.00  0.00    -0.043 A  
HETATM   36  C   UNL     1      -6.190  17.104  70.563  1.00  0.00     0.608 A  
HETATM   37  C   UNL     1      -5.945  18.468  70.786  1.00  0.00     0.216 A  
HETATM   38  C   UNL     1      -5.145  19.219  71.689  1.00  0.00    -0.335 A  
HETATM   39  C   UNL     1      -5.367  20.543  71.391  1.00  0.00    -0.233 A  
HETATM   40  O   UNL     1      -6.255  20.662  70.367  1.00  0.00    -0.470 OA 
HETATM   41  C   UNL     1      -6.617  19.398  70.001  1.00  0.00    -0.102 A  
HETATM   42  C   UNL     1      -7.543  19.073  69.004  1.00  0.00    -0.310 A  
ENDBRANCH  31  34
ENDBRANCH  17  20
ENDBRANCH  12  16
ENDBRANCH  11  12
ENDBRANCH   7  11
ENDBRANCH   2   5
TORSDOF 6
ENDMDL
MODEL       67
REMARK 921   NORMALIZED FREE ENERGY PREDICTED BY IDOCK:   -3.42 KCAL/MOL
REMARK 922        TOTAL FREE ENERGY PREDICTED BY IDOCK:   -5.24 KCAL/MOL
REMARK 923 INTER-LIGAND FREE ENERGY PREDICTED BY IDOCK:   -4.65 KCAL/MOL
REMARK 924 INTRA-LIGAND FREE ENERGY PREDICTED BY IDOCK:   -0.59 KCAL/MOL
REMARK 927      BINDING AFFINITY PREDICTED BY RF-SCORE:    0.00 PKD
ROOT
HETATM    1  C   UNL     1     -12.278   5.024  73.287  1.00  0.00     0.594 C  
HETATM    2  S   UNL     1     -10.746   5.879  73.009  1.00  0.00    -0.271 S  
HETATM    3  O   UNL     1     -10.812   7.160  73.681  1.00  0.00    -0.352 OA 
HETATM    4  O   UNL     1      -9.663   4.951  73.274  1.00  0.00    -0.136 OA 
ENDROOT
BRANCH   2   5
HETATM    5  C   UNL     1     -10.744   6.241  71.269  1.00  0.00    -0.248 A  
HETATM    6  C   UNL     1      -9.578   5.969  70.548  1.00  0.00    -0.198 A  
HETATM    7  C   UNL     1      -9.555   6.077  69.156  1.00  0.00    -0.156 A  
HETATM    8  C   UNL     1     -10.717   6.540  68.513  1.00  0.00    -0.329 A  
HETATM    9  C   UNL     1     -11.877   6.840  69.240  1.00  0.00     0.244 A  
HETATM   10  C   UNL     1     -11.900   6.674  70.625  1.00  0.00    -0.443 A  
BRANCH   7  11
HETATM   11  C   UNL     1      -8.358   5.695  68.304  1.00  0.00    -0.102 C  
BRANCH  11  12
HETATM   12  CA  UNL     1      -7.683   6.757  67.408  1.00  0.00    -0.110 C  
HETATM   13  C   UNL     1      -8.433   6.892  66.067  1.00  0.00    -0.139 C  
HETATM   14  OXT UNL     1      -9.047   5.995  65.512  1.00  0.00    -0.092 OA 
HETATM   15  O   UNL     1      -8.312   8.118  65.506  1.00  0.00    -0.138 OA 
BRANCH  12  16
HETATM   16  N   UNL     1      -7.450   8.065  68.088  1.00  0.00    -0.099 N  
HETATM   17  C   UNL     1      -6.378   8.893  67.809  1.00  0.00    -0.056 C  
HETATM   18  H   UNL     1      -8.118   8.365  68.799  1.00  0.00     0.000 HD 
HETATM   19  O   UNL     1      -5.544   8.570  66.971  1.00  0.00    -0.036 OA 
BRANCH  17  20
HETATM   20  C   UNL     1      -6.302  10.248  68.464  1.00  0.00    -0.051 A  
HETATM   21  C   UNL     1      -6.328  11.407  67.657  1.00  0.00    -0.062 A  
HETATM   22 CL   UNL     1      -5.901  11.337  65.970  1.00  0.00    -0.093 Cl 
HETATM   23  C   UNL     1      -6.611  12.681  68.211  1.00  0.00    -0.079 A  
HETATM   24  C   UNL     1      -6.630  12.853  69.610  1.00  0.00     0.017 A  
HETATM   25  C   UNL     1      -6.521  11.712  70.418  1.00  0.00     0.286 A  
HETATM   26  C   UNL     1      -6.804  14.233  70.249  1.00  0.00     0.122 C  
HETATM   27  C   UNL     1      -6.413  10.424  69.855  1.00  0.00    -0.109 A  
HETATM   28  N   UNL     1      -7.008  15.308  69.263  1.00  0.00    -0.151 N  
HETATM   29 CL   UNL     1      -6.500   9.106  70.975  1.00  0.00    -0.074 Cl 
HETATM   30  C   UNL     1      -7.796  14.885  68.116  1.00  0.00    -0.122 C  
HETATM   31  C   UNL     1      -6.090  16.366  69.228  1.00  0.00    -0.169 C  
HETATM   32  C   UNL     1      -6.967  13.868  67.329  1.00  0.00     0.108 C  
HETATM   33  O   UNL     1      -5.148  16.431  70.021  1.00  0.00    -0.134 OA 
BRANCH  31  34
HETATM   34  C   UNL     1      -6.184  17.470  68.218  1.00  0.00    -0.175 A  
HETATM   35  C   UNL     1      -6.925  18.612  68.584  1.00  0.00    -0.297 A  
HETATM   36  C   UNL     1      -7.183  19.655  67.677  1.00  0.00    -0.279 A  
HETATM   37  C   UNL     1      -6.687  19.542  66.370  1.00  0.00    -0.201 A  
HETATM   38  C   UNL     1      -6.754  20.330  65.190  1.00  0.00    -0.337 A  
HETATM   39  C   UNL     1      -6.057  19.640  64.225  1.00  0.00    -0.188 A  
HETATM   40  O   UNL     1      -5.568  18.475  64.728  1.00  0.00    -0.203 OA 
HETATM   41  C   UNL     1      -5.959  18.406  66.034  1.00  0.00    -0.187 A  
HETATM   42  C   UNL     1      -5.693  17.347  66.909  1.00  0.00    -0.202 A  
ENDBRANCH  31  34
ENDBRANCH  17  20
ENDBRANCH  12  16
ENDBRANCH  11  12
ENDBRANCH   7  11
ENDBRANCH   2   5
TORSDOF 6
ENDMDL
MODEL       68
REMARK 921   NORMALIZED FREE ENERGY PREDICTED BY IDOCK:   -3.28 KCAL/MOL
REMARK 922        TOTAL FREE ENERGY PREDICTED BY IDOCK:   -5.05 KCAL/MOL
REMARK 923 INTER-LIGAND FREE ENERGY PREDICTED BY IDOCK:   -4.26 KCAL/MOL
REMARK 924 INTRA-LIGAND FREE ENERGY PREDICTED BY IDOCK:   -0.79 KCAL/MOL
REMARK 927      BINDING AFFINITY PREDICTED BY RF-SCORE:    0.00 PKD
ROOT
HETATM    1  C   UNL     1      -5.306  15.829  68.061  1.00  0.00    -0.123 C  
HETATM    2  S   UNL     1      -5.916  15.915  69.727  1.00  0.00    -0.168 S  
HETATM    3  O   UNL     1      -5.563  14.685  70.405  1.00  0.00    -0.120 OA 
HETATM    4  O   UNL     1      -5.539  17.205  70.274  1.00  0.00    -0.226 OA 
ENDROOT
BRANCH   2   5
HETATM    5  C   UNL     1      -7.685  15.889  69.557  1.00  0.00    -0.125 A  
HETATM    6  C   UNL     1      -8.246  16.563  68.469  1.00  0.00    -0.212 A  
HETATM    7  C   UNL     1      -9.608  16.453  68.183  1.00  0.00    -0.227 A  
HETATM    8  C   UNL     1     -10.407  15.706  69.066  1.00  0.00    -0.225 A  
HETATM    9  C   UNL     1      -9.848  15.054  70.173  1.00  0.00     0.186 A  
HETATM   10  C   UNL     1      -8.477  15.129  70.414  1.00  0.00     1.092 A  
BRANCH   7  11
HETATM   11  C   UNL     1     -10.262  17.071  66.959  1.00  0.00    -0.303 C  
BRANCH  11  12
HETATM   12  CA  UNL     1     -11.373  16.302  66.212  1.00  0.00     0.459 C  
HETATM   13  C   UNL     1     -11.493  16.800  64.757  1.00  0.00     0.318 C  
HETATM   14  OXT UNL     1     -11.239  17.932  64.378  1.00  0.00    -0.256 OA 
HETATM   15  O   UNL     1     -11.967  15.861  63.906  1.00  0.00    -0.730 OA 
BRANCH  12  16
HETATM   16  N   UNL     1     -11.263  14.817  66.320  1.00  0.00    -0.342 N  
HETATM   17  C   UNL     1     -10.234  14.084  65.759  1.00  0.00    -0.328 C  
HETATM   18  H   UNL     1     -11.986  14.317  66.836  1.00  0.00     0.000 HD 
HETATM   19  O   UNL     1      -9.348  14.640  65.120  1.00  0.00     0.251 OA 
BRANCH  17  20
HETATM   20  C   UNL     1     -10.150  12.604  66.031  1.00  0.00    -0.274 A  
HETATM   21  C   UNL     1      -9.321  12.141  67.077  1.00  0.00    -0.201 A  
HETATM   22 CL   UNL     1      -8.014  13.116  67.686  1.00  0.00    -0.160 Cl 
HETATM   23  C   UNL     1      -9.465  10.832  67.603  1.00  0.00    -0.166 A  
HETATM   24  C   UNL     1     -10.268   9.887  66.932  1.00  0.00    -0.302 A  
HETATM   25  C   UNL     1     -11.029  10.324  65.839  1.00  0.00     0.296 A  
HETATM   26  C   UNL     1     -10.349   8.429  67.391  1.00  0.00    -0.285 C  
HETATM   27  C   UNL     1     -11.013  11.672  65.428  1.00  0.00    -0.270 A  
HETATM   28  N   UNL     1      -9.570   8.161  68.612  1.00  0.00    -0.148 N  
HETATM   29 CL   UNL     1     -12.163  12.097  64.205  1.00  0.00    -0.507 Cl 
HETATM   30  C   UNL     1      -9.591   9.269  69.555  1.00  0.00    -0.173 C  
HETATM   31  C   UNL     1      -8.544   7.208  68.554  1.00  0.00    -0.124 C  
HETATM   32  C   UNL     1      -8.825  10.433  68.924  1.00  0.00    -0.161 C  
HETATM   33  O   UNL     1      -8.308   6.573  67.524  1.00  0.00    -0.119 OA 
BRANCH  31  34
HETATM   34  C   UNL     1      -7.660   6.916  69.730  1.00  0.00    -0.104 A  
HETATM   35  C   UNL     1      -6.269   7.013  69.526  1.00  0.00    -0.034 A  
HETATM   36  C   UNL     1      -5.344   6.645  70.519  1.00  0.00    -0.019 A  
HETATM   37  C   UNL     1      -5.831   6.163  71.743  1.00  0.00    -0.032 A  
HETATM   38  C   UNL     1      -5.250   5.676  72.944  1.00  0.00    -0.018 A  
HETATM   39  C   UNL     1      -6.297   5.342  73.771  1.00  0.00    -0.067 A  
HETATM   40  O   UNL     1      -7.487   5.586  73.161  1.00  0.00    -0.093 OA 
HETATM   41  C   UNL     1      -7.208   6.078  71.919  1.00  0.00    -0.092 A  
HETATM   42  C   UNL     1      -8.155   6.426  70.949  1.00  0.00    -0.124 A  
ENDBRANCH  31  34
ENDBRANCH  17  20
ENDBRANCH  12  16
ENDBRANCH  11  12
ENDBRANCH   7  11
ENDBRANCH   2   5
TORSDOF 6
ENDMDL
MODEL       69
REMARK 921   NORMALIZED FREE ENERGY PREDICTED BY IDOCK:   -3.21 KCAL/MOL
REMARK 922        TOTAL FREE ENERGY PREDICTED BY IDOCK:   -4.96 KCAL/MOL
REMARK 923 INTER-LIGAND FREE ENERGY PREDICTED BY IDOCK:   -4.50 KCAL/MOL
REMARK 924 INTRA-LIGAND FREE ENERGY PREDICTED BY IDOCK:   -0.46 KCAL/MOL
REMARK 927      BINDING AFFINITY PREDICTED BY RF-SCORE:    0.00 PKD
ROOT
HETATM    1  C   UNL     1      -7.514   5.938  71.515  1.00  0.00    -0.094 C  
HETATM    2  S   UNL     1      -9.041   5.282  70.887  1.00  0.00    -0.140 S  
HETATM    3  O   UNL     1      -9.866   4.894  72.012  1.00  0.00    -0.163 OA 
HETATM    4  O   UNL     1      -9.537   6.197  69.876  1.00  0.00    -0.156 OA 
ENDROOT
BRANCH   2   5
HETATM    5  C   UNL     1      -8.578   3.770  70.077  1.00  0.00    -0.065 A  
HETATM    6  C   UNL     1      -8.746   3.694  68.691  1.00  0.00    -0.139 A  
HETATM    7  C   UNL     1      -8.259   2.603  67.968  1.00  0.00    -0.078 A  
HETATM    8  C   UNL     1      -7.664   1.552  68.687  1.00  0.00    -0.046 A  
HETATM    9  C   UNL     1      -7.521   1.616  70.079  1.00  0.00    -0.036 A  
HETATM   10  C   UNL     1      -7.963   2.737  70.780  1.00  0.00    -0.052 A  
BRANCH   7  11
HETATM   11  C   UNL     1      -8.314   2.508  66.453  1.00  0.00    -0.093 C  
BRANCH  11  12
HETATM   12  CA  UNL     1      -8.164   3.784  65.597  1.00  0.00    -0.105 C  
HETATM   13  C   UNL     1      -9.414   3.997  64.719  1.00  0.00    -0.170 C  
HETATM   14  OXT UNL     1     -10.127   3.108  64.284  1.00  0.00    -0.163 OA 
HETATM   15  O   UNL     1      -9.640   5.297  64.415  1.00  0.00     0.322 OA 
BRANCH  12  16
HETATM   16  N   UNL     1      -7.778   4.996  66.378  1.00  0.00    -0.091 N  
HETATM   17  C   UNL     1      -6.679   5.780  66.080  1.00  0.00    -0.056 C  
HETATM   18  H   UNL     1      -8.356   5.261  67.176  1.00  0.00     0.000 HD 
HETATM   19  O   UNL     1      -5.948   5.496  65.137  1.00  0.00    -0.021 OA 
BRANCH  17  20
HETATM   20  C   UNL     1      -6.447   7.051  66.855  1.00  0.00    -0.054 A  
HETATM   21  C   UNL     1      -6.927   8.274  66.336  1.00  0.00    -0.067 A  
HETATM   22 CL   UNL     1      -7.274   8.454  64.639  1.00  0.00    -0.080 Cl 
HETATM   23  C   UNL     1      -7.053   9.422  67.158  1.00  0.00    -0.086 A  
HETATM   24  C   UNL     1      -6.475   9.435  68.444  1.00  0.00    -0.053 A  
HETATM   25  C   UNL     1      -5.921   8.243  68.932  1.00  0.00    -0.043 A  
HETATM   26  C   UNL     1      -6.475  10.695  69.313  1.00  0.00    -0.062 C  
HETATM   27  C   UNL     1      -5.955   7.056  68.173  1.00  0.00    -0.029 A  
HETATM   28  N   UNL     1      -7.185  11.828  68.695  1.00  0.00    -0.106 N  
HETATM   29 CL   UNL     1      -5.426   5.626  68.993  1.00  0.00    -0.007 Cl 
HETATM   30  C   UNL     1      -8.353  11.417  67.931  1.00  0.00    -0.137 C  
HETATM   31  C   UNL     1      -6.473  13.010  68.452  1.00  0.00    -0.084 C  
HETATM   32  C   UNL     1      -7.863  10.630  66.714  1.00  0.00    -0.126 C  
HETATM   33  O   UNL     1      -5.291  13.131  68.776  1.00  0.00    -0.070 OA 
BRANCH  31  34
HETATM   34  C   UNL     1      -7.098  14.191  67.771  1.00  0.00    -0.185 A  
HETATM   35  C   UNL     1      -6.303  15.346  67.634  1.00  0.00    -0.177 A  
HETATM   36  C   UNL     1      -6.820  16.550  67.123  1.00  0.00    -0.230 A  
HETATM   37  C   UNL     1      -8.171  16.591  66.746  1.00  0.00    -0.279 A  
HETATM   38  C   UNL     1      -9.050  17.584  66.236  1.00  0.00    -0.221 A  
HETATM   39  C   UNL     1     -10.275  16.974  66.089  1.00  0.00    -0.337 A  
HETATM   40  O   UNL     1     -10.213  15.673  66.479  1.00  0.00    -0.264 OA 
HETATM   41  C   UNL     1      -8.934  15.437  66.890  1.00  0.00    -0.247 A  
HETATM   42  C   UNL     1      -8.453  14.228  67.404  1.00  0.00    -0.216 A  
ENDBRANCH  31  34
ENDBRANCH  17  20
ENDBRANCH  12  16
ENDBRANCH  11  12
ENDBRANCH   7  11
ENDBRANCH   2   5
TORSDOF 6
ENDMDL
MODEL       70
REMARK 921   NORMALIZED FREE ENERGY PREDICTED BY IDOCK:   -1.23 KCAL/MOL
REMARK 922        TOTAL FREE ENERGY PREDICTED BY IDOCK:   -2.28 KCAL/MOL
REMARK 923 INTER-LIGAND FREE ENERGY PREDICTED BY IDOCK:   -4.26 KCAL/MOL
REMARK 924 INTRA-LIGAND FREE ENERGY PREDICTED BY IDOCK:    1.98 KCAL/MOL
REMARK 927      BINDING AFFINITY PREDICTED BY RF-SCORE:    0.00 PKD
ROOT
HETATM    1  C   UNL     1     -10.370   7.421  65.869  1.00  0.00     1.306 C  
HETATM    2  S   UNL     1      -8.788   7.562  65.075  1.00  0.00     0.458 S  
HETATM    3  O   UNL     1      -8.557   6.358  64.303  1.00  0.00     0.101 OA 
HETATM    4  O   UNL     1      -8.714   8.872  64.455  1.00  0.00    -0.168 OA 
ENDROOT
BRANCH   2   5
HETATM    5  C   UNL     1      -7.613   7.519  66.407  1.00  0.00    -0.088 A  
HETATM    6  C   UNL     1      -7.953   6.797  67.554  1.00  0.00    -0.115 A  
HETATM    7  C   UNL     1      -7.021   6.587  68.572  1.00  0.00    -0.080 A  
HETATM    8  C   UNL     1      -5.757   7.188  68.440  1.00  0.00    -0.022 A  
HETATM    9  C   UNL     1      -5.425   7.936  67.302  1.00  0.00    -0.036 A  
HETATM   10  C   UNL     1      -6.350   8.090  66.269  1.00  0.00    -0.046 A  
BRANCH   7  11
HETATM   11  C   UNL     1      -7.290   5.725  69.793  1.00  0.00    -0.071 C  
BRANCH  11  12
HETATM   12  CA  UNL     1      -8.542   5.988  70.658  1.00  0.00    -0.134 C  
HETATM   13  C   UNL     1      -8.203   5.858  72.157  1.00  0.00    -0.108 C  
HETATM   14  OXT UNL     1      -7.340   5.131  72.622  1.00  0.00    -0.089 OA 
HETATM   15  O   UNL     1      -9.001   6.607  72.954  1.00  0.00    -0.129 OA 
BRANCH  12  16
HETATM   16  N   UNL     1      -9.256   7.255  70.322  1.00  0.00    -0.155 N  
HETATM   17  C   UNL     1      -8.677   8.507  70.413  1.00  0.00    -0.149 C  
HETATM   18  H   UNL     1     -10.225   7.194  70.007  1.00  0.00     0.000 HD 
HETATM   19  O   UNL     1      -7.520   8.632  70.796  1.00  0.00    -0.063 OA 
BRANCH  17  20
HETATM   20  C   UNL     1      -9.445   9.711  69.933  1.00  0.00    -0.260 A  
HETATM   21  C   UNL     1      -8.738  10.873  69.551  1.00  0.00     0.255 A  
HETATM   22 CL   UNL     1      -7.115  11.162  70.112  1.00  0.00     0.190 Cl 
HETATM   23  C   UNL     1      -9.356  11.887  68.777  1.00  0.00     0.013 A  
HETATM   24  C   UNL     1     -10.752  11.872  68.581  1.00  0.00    -0.266 A  
HETATM   25  C   UNL     1     -11.471  10.758  69.033  1.00  0.00    -0.368 A  
HETATM   26  C   UNL     1     -11.476  13.014  67.862  1.00  0.00    -0.311 C  
HETATM   27  C   UNL     1     -10.822   9.669  69.651  1.00  0.00    -0.244 A  
HETATM   28  N   UNL     1     -10.564  14.056  67.360  1.00  0.00    -0.277 N  
HETATM   29 CL   UNL     1     -11.812   8.283  69.960  1.00  0.00     0.299 Cl 
HETATM   30  C   UNL     1      -9.299  13.520  66.879  1.00  0.00    -0.253 C  
HETATM   31  C   UNL     1     -10.726  15.367  67.827  1.00  0.00    -0.289 C  
HETATM   32  C   UNL     1      -8.538  12.967  68.085  1.00  0.00    -0.188 C  
HETATM   33  O   UNL     1     -11.629  15.668  68.610  1.00  0.00    -0.356 OA 
BRANCH  31  34
HETATM   34  C   UNL     1      -9.805  16.478  67.418  1.00  0.00    -0.253 A  
HETATM   35  C   UNL     1      -8.727  16.139  66.576  1.00  0.00    -0.337 A  
HETATM   36  C   UNL     1      -7.733  17.071  66.228  1.00  0.00    -0.346 A  
HETATM   37  C   UNL     1      -7.825  18.372  66.744  1.00  0.00    -0.253 A  
HETATM   38  C   UNL     1      -7.039  19.553  66.662  1.00  0.00    -0.226 A  
HETATM   39  C   UNL     1      -7.685  20.499  67.424  1.00  0.00    -0.324 A  
HETATM   40  O   UNL     1      -8.814  19.981  67.976  1.00  0.00    -0.304 OA 
HETATM   41  C   UNL     1      -8.899  18.681  67.572  1.00  0.00    -0.270 A  
HETATM   42  C   UNL     1      -9.899  17.775  67.946  1.00  0.00    -0.306 A  
ENDBRANCH  31  34
ENDBRANCH  17  20
ENDBRANCH  12  16
ENDBRANCH  11  12
ENDBRANCH   7  11
ENDBRANCH   2   5
TORSDOF 6
ENDMDL
MODEL       71
REMARK 921   NORMALIZED FREE ENERGY PREDICTED BY IDOCK:   -1.03 KCAL/MOL
REMARK 922        TOTAL FREE ENERGY PREDICTED BY IDOCK:   -2.01 KCAL/MOL
REMARK 923 INTER-LIGAND FREE ENERGY PREDICTED BY IDOCK:   -6.05 KCAL/MOL
REMARK 924 INTRA-LIGAND FREE ENERGY PREDICTED BY IDOCK:    4.04 KCAL/MOL
REMARK 927      BINDING AFFINITY PREDICTED BY RF-SCORE:    0.00 PKD
ROOT
HETATM    1  C   UNL     1      -6.747  18.968  65.445  1.00  0.00    -0.228 C  
HETATM    2  S   UNL     1      -6.737  19.339  67.182  1.00  0.00    -0.192 S  
HETATM    3  O   UNL     1      -5.673  18.579  67.804  1.00  0.00    -0.165 OA 
HETATM    4  O   UNL     1      -6.811  20.781  67.330  1.00  0.00    -0.303 OA 
ENDROOT
BRANCH   2   5
HETATM    5  C   UNL     1      -8.254  18.648  67.796  1.00  0.00    -0.255 A  
HETATM    6  C   UNL     1      -8.335  17.258  67.919  1.00  0.00    -0.220 A  
HETATM    7  C   UNL     1      -9.431  16.655  68.541  1.00  0.00    -0.239 A  
HETATM    8  C   UNL     1     -10.481  17.486  68.969  1.00  0.00    -0.250 A  
HETATM    9  C   UNL     1     -10.412  18.877  68.820  1.00  0.00    -0.040 A  
HETATM   10  C   UNL     1      -9.286  19.467  68.247  1.00  0.00    -0.420 A  
BRANCH   7  11
HETATM   11  C   UNL     1      -9.532  15.163  68.802  1.00  0.00    -0.209 C  
BRANCH  11  12
HETATM   12  CA  UNL     1     -10.775  14.382  68.320  1.00  0.00    -0.242 C  
HETATM   13  C   UNL     1     -11.609  15.239  67.346  1.00  0.00    -0.188 C  
HETATM   14  OXT UNL     1     -11.683  16.456  67.367  1.00  0.00     0.310 OA 
HETATM   15  O   UNL     1     -12.321  14.503  66.461  1.00  0.00    -0.346 OA 
BRANCH  12  16
HETATM   16  N   UNL     1     -10.469  13.019  67.795  1.00  0.00    -0.224 N  
HETATM   17  C   UNL     1      -9.217  12.436  67.863  1.00  0.00    -0.192 C  
HETATM   18  H   UNL     1     -11.224  12.489  67.360  1.00  0.00     0.000 HD 
HETATM   19  O   UNL     1      -8.275  13.039  68.367  1.00  0.00    -0.151 OA 
BRANCH  17  20
HETATM   20  C   UNL     1      -9.043  11.008  67.414  1.00  0.00    -0.143 A  
HETATM   21  C   UNL     1      -8.657  10.030  68.357  1.00  0.00    -0.113 A  
HETATM   22 CL   UNL     1      -7.863  10.477  69.842  1.00  0.00    -0.067 Cl 
HETATM   23  C   UNL     1      -8.816   8.647  68.088  1.00  0.00    -0.142 A  
HETATM   24  C   UNL     1      -9.132   8.215  66.784  1.00  0.00    -0.191 A  
HETATM   25  C   UNL     1      -9.435   9.187  65.821  1.00  0.00    -0.322 A  
HETATM   26  C   UNL     1      -9.187   6.729  66.420  1.00  0.00    -0.153 C  
HETATM   27  C   UNL     1      -9.444  10.559  66.143  1.00  0.00    -0.180 A  
HETATM   28  N   UNL     1      -8.944   5.840  67.569  1.00  0.00    -0.109 N  
HETATM   29 CL   UNL     1     -10.042  11.616  64.909  1.00  0.00    -0.288 Cl 
HETATM   30  C   UNL     1      -9.504   6.351  68.811  1.00  0.00    -0.127 C  
HETATM   31  C   UNL     1      -7.860   4.954  67.511  1.00  0.00    -0.094 C  
HETATM   32  C   UNL     1      -8.721   7.608  69.194  1.00  0.00    -0.139 C  
HETATM   33  O   UNL     1      -7.138   4.880  66.515  1.00  0.00    -0.069 OA 
BRANCH  31  34
HETATM   34  C   UNL     1      -7.502   4.057  68.658  1.00  0.00    -0.055 A  
HETATM   35  C   UNL     1      -7.186   2.719  68.351  1.00  0.00    -0.049 A  
HETATM   36  C   UNL     1      -6.954   1.759  69.352  1.00  0.00    -0.033 A  
HETATM   37  C   UNL     1      -7.047   2.157  70.694  1.00  0.00    -0.033 A  
HETATM   38  C   UNL     1      -6.921   1.511  71.953  1.00  0.00    -0.019 A  
HETATM   39  C   UNL     1      -7.147   2.477  72.906  1.00  0.00    -0.032 A  
HETATM   40  O   UNL     1      -7.409   3.676  72.321  1.00  0.00    -0.049 OA 
HETATM   41  C   UNL     1      -7.359   3.484  70.971  1.00  0.00    -0.037 A  
HETATM   42  C   UNL     1      -7.605   4.460  69.999  1.00  0.00    -0.050 A  
ENDBRANCH  31  34
ENDBRANCH  17  20
ENDBRANCH  12  16
ENDBRANCH  11  12
ENDBRANCH   7  11
ENDBRANCH   2   5
TORSDOF 6
ENDMDL
MODEL       72
REMARK 921   NORMALIZED FREE ENERGY PREDICTED BY IDOCK:   -0.58 KCAL/MOL
REMARK 922        TOTAL FREE ENERGY PREDICTED BY IDOCK:   -1.40 KCAL/MOL
REMARK 923 INTER-LIGAND FREE ENERGY PREDICTED BY IDOCK:   -0.64 KCAL/MOL
REMARK 924 INTRA-LIGAND FREE ENERGY PREDICTED BY IDOCK:   -0.76 KCAL/MOL
REMARK 927      BINDING AFFINITY PREDICTED BY RF-SCORE:    0.00 PKD
ROOT
HETATM    1  C   UNL     1      -7.497  13.350  69.699  1.00  0.00     0.651 C  
HETATM    2  S   UNL     1      -8.327  11.974  68.943  1.00  0.00     0.259 S  
HETATM    3  O   UNL     1      -7.909  11.895  67.559  1.00  0.00    -0.133 OA 
HETATM    4  O   UNL     1      -8.195  10.833  69.830  1.00  0.00     0.149 OA 
ENDROOT
BRANCH   2   5
HETATM    5  C   UNL     1     -10.039  12.447  68.910  1.00  0.00     0.038 A  
HETATM    6  C   UNL     1     -10.514  13.095  67.766  1.00  0.00    -0.232 A  
HETATM    7  C   UNL     1     -11.877  13.352  67.603  1.00  0.00    -0.394 A  
HETATM    8  C   UNL     1     -12.742  13.008  68.657  1.00  0.00     1.075 A  
HETATM    9  C   UNL     1     -12.260  12.384  69.815  1.00  0.00    -0.198 A  
HETATM   10  C   UNL     1     -10.904  12.084  69.939  1.00  0.00     0.452 A  
BRANCH   7  11
HETATM   11  C   UNL     1     -12.473  13.955  66.343  1.00  0.00    -0.414 C  
BRANCH  11  12
HETATM   12  CA  UNL     1     -11.670  13.924  65.024  1.00  0.00    -0.359 C  
HETATM   13  C   UNL     1     -11.087  15.318  64.712  1.00  0.00    -0.394 C  
HETATM   14  OXT UNL     1     -11.589  16.380  65.041  1.00  0.00     0.056 OA 
HETATM   15  O   UNL     1      -9.954  15.271  63.973  1.00  0.00     1.320 OA 
BRANCH  12  16
HETATM   16  N   UNL     1     -10.657  12.831  64.955  1.00  0.00    -0.298 N  
HETATM   17  C   UNL     1     -10.980  11.487  64.959  1.00  0.00    -0.241 C  
HETATM   18  H   UNL     1      -9.671  13.089  64.903  1.00  0.00     0.000 HD 
HETATM   19  O   UNL     1     -12.150  11.127  65.032  1.00  0.00     0.463 OA 
BRANCH  17  20
HETATM   20  C   UNL     1      -9.890  10.465  64.763  1.00  0.00    -0.406 A  
HETATM   21  C   UNL     1      -9.775   9.394  65.677  1.00  0.00    -0.266 A  
HETATM   22 CL   UNL     1     -10.460   9.499  67.275  1.00  0.00    -0.324 Cl 
HETATM   23  C   UNL     1      -9.021   8.237  65.361  1.00  0.00    -0.062 A  
HETATM   24  C   UNL     1      -8.172   8.234  64.235  1.00  0.00    -0.116 A  
HETATM   25  C   UNL     1      -8.221   9.335  63.368  1.00  0.00    -0.176 A  
HETATM   26  C   UNL     1      -7.244   7.056  63.929  1.00  0.00    -0.070 C  
HETATM   27  C   UNL     1      -9.105  10.409  63.598  1.00  0.00    -0.253 A  
HETATM   28  N   UNL     1      -7.390   5.940  64.879  1.00  0.00    -0.069 N  
HETATM   29 CL   UNL     1      -9.201  11.586  62.331  1.00  0.00    -0.101 Cl 
HETATM   30  C   UNL     1      -8.761   5.746  65.323  1.00  0.00    -0.096 C  
HETATM   31  C   UNL     1      -6.269   5.545  65.621  1.00  0.00    -0.034 C  
HETATM   32  C   UNL     1      -9.153   6.957  66.172  1.00  0.00    -0.144 C  
HETATM   33  O   UNL     1      -5.170   6.082  65.470  1.00  0.00    -0.012 OA 
BRANCH  31  34
HETATM   34  C   UNL     1      -6.340   4.461  66.655  1.00  0.00    -0.037 A  
HETATM   35  C   UNL     1      -6.507   3.141  66.189  1.00  0.00    -0.032 A  
HETATM   36  C   UNL     1      -6.708   2.061  67.067  1.00  0.00    -0.039 A  
HETATM   37  C   UNL     1      -6.746   2.318  68.446  1.00  0.00    -0.029 A  
HETATM   38  C   UNL     1      -6.950   1.539  69.616  1.00  0.00    -0.033 A  
HETATM   39  C   UNL     1      -6.880   2.412  70.677  1.00  0.00    -0.033 A  
HETATM   40  O   UNL     1      -6.650   3.679  70.242  1.00  0.00    -0.031 OA 
HETATM   41  C   UNL     1      -6.577   3.629  68.880  1.00  0.00    -0.040 A  
HETATM   42  C   UNL     1      -6.386   4.726  68.033  1.00  0.00    -0.037 A  
ENDBRANCH  31  34
ENDBRANCH  17  20
ENDBRANCH  12  16
ENDBRANCH  11  12
ENDBRANCH   7  11
ENDBRANCH   2   5
TORSDOF 6
ENDMDL
MODEL       73
REMARK 921   NORMALIZED FREE ENERGY PREDICTED BY IDOCK:   -0.41 KCAL/MOL
REMARK 922        TOTAL FREE ENERGY PREDICTED BY IDOCK:   -1.18 KCAL/MOL
REMARK 923 INTER-LIGAND FREE ENERGY PREDICTED BY IDOCK:   -4.21 KCAL/MOL
REMARK 924 INTRA-LIGAND FREE ENERGY PREDICTED BY IDOCK:    3.03 KCAL/MOL
REMARK 927      BINDING AFFINITY PREDICTED BY RF-SCORE:    0.00 PKD
ROOT
HETATM    1  C   UNL     1     -11.326   5.016  72.177  1.00  0.00     0.168 C  
HETATM    2  S   UNL     1      -9.851   5.870  71.677  1.00  0.00    -0.167 S  
HETATM    3  O   UNL     1     -10.079   7.293  71.823  1.00  0.00    -0.180 OA 
HETATM    4  O   UNL     1      -8.722   5.224  72.320  1.00  0.00    -0.128 OA 
ENDROOT
BRANCH   2   5
HETATM    5  C   UNL     1      -9.731   5.572  69.930  1.00  0.00    -0.174 A  
HETATM    6  C   UNL     1      -8.459   5.363  69.390  1.00  0.00    -0.099 A  
HETATM    7  C   UNL     1      -8.301   4.967  68.060  1.00  0.00    -0.099 A  
HETATM    8  C   UNL     1      -9.456   4.859  67.264  1.00  0.00    -0.157 A  
HETATM    9  C   UNL     1     -10.729   5.096  67.800  1.00  0.00     0.074 A  
HETATM   10  C   UNL     1     -10.873   5.437  69.144  1.00  0.00    -0.044 A  
BRANCH   7  11
HETATM   11  C   UNL     1      -6.958   4.621  67.440  1.00  0.00    -0.061 C  
BRANCH  11  12
HETATM   12  CA  UNL     1      -6.130   5.720  66.739  1.00  0.00    -0.026 C  
HETATM   13  C   UNL     1      -6.597   5.902  65.280  1.00  0.00    -0.043 C  
HETATM   14  OXT UNL     1      -7.075   5.024  64.580  1.00  0.00    -0.052 OA 
HETATM   15  O   UNL     1      -6.381   7.149  64.800  1.00  0.00    -0.036 OA 
BRANCH  12  16
HETATM   16  N   UNL     1      -6.056   7.002  67.500  1.00  0.00    -0.035 N  
HETATM   17  C   UNL     1      -5.614   8.191  66.952  1.00  0.00    -0.037 C  
HETATM   18  H   UNL     1      -6.347   7.000  68.478  1.00  0.00     0.000 HD 
HETATM   19  O   UNL     1      -5.243   8.241  65.785  1.00  0.00    -0.030 OA 
BRANCH  17  20
HETATM   20  C   UNL     1      -5.693   9.454  67.770  1.00  0.00    -0.041 A  
HETATM   21  C   UNL     1      -6.085  10.659  67.144  1.00  0.00    -0.061 A  
HETATM   22 CL   UNL     1      -5.950  10.860  65.420  1.00  0.00    -0.053 Cl 
HETATM   23  C   UNL     1      -6.513  11.776  67.905  1.00  0.00    -0.068 A  
HETATM   24  C   UNL     1      -6.323  11.792  69.302  1.00  0.00    -0.103 A  
HETATM   25  C   UNL     1      -5.854  10.624  69.919  1.00  0.00    -0.067 A  
HETATM   26  C   UNL     1      -6.651  13.028  70.144  1.00  0.00     0.296 C  
HETATM   27  C   UNL     1      -5.595   9.456  69.173  1.00  0.00    -0.036 A  
HETATM   28  N   UNL     1      -7.230  14.130  69.357  1.00  0.00    -0.064 N  
HETATM   29 CL   UNL     1      -5.226   8.041  70.100  1.00  0.00    -0.023 Cl 
HETATM   30  C   UNL     1      -8.106  13.669  68.291  1.00  0.00    -0.155 C  
HETATM   31  C   UNL     1      -6.557  15.359  69.334  1.00  0.00    -0.155 C  
HETATM   32  C   UNL     1      -7.242  12.944  67.258  1.00  0.00    -0.075 C  
HETATM   33  O   UNL     1      -5.525  15.544  69.981  1.00  0.00    -0.118 OA 
BRANCH  31  34
HETATM   34  C   UNL     1      -7.040  16.517  68.512  1.00  0.00    -0.164 A  
HETATM   35  C   UNL     1      -6.164  17.011  67.525  1.00  0.00    -0.169 A  
HETATM   36  C   UNL     1      -6.458  18.165  66.778  1.00  0.00    -0.213 A  
HETATM   37  C   UNL     1      -7.661  18.840  67.036  1.00  0.00    -0.244 A  
HETATM   38  C   UNL     1      -8.290  20.014  66.542  1.00  0.00    -0.353 A  
HETATM   39  C   UNL     1      -9.474  20.137  67.232  1.00  0.00    -0.401 A  
HETATM   40  O   UNL     1      -9.617  19.120  68.123  1.00  0.00    -0.314 OA 
HETATM   41  C   UNL     1      -8.509  18.331  68.014  1.00  0.00    -0.262 A  
HETATM   42  C   UNL     1      -8.241  17.192  68.781  1.00  0.00    -0.238 A  
ENDBRANCH  31  34
ENDBRANCH  17  20
ENDBRANCH  12  16
ENDBRANCH  11  12
ENDBRANCH   7  11
ENDBRANCH   2   5
TORSDOF 6
ENDMDL
MODEL       74
REMARK 921   NORMALIZED FREE ENERGY PREDICTED BY IDOCK:   -0.13 KCAL/MOL
REMARK 922        TOTAL FREE ENERGY PREDICTED BY IDOCK:   -0.80 KCAL/MOL
REMARK 923 INTER-LIGAND FREE ENERGY PREDICTED BY IDOCK:   -2.58 KCAL/MOL
REMARK 924 INTRA-LIGAND FREE ENERGY PREDICTED BY IDOCK:    1.78 KCAL/MOL
REMARK 927      BINDING AFFINITY PREDICTED BY RF-SCORE:    0.00 PKD
ROOT
HETATM    1  C   UNL     1      -5.915  19.174  65.711  1.00  0.00    -0.189 C  
HETATM    2  S   UNL     1      -6.226  19.389  67.446  1.00  0.00    -0.190 S  
HETATM    3  O   UNL     1      -5.138  18.778  68.182  1.00  0.00    -0.176 OA 
HETATM    4  O   UNL     1      -6.590  20.776  67.666  1.00  0.00    -0.289 OA 
ENDROOT
BRANCH   2   5
HETATM    5  C   UNL     1      -7.657  18.388  67.772  1.00  0.00    -0.231 A  
HETATM    6  C   UNL     1      -7.548  17.009  67.572  1.00  0.00    -0.184 A  
HETATM    7  C   UNL     1      -8.576  16.145  67.958  1.00  0.00    -0.171 A  
HETATM    8  C   UNL     1      -9.751  16.714  68.481  1.00  0.00    -0.244 A  
HETATM    9  C   UNL     1      -9.870  18.099  68.655  1.00  0.00    -0.389 A  
HETATM   10  C   UNL     1      -8.813  18.943  68.317  1.00  0.00    -0.367 A  
BRANCH   7  11
HETATM   11  C   UNL     1      -8.480  14.632  67.867  1.00  0.00    -0.158 C  
BRANCH  11  12
HETATM   12  CA  UNL     1      -9.587  13.835  67.143  1.00  0.00    -0.244 C  
HETATM   13  C   UNL     1      -9.782  14.361  65.706  1.00  0.00    -0.252 C  
HETATM   14  OXT UNL     1      -9.589  15.511  65.346  1.00  0.00    -0.271 OA 
HETATM   15  O   UNL     1     -10.248  13.422  64.850  1.00  0.00    -0.348 OA 
BRANCH  12  16
HETATM   16  N   UNL     1      -9.410  12.354  67.211  1.00  0.00    -0.179 N  
HETATM   17  C   UNL     1      -8.406  11.672  66.550  1.00  0.00    -0.122 C  
HETATM   18  H   UNL     1     -10.067  11.816  67.776  1.00  0.00     0.000 HD 
HETATM   19  O   UNL     1      -7.599  12.275  65.850  1.00  0.00     0.984 OA 
BRANCH  17  20
HETATM   20  C   UNL     1      -8.242  10.193  66.783  1.00  0.00    -0.122 A  
HETATM   21  C   UNL     1      -8.845   9.601  67.915  1.00  0.00    -0.119 A  
HETATM   22 CL   UNL     1      -9.289  10.559  69.300  1.00  0.00    -0.203 Cl 
HETATM   23  C   UNL     1      -9.026   8.198  68.002  1.00  0.00    -0.134 A  
HETATM   24  C   UNL     1      -8.388   7.346  67.076  1.00  0.00    -0.121 A  
HETATM   25  C   UNL     1      -7.716   7.932  65.994  1.00  0.00    -0.092 A  
HETATM   26  C   UNL     1      -8.450   5.822  67.209  1.00  0.00    -0.107 C  
HETATM   27  C   UNL     1      -7.688   9.330  65.820  1.00  0.00    -0.098 A  
HETATM   28  N   UNL     1      -9.280   5.371  68.339  1.00  0.00    -0.109 N  
HETATM   29 CL   UNL     1      -7.003   9.887  64.330  1.00  0.00    -0.125 Cl 
HETATM   30  C   UNL     1     -10.446   6.213  68.559  1.00  0.00    -0.237 C  
HETATM   31  C   UNL     1      -8.681   4.595  69.340  1.00  0.00    -0.082 C  
HETATM   32  C   UNL     1      -9.953   7.580  69.036  1.00  0.00    -0.175 C  
HETATM   33  O   UNL     1      -7.498   4.257  69.275  1.00  0.00    -0.054 OA 
BRANCH  31  34
HETATM   34  C   UNL     1      -9.434   4.144  70.556  1.00  0.00    -0.243 A  
HETATM   35  C   UNL     1      -9.051   2.914  71.127  1.00  0.00    -0.182 A  
HETATM   36  C   UNL     1      -9.762   2.334  72.192  1.00  0.00    -0.200 A  
HETATM   37  C   UNL     1     -10.887   3.007  72.690  1.00  0.00     0.033 A  
HETATM   38  C   UNL     1     -11.857   2.751  73.697  1.00  0.00     0.125 A  
HETATM   39  C   UNL     1     -12.724   3.820  73.677  1.00  0.00     1.832 A  
HETATM   40  O   UNL     1     -12.358   4.716  72.722  1.00  0.00     0.266 OA 
HETATM   41  C   UNL     1     -11.244   4.220  72.111  1.00  0.00     0.601 A  
HETATM   42  C   UNL     1     -10.564   4.819  71.044  1.00  0.00    -0.016 A  
ENDBRANCH  31  34
ENDBRANCH  17  20
ENDBRANCH  12  16
ENDBRANCH  11  12
ENDBRANCH   7  11
ENDBRANCH   2   5
TORSDOF 6
ENDMDL
MODEL       75
REMARK 921   NORMALIZED FREE ENERGY PREDICTED BY IDOCK:    0.71 KCAL/MOL
REMARK 922        TOTAL FREE ENERGY PREDICTED BY IDOCK:    0.33 KCAL/MOL
REMARK 923 INTER-LIGAND FREE ENERGY PREDICTED BY IDOCK:   -2.08 KCAL/MOL
REMARK 924 INTRA-LIGAND FREE ENERGY PREDICTED BY IDOCK:    2.42 KCAL/MOL
REMARK 927      BINDING AFFINITY PREDICTED BY RF-SCORE:    0.00 PKD
ROOT
HETATM    1  C   UNL     1      -7.530  18.299  65.398  1.00  0.00     0.482 C  
HETATM    2  S   UNL     1      -7.379  19.365  66.810  1.00  0.00    -0.228 S  
HETATM    3  O   UNL     1      -6.125  19.068  67.472  1.00  0.00    -0.185 OA 
HETATM    4  O   UNL     1      -7.698  20.716  66.386  1.00  0.00    -0.138 OA 
ENDROOT
BRANCH   2   5
HETATM    5  C   UNL     1      -8.656  18.823  67.919  1.00  0.00    -0.296 A  
HETATM    6  C   UNL     1      -8.589  17.513  68.401  1.00  0.00    -0.275 A  
HETATM    7  C   UNL     1      -9.464  17.069  69.395  1.00  0.00     0.109 A  
HETATM    8  C   UNL     1     -10.459  17.957  69.839  1.00  0.00     0.831 A  
HETATM    9  C   UNL     1     -10.544  19.262  69.335  1.00  0.00     0.669 A  
HETATM   10  C   UNL     1      -9.628  19.707  68.382  1.00  0.00    -0.468 A  
BRANCH   7  11
HETATM   11  C   UNL     1      -9.378  15.696  70.038  1.00  0.00     0.203 C  
BRANCH  11  12
HETATM   12  CA  UNL     1     -10.499  14.662  69.794  1.00  0.00     0.007 C  
HETATM   13  C   UNL     1     -11.882  15.344  69.834  1.00  0.00    -0.350 C  
HETATM   14  OXT UNL     1     -12.160  16.331  70.495  1.00  0.00    -0.149 OA 
HETATM   15  O   UNL     1     -12.815  14.707  69.087  1.00  0.00     0.220 OA 
BRANCH  12  16
HETATM   16  N   UNL     1     -10.292  13.817  68.582  1.00  0.00    -0.251 N  
HETATM   17  C   UNL     1      -9.122  13.808  67.846  1.00  0.00    -0.193 C  
HETATM   18  H   UNL     1     -11.056  13.212  68.279  1.00  0.00     0.000 HD 
HETATM   19  O   UNL     1      -8.180  14.526  68.164  1.00  0.00    -0.131 OA 
BRANCH  17  20
HETATM   20  C   UNL     1      -8.971  12.828  66.711  1.00  0.00    -0.188 A  
HETATM   21  C   UNL     1      -8.368  11.575  66.957  1.00  0.00    -0.165 A  
HETATM   22 CL   UNL     1      -7.328  11.333  68.333  1.00  0.00    -0.090 Cl 
HETATM   23  C   UNL     1      -8.512  10.499  66.045  1.00  0.00    -0.157 A  
HETATM   24  C   UNL     1      -9.051  10.729  64.763  1.00  0.00    -0.222 A  
HETATM   25  C   UNL     1      -9.575  11.999  64.485  1.00  0.00     0.003 A  
HETATM   26  C   UNL     1      -9.105   9.626  63.703  1.00  0.00    -0.174 C  
HETATM   27  C   UNL     1      -9.585  13.016  65.460  1.00  0.00     0.047 A  
HETATM   28  N   UNL     1      -8.608   8.328  64.190  1.00  0.00     0.049 N  
HETATM   29 CL   UNL     1     -10.455  14.453  65.037  1.00  0.00    -0.434 Cl 
HETATM   30  C   UNL     1      -8.944   8.076  65.583  1.00  0.00    -0.054 C  
HETATM   31  C   UNL     1      -7.515   7.743  63.536  1.00  0.00    -0.115 C  
HETATM   32  C   UNL     1      -8.161   9.073  66.440  1.00  0.00    -0.110 C  
HETATM   33  O   UNL     1      -6.993   8.269  62.552  1.00  0.00    -0.090 OA 
BRANCH  31  34
HETATM   34  C   UNL     1      -6.904   6.455  64.001  1.00  0.00    -0.041 A  
HETATM   35  C   UNL     1      -7.040   5.338  63.152  1.00  0.00    -0.042 A  
HETATM   36  C   UNL     1      -6.615   4.054  63.536  1.00  0.00    -0.034 A  
HETATM   37  C   UNL     1      -6.046   3.891  64.808  1.00  0.00    -0.023 A  
HETATM   38  C   UNL     1      -5.539   2.795  65.558  1.00  0.00    -0.017 A  
HETATM   39  C   UNL     1      -5.131   3.312  66.766  1.00  0.00    -0.008 A  
HETATM   40  O   UNL     1      -5.355   4.652  66.815  1.00  0.00    -0.011 OA 
HETATM   41  C   UNL     1      -5.922   5.008  65.626  1.00  0.00    -0.022 A  
HETATM   42  C   UNL     1      -6.344   6.297  65.278  1.00  0.00    -0.038 A  
ENDBRANCH  31  34
ENDBRANCH  17  20
ENDBRANCH  12  16
ENDBRANCH  11  12
ENDBRANCH   7  11
ENDBRANCH   2   5
TORSDOF 6
ENDMDL
MODEL       76
REMARK 921   NORMALIZED FREE ENERGY PREDICTED BY IDOCK:    0.78 KCAL/MOL
REMARK 922        TOTAL FREE ENERGY PREDICTED BY IDOCK:    0.43 KCAL/MOL
REMARK 923 INTER-LIGAND FREE ENERGY PREDICTED BY IDOCK:   -3.82 KCAL/MOL
REMARK 924 INTRA-LIGAND FREE ENERGY PREDICTED BY IDOCK:    4.25 KCAL/MOL
REMARK 927      BINDING AFFINITY PREDICTED BY RF-SCORE:    0.00 PKD
ROOT
HETATM    1  C   UNL     1     -10.879  16.105  69.234  1.00  0.00    -0.310 C  
HETATM    2  S   UNL     1     -10.839  17.227  67.858  1.00  0.00    -0.187 S  
HETATM    3  O   UNL     1     -10.671  16.453  66.645  1.00  0.00    -0.278 OA 
HETATM    4  O   UNL     1     -11.945  18.154  68.005  1.00  0.00     1.659 OA 
ENDROOT
BRANCH   2   5
HETATM    5  C   UNL     1      -9.328  18.139  68.067  1.00  0.00    -0.283 A  
HETATM    6  C   UNL     1      -8.127  17.425  68.043  1.00  0.00    -0.227 A  
HETATM    7  C   UNL     1      -6.898  18.090  68.041  1.00  0.00    -0.206 A  
HETATM    8  C   UNL     1      -6.909  19.492  68.142  1.00  0.00    -0.306 A  
HETATM    9  C   UNL     1      -8.115  20.205  68.195  1.00  0.00    -0.164 A  
HETATM   10  C   UNL     1      -9.333  19.530  68.140  1.00  0.00    -0.422 A  
BRANCH   7  11
HETATM   11  C   UNL     1      -5.561  17.382  67.909  1.00  0.00    -0.132 C  
BRANCH  11  12
HETATM   12  CA  UNL     1      -5.183  16.262  68.903  1.00  0.00    -0.105 C  
HETATM   13  C   UNL     1      -5.501  16.691  70.350  1.00  0.00    -0.189 C  
HETATM   14  OXT UNL     1      -5.484  17.840  70.762  1.00  0.00    -0.254 OA 
HETATM   15  O   UNL     1      -5.765  15.649  71.172  1.00  0.00     0.060 OA 
BRANCH  12  16
HETATM   16  N   UNL     1      -5.739  14.923  68.548  1.00  0.00    -0.092 N  
HETATM   17  C   UNL     1      -7.089  14.675  68.381  1.00  0.00    -0.116 C  
HETATM   18  H   UNL     1      -5.087  14.148  68.422  1.00  0.00     0.000 HD 
HETATM   19  O   UNL     1      -7.911  15.572  68.532  1.00  0.00    -0.126 OA 
BRANCH  17  20
HETATM   20  C   UNL     1      -7.535  13.318  67.903  1.00  0.00    -0.143 A  
HETATM   21  C   UNL     1      -7.188  12.173  68.654  1.00  0.00    -0.109 A  
HETATM   22 CL   UNL     1      -5.848  12.200  69.766  1.00  0.00    -0.109 Cl 
HETATM   23  C   UNL     1      -7.857  10.938  68.461  1.00  0.00    -0.126 A  
HETATM   24  C   UNL     1      -8.709  10.763  67.352  1.00  0.00    -0.126 A  
HETATM   25  C   UNL     1      -8.991  11.880  66.552  1.00  0.00    -0.199 A  
HETATM   26  C   UNL     1      -9.349   9.409  67.034  1.00  0.00    -0.148 C  
HETATM   27  C   UNL     1      -8.457  13.149  66.854  1.00  0.00    -0.070 A  
HETATM   28  N   UNL     1      -9.033   8.369  68.028  1.00  0.00    -0.138 N  
HETATM   29 CL   UNL     1      -9.064  14.463  65.904  1.00  0.00     0.034 Cl 
HETATM   30  C   UNL     1      -8.955   8.886  69.385  1.00  0.00    -0.145 C  
HETATM   31  C   UNL     1      -8.370   7.213  67.597  1.00  0.00    -0.117 C  
HETATM   32  C   UNL     1      -7.734   9.804  69.467  1.00  0.00    -0.120 C  
HETATM   33  O   UNL     1      -8.083   7.035  66.411  1.00  0.00    -0.105 OA 
BRANCH  31  34
HETATM   34  C   UNL     1      -7.954   6.131  68.548  1.00  0.00    -0.108 A  
HETATM   35  C   UNL     1      -8.915   5.149  68.862  1.00  0.00    -0.122 A  
HETATM   36  C   UNL     1      -8.679   4.159  69.833  1.00  0.00    -0.114 A  
HETATM   37  C   UNL     1      -7.448   4.162  70.505  1.00  0.00    -0.045 A  
HETATM   38  C   UNL     1      -6.855   3.384  71.535  1.00  0.00    -0.031 A  
HETATM   39  C   UNL     1      -5.608   3.922  71.756  1.00  0.00    -0.008 A  
HETATM   40  O   UNL     1      -5.393   4.985  70.935  1.00  0.00    -0.004 OA 
HETATM   41  C   UNL     1      -6.516   5.141  70.177  1.00  0.00    -0.031 A  
HETATM   42  C   UNL     1      -6.724   6.145  69.224  1.00  0.00    -0.060 A  
ENDBRANCH  31  34
ENDBRANCH  17  20
ENDBRANCH  12  16
ENDBRANCH  11  12
ENDBRANCH   7  11
ENDBRANCH   2   5
TORSDOF 6
ENDMDL
MODEL       77
REMARK 921   NORMALIZED FREE ENERGY PREDICTED BY IDOCK:    1.16 KCAL/MOL
REMARK 922        TOTAL FREE ENERGY PREDICTED BY IDOCK:    0.94 KCAL/MOL
REMARK 923 INTER-LIGAND FREE ENERGY PREDICTED BY IDOCK:    0.75 KCAL/MOL
REMARK 924 INTRA-LIGAND FREE ENERGY PREDICTED BY IDOCK:    0.19 KCAL/MOL
REMARK 927      BINDING AFFINITY PREDICTED BY RF-SCORE:    0.00 PKD
ROOT
HETATM    1  C   UNL     1     -13.651   9.126  71.833  1.00  0.00    -0.432 C  
HETATM    2  S   UNL     1     -13.112   7.436  71.746  1.00  0.00    -0.278 S  
HETATM    3  O   UNL     1     -12.306   7.155  72.915  1.00  0.00     0.297 OA 
HETATM    4  O   UNL     1     -14.263   6.617  71.417  1.00  0.00    -0.042 OA 
ENDROOT
BRANCH   2   5
HETATM    5  C   UNL     1     -11.997   7.393  70.363  1.00  0.00    -0.023 A  
HETATM    6  C   UNL     1     -10.937   6.482  70.408  1.00  0.00    -0.353 A  
HETATM    7  C   UNL     1     -10.118   6.280  69.295  1.00  0.00    -0.213 A  
HETATM    8  C   UNL     1     -10.346   7.075  68.158  1.00  0.00    -0.226 A  
HETATM    9  C   UNL     1     -11.391   8.007  68.124  1.00  0.00     0.818 A  
HETATM   10  C   UNL     1     -12.235   8.158  69.224  1.00  0.00     2.349 A  
BRANCH   7  11
HETATM   11  C   UNL     1      -9.018   5.234  69.241  1.00  0.00    -0.126 C  
BRANCH  11  12
HETATM   12  CA  UNL     1      -7.782   5.370  70.157  1.00  0.00    -0.077 C  
HETATM   13  C   UNL     1      -6.637   4.465  69.659  1.00  0.00    -0.033 C  
HETATM   14  OXT UNL     1      -6.783   3.410  69.063  1.00  0.00    -0.036 OA 
HETATM   15  O   UNL     1      -5.408   4.924  69.991  1.00  0.00     0.000 OA 
BRANCH  12  16
HETATM   16  N   UNL     1      -7.358   6.781  70.397  1.00  0.00    -0.079 N  
HETATM   17  C   UNL     1      -6.631   7.527  69.488  1.00  0.00    -0.036 C  
HETATM   18  H   UNL     1      -7.618   7.218  71.281  1.00  0.00     0.000 HD 
HETATM   19  O   UNL     1      -6.287   7.040  68.417  1.00  0.00    -0.033 OA 
BRANCH  17  20
HETATM   20  C   UNL     1      -6.360   8.980  69.777  1.00  0.00    -0.038 A  
HETATM   21  C   UNL     1      -6.907   9.967  68.927  1.00  0.00    -0.057 A  
HETATM   22 CL   UNL     1      -7.403   9.579  67.303  1.00  0.00    -0.087 Cl 
HETATM   23  C   UNL     1      -6.985  11.323  69.331  1.00  0.00    -0.109 A  
HETATM   24  C   UNL     1      -6.299  11.756  70.484  1.00  0.00     0.326 A  
HETATM   25  C   UNL     1      -5.682  10.788  71.288  1.00  0.00     0.112 A  
HETATM   26  C   UNL     1      -6.250  13.233  70.885  1.00  0.00     0.370 C  
HETATM   27  C   UNL     1      -5.756   9.416  70.970  1.00  0.00    -0.060 A  
HETATM   28  N   UNL     1      -7.034  14.103  69.992  1.00  0.00     0.061 N  
HETATM   29 CL   UNL     1      -5.129   8.333  72.167  1.00  0.00    -0.035 Cl 
HETATM   30  C   UNL     1      -8.255  13.474  69.513  1.00  0.00     1.013 C  
HETATM   31  C   UNL     1      -6.370  15.132  69.312  1.00  0.00    -0.117 C  
HETATM   32  C   UNL     1      -7.855  12.324  68.586  1.00  0.00    -0.063 C  
HETATM   33  O   UNL     1      -5.166  15.343  69.472  1.00  0.00    -0.097 OA 
BRANCH  31  34
HETATM   34  C   UNL     1      -7.075  16.027  68.336  1.00  0.00    -0.125 A  
HETATM   35  C   UNL     1      -6.304  16.562  67.285  1.00  0.00    -0.213 A  
HETATM   36  C   UNL     1      -6.827  17.507  66.384  1.00  0.00    -0.308 A  
HETATM   37  C   UNL     1      -8.156  17.924  66.549  1.00  0.00    -0.303 A  
HETATM   38  C   UNL     1      -9.016  18.849  65.898  1.00  0.00     0.163 A  
HETATM   39  C   UNL     1     -10.216  18.798  66.569  1.00  0.00    -0.413 A  
HETATM   40  O   UNL     1     -10.154  17.909  67.596  1.00  0.00    -0.317 OA 
HETATM   41  C   UNL     1      -8.896  17.380  67.594  1.00  0.00    -0.225 A  
HETATM   42  C   UNL     1      -8.403  16.447  68.513  1.00  0.00    -0.202 A  
ENDBRANCH  31  34
ENDBRANCH  17  20
ENDBRANCH  12  16
ENDBRANCH  11  12
ENDBRANCH   7  11
ENDBRANCH   2   5
TORSDOF 6
ENDMDL
MODEL       78
REMARK 921   NORMALIZED FREE ENERGY PREDICTED BY IDOCK:    3.34 KCAL/MOL
REMARK 922        TOTAL FREE ENERGY PREDICTED BY IDOCK:    3.89 KCAL/MOL
REMARK 923 INTER-LIGAND FREE ENERGY PREDICTED BY IDOCK:    0.34 KCAL/MOL
REMARK 924 INTRA-LIGAND FREE ENERGY PREDICTED BY IDOCK:    3.56 KCAL/MOL
REMARK 927      BINDING AFFINITY PREDICTED BY RF-SCORE:    0.00 PKD
ROOT
HETATM    1  C   UNL     1      -8.348  15.623  66.172  1.00  0.00     0.134 C  
HETATM    2  S   UNL     1      -7.752  16.893  67.262  1.00  0.00    -0.181 S  
HETATM    3  O   UNL     1      -6.599  16.379  67.971  1.00  0.00    -0.125 OA 
HETATM    4  O   UNL     1      -7.676  18.130  66.508  1.00  0.00    -0.225 OA 
ENDROOT
BRANCH   2   5
HETATM    5  C   UNL     1      -9.033  17.073  68.481  1.00  0.00    -0.263 A  
HETATM    6  C   UNL     1      -9.368  15.952  69.246  1.00  0.00    -0.259 A  
HETATM    7  C   UNL     1     -10.248  16.058  70.325  1.00  0.00     0.099 A  
HETATM    8  C   UNL     1     -10.842  17.309  70.568  1.00  0.00     0.930 A  
HETATM    9  C   UNL     1     -10.527  18.426  69.783  1.00  0.00     0.948 A  
HETATM   10  C   UNL     1      -9.604  18.316  68.743  1.00  0.00    -0.317 A  
BRANCH   7  11
HETATM   11  C   UNL     1     -10.573  14.906  71.260  1.00  0.00     0.614 C  
BRANCH  11  12
HETATM   12  CA  UNL     1     -11.811  14.024  70.990  1.00  0.00    -0.120 C  
HETATM   13  C   UNL     1     -13.044  14.898  70.686  1.00  0.00    -0.315 C  
HETATM   14  OXT UNL     1     -13.237  16.019  71.128  1.00  0.00    -0.390 OA 
HETATM   15  O   UNL     1     -13.957  14.283  69.898  1.00  0.00     1.765 OA 
BRANCH  12  16
HETATM   16  N   UNL     1     -11.583  12.952  69.977  1.00  0.00    -0.525 N  
HETATM   17  C   UNL     1     -10.448  12.871  69.192  1.00  0.00     0.122 C  
HETATM   18  H   UNL     1     -12.304  12.240  69.857  1.00  0.00     0.000 HD 
HETATM   19  O   UNL     1      -9.559  13.709  69.292  1.00  0.00     0.272 OA 
BRANCH  17  20
HETATM   20  C   UNL     1     -10.261  11.680  68.287  1.00  0.00    -0.206 A  
HETATM   21  C   UNL     1      -9.442  10.611  68.713  1.00  0.00    -0.183 A  
HETATM   22 CL   UNL     1      -8.239  10.839  69.951  1.00  0.00     0.280 Cl 
HETATM   23  C   UNL     1      -9.506   9.342  68.084  1.00  0.00    -0.150 A  
HETATM   24  C   UNL     1     -10.206   9.191  66.870  1.00  0.00    -0.336 A  
HETATM   25  C   UNL     1     -10.954  10.278  66.399  1.00  0.00     0.077 A  
HETATM   26  C   UNL     1     -10.193   7.872  66.092  1.00  0.00     0.412 C  
HETATM   27  C   UNL     1     -11.025  11.486  67.122  1.00  0.00    -0.286 A  
HETATM   28  N   UNL     1      -9.445   6.803  66.775  1.00  0.00    -0.158 N  
HETATM   29 CL   UNL     1     -12.154  12.654  66.522  1.00  0.00    -0.392 Cl 
HETATM   30  C   UNL     1      -9.589   6.843  68.222  1.00  0.00    -0.128 C  
HETATM   31  C   UNL     1      -8.347   6.231  66.118  1.00  0.00    -0.130 C  
HETATM   32  C   UNL     1      -8.891   8.108  68.726  1.00  0.00    -0.138 C  
HETATM   33  O   UNL     1      -8.022   6.576  64.981  1.00  0.00    -0.110 OA 
BRANCH  31  34
HETATM   34  C   UNL     1      -7.492   5.181  66.762  1.00  0.00    -0.087 A  
HETATM   35  C   UNL     1      -6.168   5.058  66.296  1.00  0.00    -0.035 A  
HETATM   36  C   UNL     1      -5.314   4.032  66.738  1.00  0.00    -0.013 A  
HETATM   37  C   UNL     1      -5.808   3.105  67.668  1.00  0.00    -0.023 A  
HETATM   38  C   UNL     1      -5.297   1.948  68.315  1.00  0.00    -0.013 A  
HETATM   39  C   UNL     1      -6.311   1.475  69.115  1.00  0.00    -0.025 A  
HETATM   40  O   UNL     1      -7.417   2.258  69.003  1.00  0.00    -0.044 OA 
HETATM   41  C   UNL     1      -7.118   3.248  68.113  1.00  0.00    -0.050 A  
HETATM   42  C   UNL     1      -7.996   4.251  67.686  1.00  0.00    -0.091 A  
ENDBRANCH  31  34
ENDBRANCH  17  20
ENDBRANCH  12  16
ENDBRANCH  11  12
ENDBRANCH   7  11
ENDBRANCH   2   5
TORSDOF 6
ENDMDL
MODEL       79
REMARK 921   NORMALIZED FREE ENERGY PREDICTED BY IDOCK:    3.59 KCAL/MOL
REMARK 922        TOTAL FREE ENERGY PREDICTED BY IDOCK:    4.22 KCAL/MOL
REMARK 923 INTER-LIGAND FREE ENERGY PREDICTED BY IDOCK:    4.46 KCAL/MOL
REMARK 924 INTRA-LIGAND FREE ENERGY PREDICTED BY IDOCK:   -0.24 KCAL/MOL
REMARK 927      BINDING AFFINITY PREDICTED BY RF-SCORE:    0.00 PKD
ROOT
HETATM    1  C   UNL     1      -9.765   5.204  72.539  1.00  0.00    -0.151 C  
HETATM    2  S   UNL     1      -8.816   4.311  71.333  1.00  0.00    -0.116 S  
HETATM    3  O   UNL     1      -7.520   4.944  71.214  1.00  0.00    -0.072 OA 
HETATM    4  O   UNL     1      -8.932   2.896  71.633  1.00  0.00    -0.077 OA 
ENDROOT
BRANCH   2   5
HETATM    5  C   UNL     1      -9.650   4.613  69.793  1.00  0.00    -0.188 A  
HETATM    6  C   UNL     1      -9.406   3.733  68.735  1.00  0.00    -0.230 A  
HETATM    7  C   UNL     1     -10.143   3.814  67.551  1.00  0.00     0.362 A  
HETATM    8  C   UNL     1     -11.082   4.853  67.431  1.00  0.00     1.316 A  
HETATM    9  C   UNL     1     -11.306   5.753  68.482  1.00  0.00     0.429 A  
HETATM   10  C   UNL     1     -10.601   5.625  69.678  1.00  0.00    -0.401 A  
BRANCH   7  11
HETATM   11  C   UNL     1     -10.004   2.825  66.407  1.00  0.00     0.852 C  
BRANCH  11  12
HETATM   12  CA  UNL     1      -9.592   3.327  65.005  1.00  0.00    -0.125 C  
HETATM   13  C   UNL     1     -10.645   2.923  63.954  1.00  0.00    -0.111 C  
HETATM   14  OXT UNL     1     -11.350   1.928  64.011  1.00  0.00     0.231 OA 
HETATM   15  O   UNL     1     -10.696   3.764  62.895  1.00  0.00    -0.210 OA 
BRANCH  12  16
HETATM   16  N   UNL     1      -9.237   4.776  64.959  1.00  0.00    -0.198 N  
HETATM   17  C   UNL     1      -8.092   5.301  65.528  1.00  0.00    -0.119 C  
HETATM   18  H   UNL     1      -9.875   5.413  64.483  1.00  0.00     0.000 HD 
HETATM   19  O   UNL     1      -7.301   4.576  66.121  1.00  0.00    -0.075 OA 
BRANCH  17  20
HETATM   20  C   UNL     1      -7.767   6.758  65.319  1.00  0.00    -0.106 A  
HETATM   21  C   UNL     1      -7.548   7.585  66.444  1.00  0.00    -0.088 A  
HETATM   22 CL   UNL     1      -8.159   7.145  68.014  1.00  0.00    -0.118 Cl 
HETATM   23  C   UNL     1      -6.907   8.843  66.317  1.00  0.00    -0.074 A  
HETATM   24  C   UNL     1      -6.696   9.401  65.039  1.00  0.00    -0.084 A  
HETATM   25  C   UNL     1      -6.991   8.614  63.918  1.00  0.00    -0.087 A  
HETATM   26  C   UNL     1      -6.126  10.810  64.861  1.00  0.00     0.089 C  
HETATM   27  C   UNL     1      -7.467   7.294  64.054  1.00  0.00    -0.100 A  
HETATM   28  N   UNL     1      -5.776  11.460  66.135  1.00  0.00    -0.093 N  
HETATM   29 CL   UNL     1      -7.581   6.382  62.586  1.00  0.00    -0.070 Cl 
HETATM   30  C   UNL     1      -5.242  10.532  67.119  1.00  0.00    -0.041 C  
HETATM   31  C   UNL     1      -6.409  12.665  66.467  1.00  0.00     1.404 C  
HETATM   32  C   UNL     1      -6.372   9.586  67.531  1.00  0.00    -0.061 C  
HETATM   33  O   UNL     1      -7.216  13.203  65.706  1.00  0.00     3.061 OA 
BRANCH  31  34
HETATM   34  C   UNL     1      -6.160  13.365  67.770  1.00  0.00    -0.152 A  
HETATM   35  C   UNL     1      -6.436  12.642  68.948  1.00  0.00    -0.091 A  
HETATM   36  C   UNL     1      -6.356  13.234  70.221  1.00  0.00     0.075 A  
HETATM   37  C   UNL     1      -5.995  14.587  70.308  1.00  0.00    -0.158 A  
HETATM   38  C   UNL     1      -5.838  15.528  71.361  1.00  0.00     0.488 A  
HETATM   39  C   UNL     1      -5.473  16.714  70.767  1.00  0.00    -0.074 A  
HETATM   40  O   UNL     1      -5.399  16.571  69.416  1.00  0.00    -0.130 OA 
HETATM   41  C   UNL     1      -5.726  15.277  69.131  1.00  0.00    -0.099 A  
HETATM   42  C   UNL     1      -5.806  14.721  67.849  1.00  0.00    -0.146 A  
ENDBRANCH  31  34
ENDBRANCH  17  20
ENDBRANCH  12  16
ENDBRANCH  11  12
ENDBRANCH   7  11
ENDBRANCH   2   5
TORSDOF 6
ENDMDL
MODEL       80
REMARK 921   NORMALIZED FREE ENERGY PREDICTED BY IDOCK:    4.33 KCAL/MOL
REMARK 922        TOTAL FREE ENERGY PREDICTED BY IDOCK:    5.22 KCAL/MOL
REMARK 923 INTER-LIGAND FREE ENERGY PREDICTED BY IDOCK:    2.29 KCAL/MOL
REMARK 924 INTRA-LIGAND FREE ENERGY PREDICTED BY IDOCK:    2.93 KCAL/MOL
REMARK 927      BINDING AFFINITY PREDICTED BY RF-SCORE:    0.00 PKD
ROOT
HETATM    1  C   UNL     1      -6.032  15.668  65.671  1.00  0.00     6.526 C  
HETATM    2  S   UNL     1      -6.739  16.054  67.254  1.00  0.00    -0.172 S  
HETATM    3  O   UNL     1      -6.320  15.041  68.199  1.00  0.00    -0.110 OA 
HETATM    4  O   UNL     1      -6.506  17.462  67.515  1.00  0.00    -0.134 OA 
ENDROOT
BRANCH   2   5
HETATM    5  C   UNL     1      -8.487  15.822  67.032  1.00  0.00    -0.220 A  
HETATM    6  C   UNL     1      -9.268  15.621  68.174  1.00  0.00    -0.185 A  
HETATM    7  C   UNL     1     -10.662  15.591  68.092  1.00  0.00    -0.282 A  
HETATM    8  C   UNL     1     -11.248  15.691  66.817  1.00  0.00    -0.083 A  
HETATM    9  C   UNL     1     -10.462  15.863  65.670  1.00  0.00    -0.411 A  
HETATM   10  C   UNL     1      -9.074  15.947  65.776  1.00  0.00    -0.188 A  
BRANCH   7  11
HETATM   11  C   UNL     1     -11.572  15.484  69.303  1.00  0.00    -0.369 C  
BRANCH  11  12
HETATM   12  CA  UNL     1     -11.425  14.290  70.271  1.00  0.00    -0.164 C  
HETATM   13  C   UNL     1     -12.802  13.665  70.575  1.00  0.00    -0.098 C  
HETATM   14  OXT UNL     1     -13.862  14.270  70.584  1.00  0.00     0.082 OA 
HETATM   15  O   UNL     1     -12.736  12.350  70.891  1.00  0.00    -0.287 OA 
BRANCH  12  16
HETATM   16  N   UNL     1     -10.402  13.288  69.848  1.00  0.00     0.458 N  
HETATM   17  C   UNL     1     -10.674  12.226  69.006  1.00  0.00    -0.107 C  
HETATM   18  H   UNL     1      -9.451  13.392  70.200  1.00  0.00     0.000 HD 
HETATM   19  O   UNL     1     -11.805  12.054  68.566  1.00  0.00    -0.318 OA 
BRANCH  17  20
HETATM   20  C   UNL     1      -9.544  11.344  68.543  1.00  0.00    -0.190 A  
HETATM   21  C   UNL     1      -9.840  10.150  67.848  1.00  0.00    -0.151 A  
HETATM   22 CL   UNL     1     -11.405   9.398  67.981  1.00  0.00     0.172 Cl 
HETATM   23  C   UNL     1      -8.848   9.473  67.095  1.00  0.00    -0.141 A  
HETATM   24  C   UNL     1      -7.493   9.841  67.222  1.00  0.00    -0.088 A  
HETATM   25  C   UNL     1      -7.186  10.979  67.981  1.00  0.00    -0.086 A  
HETATM   26  C   UNL     1      -6.377   9.056  66.528  1.00  0.00    -0.066 C  
HETATM   27  C   UNL     1      -8.199  11.750  68.587  1.00  0.00    -0.091 A  
HETATM   28  N   UNL     1      -6.878   7.953  65.690  1.00  0.00    -0.052 N  
HETATM   29 CL   UNL     1      -7.679  13.237  69.308  1.00  0.00     0.296 Cl 
HETATM   30  C   UNL     1      -8.128   8.273  65.019  1.00  0.00    -0.148 C  
HETATM   31  C   UNL     1      -6.466   6.648  65.987  1.00  0.00    -0.043 C  
HETATM   32  C   UNL     1      -9.215   8.394  66.088  1.00  0.00    -0.263 C  
HETATM   33  O   UNL     1      -5.675   6.411  66.902  1.00  0.00    -0.012 OA 
BRANCH  31  34
HETATM   34  C   UNL     1      -6.974   5.459  65.226  1.00  0.00    -0.064 A  
HETATM   35  C   UNL     1      -6.024   4.703  64.510  1.00  0.00    -0.018 A  
HETATM   36  C   UNL     1      -6.398   3.644  63.665  1.00  0.00    -0.026 A  
HETATM   37  C   UNL     1      -7.762   3.342  63.535  1.00  0.00    -0.068 A  
HETATM   38  C   UNL     1      -8.526   2.406  62.787  1.00  0.00    -0.074 A  
HETATM   39  C   UNL     1      -9.843   2.643  63.104  1.00  0.00    -0.102 A  
HETATM   40  O   UNL     1      -9.946   3.666  63.994  1.00  0.00    -0.161 OA 
HETATM   41  C   UNL     1      -8.680   4.102  64.252  1.00  0.00    -0.127 A  
HETATM   42  C   UNL     1      -8.341   5.169  65.093  1.00  0.00    -0.141 A  
ENDBRANCH  31  34
ENDBRANCH  17  20
ENDBRANCH  12  16
ENDBRANCH  11  12
ENDBRANCH   7  11
ENDBRANCH   2   5
TORSDOF 6
ENDMDL
MODEL       81
REMARK 921   NORMALIZED FREE ENERGY PREDICTED BY IDOCK:    6.70 KCAL/MOL
REMARK 922        TOTAL FREE ENERGY PREDICTED BY IDOCK:    8.42 KCAL/MOL
REMARK 923 INTER-LIGAND FREE ENERGY PREDICTED BY IDOCK:    5.35 KCAL/MOL
REMARK 924 INTRA-LIGAND FREE ENERGY PREDICTED BY IDOCK:    3.08 KCAL/MOL
REMARK 927      BINDING AFFINITY PREDICTED BY RF-SCORE:    0.00 PKD
ROOT
HETATM    1  C   UNL     1     -12.138  12.499  65.611  1.00  0.00    -0.400 C  
HETATM    2  S   UNL     1     -13.259  13.534  66.522  1.00  0.00     2.480 S  
HETATM    3  O   UNL     1     -13.930  14.411  65.585  1.00  0.00     0.408 OA 
HETATM    4  O   UNL     1     -14.014  12.687  67.426  1.00  0.00     7.750 OA 
ENDROOT
BRANCH   2   5
HETATM    5  C   UNL     1     -12.207  14.579  67.501  1.00  0.00    -0.121 A  
HETATM    6  C   UNL     1     -11.236  15.334  66.837  1.00  0.00    -0.256 A  
HETATM    7  C   UNL     1     -10.483  16.292  67.518  1.00  0.00    -0.302 A  
HETATM    8  C   UNL     1     -10.680  16.420  68.904  1.00  0.00    -0.319 A  
HETATM    9  C   UNL     1     -11.635  15.643  69.575  1.00  0.00    -0.366 A  
HETATM   10  C   UNL     1     -12.417  14.729  68.870  1.00  0.00     0.090 A  
BRANCH   7  11
HETATM   11  C   UNL     1      -9.489  17.218  66.839  1.00  0.00    -0.264 C  
BRANCH  11  12
HETATM   12  CA  UNL     1      -8.262  16.626  66.111  1.00  0.00    -0.260 C  
HETATM   13  C   UNL     1      -7.240  17.734  65.783  1.00  0.00    -0.119 C  
HETATM   14  OXT UNL     1      -7.516  18.902  65.563  1.00  0.00    -0.484 OA 
HETATM   15  O   UNL     1      -5.966  17.282  65.706  1.00  0.00    -0.125 OA 
BRANCH  12  16
HETATM   16  N   UNL     1      -7.657  15.449  66.801  1.00  0.00    -0.240 N  
HETATM   17  C   UNL     1      -8.290  14.226  66.925  1.00  0.00    -0.054 C  
HETATM   18  H   UNL     1      -6.725  15.553  67.203  1.00  0.00     0.000 HD 
HETATM   19  O   UNL     1      -9.415  14.057  66.468  1.00  0.00    -0.277 OA 
BRANCH  17  20
HETATM   20  C   UNL     1      -7.542  13.067  67.532  1.00  0.00    -0.166 A  
HETATM   21  C   UNL     1      -8.216  11.843  67.738  1.00  0.00    -0.148 A  
HETATM   22 CL   UNL     1      -9.954  11.779  67.832  1.00  0.00    -0.179 Cl 
HETATM   23  C   UNL     1      -7.501  10.641  67.967  1.00  0.00    -0.090 A  
HETATM   24  C   UNL     1      -6.118  10.684  68.238  1.00  0.00    -0.046 A  
HETATM   25  C   UNL     1      -5.459  11.915  68.117  1.00  0.00    -0.045 A  
HETATM   26  C   UNL     1      -5.332   9.426  68.617  1.00  0.00    -0.037 C  
HETATM   27  C   UNL     1      -6.148  13.078  67.717  1.00  0.00    -0.151 A  
HETATM   28  N   UNL     1      -6.152   8.202  68.600  1.00  0.00    -0.043 N  
HETATM   29 CL   UNL     1      -5.161  14.467  67.409  1.00  0.00     0.259 Cl 
HETATM   30  C   UNL     1      -7.146   8.199  67.538  1.00  0.00    -0.083 C  
HETATM   31  C   UNL     1      -6.277   7.465  69.784  1.00  0.00    -0.031 C  
HETATM   32  C   UNL     1      -8.177   9.283  67.860  1.00  0.00    -0.115 C  
HETATM   33  O   UNL     1      -5.693   7.797  70.818  1.00  0.00    -0.030 OA 
BRANCH  31  34
HETATM   34  C   UNL     1      -7.140   6.242  69.874  1.00  0.00    -0.072 A  
HETATM   35  C   UNL     1      -8.092   6.204  70.913  1.00  0.00    -0.121 A  
HETATM   36  C   UNL     1      -8.870   5.061  71.169  1.00  0.00    -0.149 A  
HETATM   37  C   UNL     1      -8.681   3.929  70.363  1.00  0.00    -0.126 A  
HETATM   38  C   UNL     1      -9.223   2.616  70.316  1.00  0.00    -0.202 A  
HETATM   39  C   UNL     1      -8.592   1.975  69.275  1.00  0.00    -0.060 A  
HETATM   40  O   UNL     1      -7.692   2.802  68.678  1.00  0.00    -0.054 OA 
HETATM   41  C   UNL     1      -7.736   3.992  69.344  1.00  0.00    -0.053 A  
HETATM   42  C   UNL     1      -6.939   5.109  69.070  1.00  0.00    -0.056 A  
ENDBRANCH  31  34
ENDBRANCH  17  20
ENDBRANCH  12  16
ENDBRANCH  11  12
ENDBRANCH   7  11
ENDBRANCH   2   5
TORSDOF 6
ENDMDL
MODEL       82
REMARK 921   NORMALIZED FREE ENERGY PREDICTED BY IDOCK:    9.92 KCAL/MOL
REMARK 922        TOTAL FREE ENERGY PREDICTED BY IDOCK:   12.78 KCAL/MOL
REMARK 923 INTER-LIGAND FREE ENERGY PREDICTED BY IDOCK:   11.55 KCAL/MOL
REMARK 924 INTRA-LIGAND FREE ENERGY PREDICTED BY IDOCK:    1.24 KCAL/MOL
REMARK 927      BINDING AFFINITY PREDICTED BY RF-SCORE:    0.00 PKD
ROOT
HETATM    1  C   UNL     1      -5.343  16.579  69.482  1.00  0.00    -0.143 C  
HETATM    2  S   UNL     1      -6.367  16.711  70.927  1.00  0.00     1.692 S  
HETATM    3  O   UNL     1      -5.917  15.731  71.894  1.00  0.00     0.867 OA 
HETATM    4  O   UNL     1      -6.467  18.116  71.277  1.00  0.00     1.568 OA 
ENDROOT
BRANCH   2   5
HETATM    5  C   UNL     1      -7.971  16.166  70.390  1.00  0.00     1.943 A  
HETATM    6  C   UNL     1      -8.142  15.880  69.033  1.00  0.00    -0.229 A  
HETATM    7  C   UNL     1      -9.323  15.298  68.566  1.00  0.00    -0.200 A  
HETATM    8  C   UNL     1     -10.358  15.079  69.492  1.00  0.00    -0.230 A  
HETATM    9  C   UNL     1     -10.196  15.392  70.848  1.00  0.00     0.493 A  
HETATM   10  C   UNL     1      -8.990  15.922  71.307  1.00  0.00     4.345 A  
BRANCH   7  11
HETATM   11  C   UNL     1      -9.534  14.865  67.126  1.00  0.00    -0.231 C  
BRANCH  11  12
HETATM   12  CA  UNL     1      -8.383  14.185  66.352  1.00  0.00     0.634 C  
HETATM   13  C   UNL     1      -7.082  15.001  66.488  1.00  0.00     1.648 C  
HETATM   14  OXT UNL     1      -7.023  16.211  66.636  1.00  0.00    -0.211 OA 
HETATM   15  O   UNL     1      -5.962  14.248  66.378  1.00  0.00     2.394 OA 
BRANCH  12  16
HETATM   16  N   UNL     1      -8.209  12.738  66.673  1.00  0.00    -0.406 N  
HETATM   17  C   UNL     1      -8.786  11.717  65.940  1.00  0.00     0.065 C  
HETATM   18  H   UNL     1      -7.632  12.488  67.476  1.00  0.00     0.000 HD 
HETATM   19  O   UNL     1      -9.495  11.968  64.973  1.00  0.00    -0.111 OA 
BRANCH  17  20
HETATM   20  C   UNL     1      -8.447  10.287  66.274  1.00  0.00    -0.138 A  
HETATM   21  C   UNL     1      -8.945   9.721  67.469  1.00  0.00    -0.131 A  
HETATM   22 CL   UNL     1      -9.452  10.727  68.797  1.00  0.00    -0.178 Cl 
HETATM   23  C   UNL     1      -8.961   8.317  67.665  1.00  0.00    -0.140 A  
HETATM   24  C   UNL     1      -8.259   7.473  66.779  1.00  0.00    -0.124 A  
HETATM   25  C   UNL     1      -7.691   8.045  65.633  1.00  0.00    -0.094 A  
HETATM   26  C   UNL     1      -8.143   5.967  67.026  1.00  0.00    -0.102 C  
HETATM   27  C   UNL     1      -7.829   9.421  65.356  1.00  0.00    -0.104 A  
HETATM   28  N   UNL     1      -8.881   5.514  68.217  1.00  0.00    -0.105 N  
HETATM   29 CL   UNL     1      -7.257   9.934  63.804  1.00  0.00    -0.122 Cl 
HETATM   30  C   UNL     1     -10.128   6.235  68.420  1.00  0.00    -0.157 C  
HETATM   31  C   UNL     1      -8.167   4.889  69.247  1.00  0.00    -0.081 C  
HETATM   32  C   UNL     1      -9.780   7.681  68.777  1.00  0.00    -0.153 C  
HETATM   33  O   UNL     1      -6.956   4.681  69.161  1.00  0.00    -0.049 OA 
BRANCH  31  34
HETATM   34  C   UNL     1      -8.826   4.452  70.522  1.00  0.00    -0.136 A  
HETATM   35  C   UNL     1      -8.300   3.308  71.155  1.00  0.00    -0.088 A  
HETATM   36  C   UNL     1      -8.910   2.735  72.285  1.00  0.00    -0.108 A  
HETATM   37  C   UNL     1     -10.079   3.327  72.786  1.00  0.00    -0.230 A  
HETATM   38  C   UNL     1     -10.982   3.048  73.848  1.00  0.00    -0.281 A  
HETATM   39  C   UNL     1     -11.952   4.022  73.795  1.00  0.00     0.638 A  
HETATM   40  O   UNL     1     -11.714   4.882  72.768  1.00  0.00    -0.148 OA 
HETATM   41  C   UNL     1     -10.577   4.456  72.144  1.00  0.00    -0.031 A  
HETATM   42  C   UNL     1     -10.001   5.044  71.012  1.00  0.00    -0.281 A  
ENDBRANCH  31  34
ENDBRANCH  17  20
ENDBRANCH  12  16
ENDBRANCH  11  12
ENDBRANCH   7  11
ENDBRANCH   2   5
TORSDOF 6
ENDMDL
MODEL       83
REMARK 921   NORMALIZED FREE ENERGY PREDICTED BY IDOCK:   10.06 KCAL/MOL
REMARK 922        TOTAL FREE ENERGY PREDICTED BY IDOCK:   12.96 KCAL/MOL
REMARK 923 INTER-LIGAND FREE ENERGY PREDICTED BY IDOCK:    8.36 KCAL/MOL
REMARK 924 INTRA-LIGAND FREE ENERGY PREDICTED BY IDOCK:    4.60 KCAL/MOL
REMARK 927      BINDING AFFINITY PREDICTED BY RF-SCORE:    0.00 PKD
ROOT
HETATM    1  C   UNL     1      -5.891  16.479  68.879  1.00  0.00    -0.137 C  
HETATM    2  S   UNL     1      -6.754  16.430  67.327  1.00  0.00    -0.200 S  
HETATM    3  O   UNL     1      -6.212  17.467  66.473  1.00  0.00    -0.180 OA 
HETATM    4  O   UNL     1      -6.802  15.048  66.887  1.00  0.00    -0.100 OA 
ENDROOT
BRANCH   2   5
HETATM    5  C   UNL     1      -8.411  16.938  67.720  1.00  0.00    -0.194 A  
HETATM    6  C   UNL     1      -9.451  16.429  66.937  1.00  0.00    -0.249 A  
HETATM    7  C   UNL     1     -10.785  16.655  67.284  1.00  0.00    -0.227 A  
HETATM    8  C   UNL     1     -11.046  17.472  68.398  1.00  0.00     0.103 A  
HETATM    9  C   UNL     1     -10.001  18.005  69.165  1.00  0.00    -0.201 A  
HETATM   10  C   UNL     1      -8.675  17.724  68.838  1.00  0.00    -0.118 A  
BRANCH   7  11
HETATM   11  C   UNL     1     -11.961  16.045  66.540  1.00  0.00     1.224 C  
BRANCH  11  12
HETATM   12  CA  UNL     1     -11.721  15.276  65.223  1.00  0.00    -0.058 C  
HETATM   13  C   UNL     1     -11.592  16.256  64.039  1.00  0.00     0.425 C  
HETATM   14  OXT UNL     1     -12.140  17.344  63.964  1.00  0.00     1.676 OA 
HETATM   15  O   UNL     1     -10.833  15.776  63.026  1.00  0.00     2.815 OA 
BRANCH  12  16
HETATM   16  N   UNL     1     -10.607  14.285  65.293  1.00  0.00    -0.356 N  
HETATM   17  C   UNL     1     -10.625  13.172  66.113  1.00  0.00    -0.279 C  
HETATM   18  H   UNL     1      -9.788  14.438  64.705  1.00  0.00     0.000 HD 
HETATM   19  O   UNL     1     -11.582  12.952  66.846  1.00  0.00    -0.329 OA 
BRANCH  17  20
HETATM   20  C   UNL     1      -9.504  12.169  66.018  1.00  0.00    -0.215 A  
HETATM   21  C   UNL     1      -9.814  10.798  65.876  1.00  0.00    -0.239 A  
HETATM   22 CL   UNL     1     -11.372  10.177  66.344  1.00  0.00     0.552 Cl 
HETATM   23  C   UNL     1      -8.841   9.866  65.436  1.00  0.00    -0.196 A  
HETATM   24  C   UNL     1      -7.484  10.244  65.368  1.00  0.00    -0.145 A  
HETATM   25  C   UNL     1      -7.160  11.589  65.591  1.00  0.00     0.793 A  
HETATM   26  C   UNL     1      -6.384   9.236  65.023  1.00  0.00    -0.067 C  
HETATM   27  C   UNL     1      -8.159  12.548  65.858  1.00  0.00     1.324 A  
HETATM   28  N   UNL     1      -6.904   7.892  64.717  1.00  0.00    -0.054 N  
HETATM   29 CL   UNL     1      -7.626  14.195  65.900  1.00  0.00     3.513 Cl 
HETATM   30  C   UNL     1      -8.173   7.921  64.007  1.00  0.00    -0.022 C  
HETATM   31  C   UNL     1      -6.479   6.816  65.508  1.00  0.00    -0.050 C  
HETATM   32  C   UNL     1      -9.231   8.474  64.964  1.00  0.00     0.220 C  
HETATM   33  O   UNL     1      -5.663   6.965  66.418  1.00  0.00    -0.027 OA 
BRANCH  31  34
HETATM   34  C   UNL     1      -7.003   5.425  65.308  1.00  0.00    -0.064 A  
HETATM   35  C   UNL     1      -6.942   4.899  64.002  1.00  0.00    -0.049 A  
HETATM   36  C   UNL     1      -7.512   3.657  63.672  1.00  0.00    -0.059 A  
HETATM   37  C   UNL     1      -8.162   2.930  64.680  1.00  0.00    -0.086 A  
HETATM   38  C   UNL     1      -8.867   1.698  64.748  1.00  0.00    -0.108 A  
HETATM   39  C   UNL     1      -9.279   1.561  66.053  1.00  0.00     0.026 A  
HETATM   40  O   UNL     1      -8.881   2.628  66.797  1.00  0.00    -0.117 OA 
HETATM   41  C   UNL     1      -8.207   3.470  65.961  1.00  0.00    -0.097 A  
HETATM   42  C   UNL     1      -7.660   4.707  66.320  1.00  0.00    -0.090 A  
ENDBRANCH  31  34
ENDBRANCH  17  20
ENDBRANCH  12  16
ENDBRANCH  11  12
ENDBRANCH   7  11
ENDBRANCH   2   5
TORSDOF 6
ENDMDL
MODEL       84
REMARK 921   NORMALIZED FREE ENERGY PREDICTED BY IDOCK:   11.35 KCAL/MOL
REMARK 922        TOTAL FREE ENERGY PREDICTED BY IDOCK:   14.71 KCAL/MOL
REMARK 923 INTER-LIGAND FREE ENERGY PREDICTED BY IDOCK:   10.99 KCAL/MOL
REMARK 924 INTRA-LIGAND FREE ENERGY PREDICTED BY IDOCK:    3.72 KCAL/MOL
REMARK 927      BINDING AFFINITY PREDICTED BY RF-SCORE:    0.00 PKD
ROOT
HETATM    1  C   UNL     1      -8.044  11.986  70.934  1.00  0.00     7.397 C  
HETATM    2  S   UNL     1      -6.911  13.228  71.506  1.00  0.00     4.083 S  
HETATM    3  O   UNL     1      -7.551  13.972  72.570  1.00  0.00     4.092 OA 
HETATM    4  O   UNL     1      -5.620  12.596  71.707  1.00  0.00    -0.394 OA 
ENDROOT
BRANCH   2   5
HETATM    5  C   UNL     1      -6.760  14.358  70.143  1.00  0.00    -0.053 A  
HETATM    6  C   UNL     1      -7.729  15.357  70.013  1.00  0.00     0.200 A  
HETATM    7  C   UNL     1      -7.589  16.373  69.066  1.00  0.00    -0.232 A  
HETATM    8  C   UNL     1      -6.483  16.316  68.199  1.00  0.00    -0.133 A  
HETATM    9  C   UNL     1      -5.527  15.298  68.311  1.00  0.00    -0.118 A  
HETATM   10  C   UNL     1      -5.652  14.322  69.299  1.00  0.00    -0.082 A  
BRANCH   7  11
HETATM   11  C   UNL     1      -8.547  17.545  68.943  1.00  0.00    -0.133 C  
BRANCH  11  12
HETATM   12  CA  UNL     1      -9.965  17.321  68.374  1.00  0.00    -0.322 C  
HETATM   13  C   UNL     1     -10.333  18.441  67.379  1.00  0.00    -0.391 C  
HETATM   14  OXT UNL     1      -9.921  19.589  67.429  1.00  0.00    -0.342 OA 
HETATM   15  O   UNL     1     -11.223  18.050  66.437  1.00  0.00     0.370 OA 
BRANCH  12  16
HETATM   16  N   UNL     1     -10.191  15.950  67.829  1.00  0.00    -0.255 N  
HETATM   17  C   UNL     1      -9.717  15.527  66.601  1.00  0.00    -0.247 C  
HETATM   18  H   UNL     1     -10.724  15.289  68.394  1.00  0.00     0.000 HD 
HETATM   19  O   UNL     1      -9.080  16.289  65.883  1.00  0.00    -0.395 OA 
BRANCH  17  20
HETATM   20  C   UNL     1      -9.894  14.086  66.199  1.00  0.00    -0.319 A  
HETATM   21  C   UNL     1      -9.374  13.068  67.029  1.00  0.00    -0.236 A  
HETATM   22 CL   UNL     1      -8.102  13.403  68.170  1.00  0.00    -0.146 Cl 
HETATM   23  C   UNL     1      -9.802  11.723  66.898  1.00  0.00    -0.221 A  
HETATM   24  C   UNL     1     -10.568  11.333  65.780  1.00  0.00    -0.306 A  
HETATM   25  C   UNL     1     -11.017  12.332  64.906  1.00  0.00    -0.344 A  
HETATM   26  C   UNL     1     -10.942   9.869  65.533  1.00  0.00     1.229 C  
HETATM   27  C   UNL     1     -10.731  13.692  65.140  1.00  0.00    -0.353 A  
HETATM   28  N   UNL     1     -10.479   8.963  66.598  1.00  0.00    -0.216 N  
HETATM   29 CL   UNL     1     -11.531  14.817  64.094  1.00  0.00    -0.114 Cl 
HETATM   30  C   UNL     1     -10.545   9.562  67.922  1.00  0.00    -0.244 C  
HETATM   31  C   UNL     1      -9.604   7.924  66.257  1.00  0.00    -0.130 C  
HETATM   32  C   UNL     1      -9.513  10.690  67.976  1.00  0.00    -0.164 C  
HETATM   33  O   UNL     1      -9.247   7.733  65.093  1.00  0.00     0.293 OA 
BRANCH  31  34
HETATM   34  C   UNL     1      -9.034   6.992  67.286  1.00  0.00    -0.119 A  
HETATM   35  C   UNL     1      -9.381   7.233  68.630  1.00  0.00    -0.138 A  
HETATM   36  C   UNL     1      -8.812   6.503  69.688  1.00  0.00    -0.138 A  
HETATM   37  C   UNL     1      -7.869   5.510  69.385  1.00  0.00    -0.087 A  
HETATM   38  C   UNL     1      -7.070   4.607  70.137  1.00  0.00    -0.049 A  
HETATM   39  C   UNL     1      -6.330   3.894  69.222  1.00  0.00    -0.029 A  
HETATM   40  O   UNL     1      -6.613   4.298  67.955  1.00  0.00    -0.041 OA 
HETATM   41  C   UNL     1      -7.544   5.291  68.050  1.00  0.00    -0.080 A  
HETATM   42  C   UNL     1      -8.084   6.006  66.975  1.00  0.00    -0.106 A  
ENDBRANCH  31  34
ENDBRANCH  17  20
ENDBRANCH  12  16
ENDBRANCH  11  12
ENDBRANCH   7  11
ENDBRANCH   2   5
TORSDOF 6
ENDMDL
MODEL       85
REMARK 921   NORMALIZED FREE ENERGY PREDICTED BY IDOCK:   11.60 KCAL/MOL
REMARK 922        TOTAL FREE ENERGY PREDICTED BY IDOCK:   15.05 KCAL/MOL
REMARK 923 INTER-LIGAND FREE ENERGY PREDICTED BY IDOCK:    5.62 KCAL/MOL
REMARK 924 INTRA-LIGAND FREE ENERGY PREDICTED BY IDOCK:    9.43 KCAL/MOL
REMARK 927      BINDING AFFINITY PREDICTED BY RF-SCORE:    0.00 PKD
ROOT
HETATM    1  C   UNL     1      -7.468  12.864  70.521  1.00  0.00     3.288 C  
HETATM    2  S   UNL     1      -8.616  11.843  69.631  1.00  0.00     1.889 S  
HETATM    3  O   UNL     1      -8.152  11.723  68.264  1.00  0.00    -0.140 OA 
HETATM    4  O   UNL     1      -8.882  10.665  70.436  1.00  0.00     0.703 OA 
ENDROOT
BRANCH   2   5
HETATM    5  C   UNL     1     -10.108  12.805  69.558  1.00  0.00     0.962 A  
HETATM    6  C   UNL     1     -10.033  14.083  68.997  1.00  0.00    -0.028 A  
HETATM    7  C   UNL     1     -11.188  14.832  68.762  1.00  0.00    -0.286 A  
HETATM    8  C   UNL     1     -12.418  14.290  69.176  1.00  0.00    -0.011 A  
HETATM    9  C   UNL     1     -12.489  13.020  69.763  1.00  0.00    -0.002 A  
HETATM   10  C   UNL     1     -11.332  12.262  69.941  1.00  0.00    -0.084 A  
BRANCH   7  11
HETATM   11  C   UNL     1     -11.188  16.179  68.061  1.00  0.00    -0.291 C  
BRANCH  11  12
HETATM   12  CA  UNL     1     -10.349  16.378  66.780  1.00  0.00    -0.293 C  
HETATM   13  C   UNL     1      -9.144  17.299  67.059  1.00  0.00    -0.236 C  
HETATM   14  OXT UNL     1      -9.118  18.190  67.893  1.00  0.00    -0.257 OA 
HETATM   15  O   UNL     1      -8.090  17.067  66.242  1.00  0.00    -0.276 OA 
BRANCH  12  16
HETATM   16  N   UNL     1      -9.973  15.105  66.097  1.00  0.00    -0.275 N  
HETATM   17  C   UNL     1     -10.819  14.017  65.986  1.00  0.00    -0.295 C  
HETATM   18  H   UNL     1      -9.040  15.033  65.690  1.00  0.00     0.000 HD 
HETATM   19  O   UNL     1     -11.945  14.052  66.469  1.00  0.00    -0.401 OA 
BRANCH  17  20
HETATM   20  C   UNL     1     -10.386  12.826  65.171  1.00  0.00    -0.314 A  
HETATM   21  C   UNL     1      -9.673  11.782  65.800  1.00  0.00    -0.237 A  
HETATM   22 CL   UNL     1      -8.818  12.050  67.293  1.00  0.00    -0.175 Cl 
HETATM   23  C   UNL     1      -9.549  10.507  65.192  1.00  0.00    -0.316 A  
HETATM   24  C   UNL     1      -9.924  10.329  63.844  1.00  0.00    -0.143 A  
HETATM   25  C   UNL     1     -10.558  11.394  63.189  1.00  0.00    -0.278 A  
HETATM   26  C   UNL     1      -9.688   9.006  63.111  1.00  0.00     2.077 C  
HETATM   27  C   UNL     1     -10.834  12.604  63.857  1.00  0.00    -0.429 A  
HETATM   28  N   UNL     1      -9.107   7.961  63.971  1.00  0.00     1.064 N  
HETATM   29 CL   UNL     1     -11.807  13.739  62.981  1.00  0.00     0.382 Cl 
HETATM   30  C   UNL     1      -9.605   8.008  65.337  1.00  0.00     0.749 C  
HETATM   31  C   UNL     1      -7.868   7.414  63.613  1.00  0.00    -0.108 C  
HETATM   32  C   UNL     1      -9.083   9.294  65.981  1.00  0.00    -0.235 C  
HETATM   33  O   UNL     1      -7.281   7.760  62.587  1.00  0.00    -0.083 OA 
BRANCH  31  34
HETATM   34  C   UNL     1      -7.174   6.391  64.462  1.00  0.00    -0.061 A  
HETATM   35  C   UNL     1      -7.179   5.061  63.995  1.00  0.00    -0.050 A  
HETATM   36  C   UNL     1      -6.668   4.000  64.763  1.00  0.00    -0.044 A  
HETATM   37  C   UNL     1      -6.142   4.285  66.032  1.00  0.00    -0.031 A  
HETATM   38  C   UNL     1      -5.581   3.522  67.091  1.00  0.00    -0.022 A  
HETATM   39  C   UNL     1      -5.269   4.418  68.088  1.00  0.00    -0.007 A  
HETATM   40  O   UNL     1      -5.606   5.683  67.719  1.00  0.00    -0.011 OA 
HETATM   41  C   UNL     1      -6.148   5.606  66.469  1.00  0.00    -0.030 A  
HETATM   42  C   UNL     1      -6.658   6.682  65.735  1.00  0.00    -0.047 A  
ENDBRANCH  31  34
ENDBRANCH  17  20
ENDBRANCH  12  16
ENDBRANCH  11  12
ENDBRANCH   7  11
ENDBRANCH   2   5
TORSDOF 6
ENDMDL
MODEL       86
REMARK 921   NORMALIZED FREE ENERGY PREDICTED BY IDOCK:   11.98 KCAL/MOL
REMARK 922        TOTAL FREE ENERGY PREDICTED BY IDOCK:   15.56 KCAL/MOL
REMARK 923 INTER-LIGAND FREE ENERGY PREDICTED BY IDOCK:    8.76 KCAL/MOL
REMARK 924 INTRA-LIGAND FREE ENERGY PREDICTED BY IDOCK:    6.81 KCAL/MOL
REMARK 927      BINDING AFFINITY PREDICTED BY RF-SCORE:    0.00 PKD
ROOT
HETATM    1  C   UNL     1      -9.909  15.838  68.612  1.00  0.00    -0.210 C  
HETATM    2  S   UNL     1     -10.445  16.850  67.254  1.00  0.00    -0.270 S  
HETATM    3  O   UNL     1      -9.665  16.495  66.087  1.00  0.00    -0.288 OA 
HETATM    4  O   UNL     1     -11.895  16.821  67.221  1.00  0.00     0.782 OA 
ENDROOT
BRANCH   2   5
HETATM    5  C   UNL     1      -9.941  18.496  67.696  1.00  0.00    -0.338 A  
HETATM    6  C   UNL     1      -8.655  18.666  68.217  1.00  0.00    -0.347 A  
HETATM    7  C   UNL     1      -8.134  19.943  68.437  1.00  0.00    -0.239 A  
HETATM    8  C   UNL     1      -8.971  21.046  68.189  1.00  0.00     0.524 A  
HETATM    9  C   UNL     1     -10.270  20.873  67.693  1.00  0.00     0.100 A  
HETATM   10  C   UNL     1     -10.755  19.593  67.427  1.00  0.00    -0.563 A  
BRANCH   7  11
HETATM   11  C   UNL     1      -6.711  20.202  68.900  1.00  0.00    -0.298 C  
BRANCH  11  12
HETATM   12  CA  UNL     1      -6.038  19.230  69.894  1.00  0.00    -0.258 C  
HETATM   13  C   UNL     1      -6.571  19.462  71.323  1.00  0.00     0.856 C  
HETATM   14  OXT UNL     1      -6.968  20.530  71.760  1.00  0.00    -0.161 OA 
HETATM   15  O   UNL     1      -6.516  18.356  72.101  1.00  0.00     2.205 OA 
BRANCH  12  16
HETATM   16  N   UNL     1      -6.087  17.799  69.471  1.00  0.00    -0.242 N  
HETATM   17  C   UNL     1      -6.545  17.382  68.235  1.00  0.00    -0.174 C  
HETATM   18  H   UNL     1      -5.764  17.091  70.129  1.00  0.00     0.000 HD 
HETATM   19  O   UNL     1      -6.953  18.196  67.414  1.00  0.00    -0.193 OA 
BRANCH  17  20
HETATM   20  C   UNL     1      -6.437  15.926  67.861  1.00  0.00    -0.163 A  
HETATM   21  C   UNL     1      -7.058  14.956  68.679  1.00  0.00    -0.111 A  
HETATM   22 CL   UNL     1      -7.458  15.302  70.338  1.00  0.00     0.397 Cl 
HETATM   23  C   UNL     1      -7.292  13.640  68.208  1.00  0.00    -0.119 A  
HETATM   24  C   UNL     1      -6.692  13.203  67.009  1.00  0.00     0.469 A  
HETATM   25  C   UNL     1      -6.002  14.146  66.234  1.00  0.00     4.958 A  
HETATM   26  C   UNL     1      -6.812  11.754  66.530  1.00  0.00     0.113 C  
HETATM   27  C   UNL     1      -5.922  15.498  66.626  1.00  0.00     1.518 A  
HETATM   28  N   UNL     1      -7.654  10.921  67.405  1.00  0.00    -0.097 N  
HETATM   29 CL   UNL     1      -5.222  16.575  65.464  1.00  0.00     2.333 Cl 
HETATM   30  C   UNL     1      -8.786  11.645  67.962  1.00  0.00    -0.157 C  
HETATM   31  C   UNL     1      -7.081   9.793  68.006  1.00  0.00    -0.079 C  
HETATM   32  C   UNL     1      -8.238  12.694  68.932  1.00  0.00     0.241 C  
HETATM   33  O   UNL     1      -5.912   9.468  67.790  1.00  0.00    -0.051 OA 
BRANCH  31  34
HETATM   34  C   UNL     1      -7.845   8.923  68.960  1.00  0.00    -0.091 A  
HETATM   35  C   UNL     1      -7.625   9.134  70.336  1.00  0.00    -0.118 A  
HETATM   36  C   UNL     1      -8.191   8.300  71.317  1.00  0.00    -0.147 A  
HETATM   37  C   UNL     1      -8.994   7.227  70.901  1.00  0.00    -0.150 A  
HETATM   38  C   UNL     1      -9.695   6.176  71.549  1.00  0.00    -0.182 A  
HETATM   39  C   UNL     1     -10.286   5.434  70.552  1.00  0.00    -0.256 A  
HETATM   40  O   UNL     1      -9.992   5.952  69.330  1.00  0.00    -0.157 OA 
HETATM   41  C   UNL     1      -9.195   7.041  69.537  1.00  0.00    -0.149 A  
HETATM   42  C   UNL     1      -8.639   7.845  68.536  1.00  0.00    -0.128 A  
ENDBRANCH  31  34
ENDBRANCH  17  20
ENDBRANCH  12  16
ENDBRANCH  11  12
ENDBRANCH   7  11
ENDBRANCH   2   5
TORSDOF 6
ENDMDL
MODEL       87
REMARK 921   NORMALIZED FREE ENERGY PREDICTED BY IDOCK:   19.06 KCAL/MOL
REMARK 922        TOTAL FREE ENERGY PREDICTED BY IDOCK:   25.12 KCAL/MOL
REMARK 923 INTER-LIGAND FREE ENERGY PREDICTED BY IDOCK:   17.28 KCAL/MOL
REMARK 924 INTRA-LIGAND FREE ENERGY PREDICTED BY IDOCK:    7.84 KCAL/MOL
REMARK 927      BINDING AFFINITY PREDICTED BY RF-SCORE:    0.00 PKD
ROOT
HETATM    1  C   UNL     1      -5.932   7.235  71.413  1.00  0.00    -0.036 C  
HETATM    2  S   UNL     1      -6.862   7.863  70.036  1.00  0.00    -0.045 S  
HETATM    3  O   UNL     1      -7.843   8.800  70.541  1.00  0.00    -0.080 OA 
HETATM    4  O   UNL     1      -5.921   8.250  69.002  1.00  0.00    -0.040 OA 
ENDROOT
BRANCH   2   5
HETATM    5  C   UNL     1      -7.783   6.464  69.443  1.00  0.00    -0.101 A  
HETATM    6  C   UNL     1      -8.211   6.482  68.112  1.00  0.00    -0.117 A  
HETATM    7  C   UNL     1      -8.799   5.355  67.533  1.00  0.00    -0.105 A  
HETATM    8  C   UNL     1      -9.013   4.232  68.351  1.00  0.00    -0.151 A  
HETATM    9  C   UNL     1      -8.608   4.224  69.693  1.00  0.00    -0.103 A  
HETATM   10  C   UNL     1      -7.973   5.338  70.241  1.00  0.00    -0.084 A  
BRANCH   7  11
HETATM   11  C   UNL     1      -9.189   5.271  66.068  1.00  0.00    -0.163 C  
BRANCH  11  12
HETATM   12  CA  UNL     1      -9.425   6.566  65.261  1.00  0.00     0.791 C  
HETATM   13  C   UNL     1     -10.935   6.826  65.082  1.00  0.00     5.737 C  
HETATM   14  OXT UNL     1     -11.795   5.962  65.024  1.00  0.00     3.586 OA 
HETATM   15  O   UNL     1     -11.240   8.137  64.939  1.00  0.00     7.887 OA 
BRANCH  12  16
HETATM   16  N   UNL     1      -8.680   7.750  65.781  1.00  0.00    -0.227 N  
HETATM   17  C   UNL     1      -9.032   9.058  65.505  1.00  0.00    -0.204 C  
HETATM   18  H   UNL     1      -7.865   7.585  66.373  1.00  0.00     0.000 HD 
HETATM   19  O   UNL     1      -9.996   9.306  64.790  1.00  0.00     0.299 OA 
BRANCH  17  20
HETATM   20  C   UNL     1      -8.287  10.180  66.180  1.00  0.00    -0.131 A  
HETATM   21  C   UNL     1      -8.899  11.449  66.286  1.00  0.00    -0.195 A  
HETATM   22 CL   UNL     1     -10.199  11.911  65.224  1.00  0.00    -0.295 Cl 
HETATM   23  C   UNL     1      -8.416  12.424  67.196  1.00  0.00    -0.185 A  
HETATM   24  C   UNL     1      -7.172  12.238  67.833  1.00  0.00    -0.106 A  
HETATM   25  C   UNL     1      -6.519  11.009  67.662  1.00  0.00    -0.060 A  
HETATM   26  C   UNL     1      -6.553  13.321  68.721  1.00  0.00    -0.099 C  
HETATM   27  C   UNL     1      -7.092   9.976  66.893  1.00  0.00    -0.090 A  
HETATM   28  N   UNL     1      -7.413  14.506  68.876  1.00  0.00    -0.128 N  
HETATM   29 CL   UNL     1      -6.271   8.453  66.952  1.00  0.00    -0.054 Cl 
HETATM   30  C   UNL     1      -8.829  14.177  68.935  1.00  0.00     0.021 C  
HETATM   31  C   UNL     1      -6.920  15.748  68.457  1.00  0.00    -0.117 C  
HETATM   32  C   UNL     1      -9.242  13.647  67.561  1.00  0.00    -0.218 C  
HETATM   33  O   UNL     1      -5.782  15.873  68.001  1.00  0.00    -0.108 OA 
BRANCH  31  34
HETATM   34  C   UNL     1      -7.748  16.997  68.521  1.00  0.00    -0.238 A  
HETATM   35  C   UNL     1      -7.264  18.123  67.825  1.00  0.00    -0.213 A  
HETATM   36  C   UNL     1      -7.891  19.379  67.913  1.00  0.00    -0.325 A  
HETATM   37  C   UNL     1      -9.029  19.503  68.724  1.00  0.00    -0.364 A  
HETATM   38  C   UNL     1      -9.900  20.564  69.092  1.00  0.00     0.351 A  
HETATM   39  C   UNL     1     -10.831  20.019  69.946  1.00  0.00     1.429 A  
HETATM   40  O   UNL     1     -10.591  18.694  70.135  1.00  0.00     0.985 OA 
HETATM   41  C   UNL     1      -9.487  18.377  69.399  1.00  0.00     0.247 A  
HETATM   42  C   UNL     1      -8.881  17.117  69.342  1.00  0.00     0.325 A  
ENDBRANCH  31  34
ENDBRANCH  17  20
ENDBRANCH  12  16
ENDBRANCH  11  12
ENDBRANCH   7  11
ENDBRANCH   2   5
TORSDOF 6
ENDMDL
MODEL       88
REMARK 921   NORMALIZED FREE ENERGY PREDICTED BY IDOCK:   19.99 KCAL/MOL
REMARK 922        TOTAL FREE ENERGY PREDICTED BY IDOCK:   26.38 KCAL/MOL
REMARK 923 INTER-LIGAND FREE ENERGY PREDICTED BY IDOCK:   24.15 KCAL/MOL
REMARK 924 INTRA-LIGAND FREE ENERGY PREDICTED BY IDOCK:    2.23 KCAL/MOL
REMARK 927      BINDING AFFINITY PREDICTED BY RF-SCORE:    0.00 PKD
ROOT
HETATM    1  C   UNL     1     -13.864   5.694  71.536  1.00  0.00     2.934 C  
HETATM    2  S   UNL     1     -13.227   4.590  72.773  1.00  0.00     2.730 S  
HETATM    3  O   UNL     1     -13.642   5.076  74.072  1.00  0.00     5.166 OA 
HETATM    4  O   UNL     1     -13.521   3.232  72.353  1.00  0.00     3.377 OA 
ENDROOT
BRANCH   2   5
HETATM    5  C   UNL     1     -11.466   4.813  72.708  1.00  0.00    -0.051 A  
HETATM    6  C   UNL     1     -10.717   3.886  71.977  1.00  0.00     0.228 A  
HETATM    7  C   UNL     1      -9.354   4.086  71.750  1.00  0.00    -0.194 A  
HETATM    8  C   UNL     1      -8.745   5.206  72.343  1.00  0.00    -0.124 A  
HETATM    9  C   UNL     1      -9.491   6.120  73.100  1.00  0.00    -0.138 A  
HETATM   10  C   UNL     1     -10.863   5.936  73.271  1.00  0.00    -0.291 A  
BRANCH   7  11
HETATM   11  C   UNL     1      -8.506   3.176  70.878  1.00  0.00    -0.100 C  
BRANCH  11  12
HETATM   12  CA  UNL     1      -8.707   3.174  69.347  1.00  0.00    -0.076 C  
HETATM   13  C   UNL     1     -10.059   2.530  68.979  1.00  0.00     0.977 C  
HETATM   14  OXT UNL     1     -10.620   1.658  69.622  1.00  0.00     1.238 OA 
HETATM   15  O   UNL     1     -10.573   2.991  67.814  1.00  0.00     2.240 OA 
BRANCH  12  16
HETATM   16  N   UNL     1      -8.492   4.505  68.706  1.00  0.00    -0.084 N  
HETATM   17  C   UNL     1      -8.551   4.714  67.340  1.00  0.00    -0.104 C  
HETATM   18  H   UNL     1      -8.290   5.303  69.307  1.00  0.00     0.000 HD 
HETATM   19  O   UNL     1      -8.780   3.783  66.576  1.00  0.00    -0.110 OA 
BRANCH  17  20
HETATM   20  C   UNL     1      -8.441   6.118  66.804  1.00  0.00    -0.111 A  
HETATM   21  C   UNL     1      -8.723   7.207  67.659  1.00  0.00    -0.121 A  
HETATM   22 CL   UNL     1      -9.691   6.999  69.090  1.00  0.00    -0.156 Cl 
HETATM   23  C   UNL     1      -8.307   8.523  67.332  1.00  0.00    -0.120 A  
HETATM   24  C   UNL     1      -7.822   8.809  66.040  1.00  0.00    -0.105 A  
HETATM   25  C   UNL     1      -7.620   7.738  65.158  1.00  0.00    -0.094 A  
HETATM   26  C   UNL     1      -7.484  10.237  65.605  1.00  0.00    -0.149 C  
HETATM   27  C   UNL     1      -7.873   6.408  65.551  1.00  0.00    -0.103 A  
HETATM   28  N   UNL     1      -7.655  11.228  66.681  1.00  0.00    -0.150 N  
HETATM   29 CL   UNL     1      -7.375   5.187  64.429  1.00  0.00    -0.058 Cl 
HETATM   30  C   UNL     1      -7.288  10.713  67.991  1.00  0.00    -0.088 C  
HETATM   31  C   UNL     1      -8.562  12.278  66.484  1.00  0.00    -0.038 C  
HETATM   32  C   UNL     1      -8.304   9.634  68.371  1.00  0.00    -0.117 C  
HETATM   33  O   UNL     1      -9.183  12.407  65.427  1.00  0.00     0.078 OA 
BRANCH  31  34
HETATM   34  C   UNL     1      -8.846  13.296  67.548  1.00  0.00    -0.206 A  
HETATM   35  C   UNL     1      -9.654  14.392  67.186  1.00  0.00    -0.251 A  
HETATM   36  C   UNL     1      -9.886  15.468  68.062  1.00  0.00    -0.212 A  
HETATM   37  C   UNL     1      -9.286  15.439  69.330  1.00  0.00    -0.266 A  
HETATM   38  C   UNL     1      -9.246  16.310  70.452  1.00  0.00     1.762 A  
HETATM   39  C   UNL     1      -8.454  15.691  71.392  1.00  0.00     4.727 A  
HETATM   40  O   UNL     1      -7.997  14.499  70.924  1.00  0.00     1.690 OA 
HETATM   41  C   UNL     1      -8.494  14.345  69.663  1.00  0.00     0.533 A  
HETATM   42  C   UNL     1      -8.235  13.265  68.812  1.00  0.00     0.084 A  
ENDBRANCH  31  34
ENDBRANCH  17  20
ENDBRANCH  12  16
ENDBRANCH  11  12
ENDBRANCH   7  11
ENDBRANCH   2   5
TORSDOF 6
ENDMDL
MODEL       89
REMARK 921   NORMALIZED FREE ENERGY PREDICTED BY IDOCK:   24.57 KCAL/MOL
REMARK 922        TOTAL FREE ENERGY PREDICTED BY IDOCK:   32.56 KCAL/MOL
REMARK 923 INTER-LIGAND FREE ENERGY PREDICTED BY IDOCK:   25.34 KCAL/MOL
REMARK 924 INTRA-LIGAND FREE ENERGY PREDICTED BY IDOCK:    7.22 KCAL/MOL
REMARK 927      BINDING AFFINITY PREDICTED BY RF-SCORE:    0.00 PKD
ROOT
HETATM    1  C   UNL     1     -11.965  12.344  67.225  1.00  0.00    -0.176 C  
HETATM    2  S   UNL     1     -12.249  13.273  68.713  1.00  0.00     0.061 S  
HETATM    3  O   UNL     1     -13.078  14.414  68.384  1.00  0.00     1.363 OA 
HETATM    4  O   UNL     1     -12.640  12.340  69.753  1.00  0.00     0.063 OA 
ENDROOT
BRANCH   2   5
HETATM    5  C   UNL     1     -10.656  13.933  69.140  1.00  0.00    -0.100 A  
HETATM    6  C   UNL     1     -10.015  14.749  68.203  1.00  0.00    -0.221 A  
HETATM    7  C   UNL     1      -8.840  15.429  68.530  1.00  0.00    -0.183 A  
HETATM    8  C   UNL     1      -8.284  15.207  69.802  1.00  0.00     0.027 A  
HETATM    9  C   UNL     1      -8.913  14.367  70.731  1.00  0.00     3.175 A  
HETATM   10  C   UNL     1     -10.115  13.738  70.408  1.00  0.00     2.438 A  
BRANCH   7  11
HETATM   11  C   UNL     1      -8.152  16.412  67.599  1.00  0.00    -0.170 C  
BRANCH  11  12
HETATM   12  CA  UNL     1      -7.675  15.945  66.206  1.00  0.00     0.325 C  
HETATM   13  C   UNL     1      -6.695  16.969  65.597  1.00  0.00     0.962 C  
HETATM   14  OXT UNL     1      -6.709  18.169  65.815  1.00  0.00    -0.262 OA 
HETATM   15  O   UNL     1      -5.814  16.418  64.730  1.00  0.00     4.983 OA 
BRANCH  12  16
HETATM   16  N   UNL     1      -7.158  14.545  66.180  1.00  0.00     2.807 N  
HETATM   17  C   UNL     1      -7.814  13.476  66.763  1.00  0.00     0.487 C  
HETATM   18  H   UNL     1      -6.273  14.367  65.706  1.00  0.00     0.000 HD 
HETATM   19  O   UNL     1      -8.875  13.643  67.353  1.00  0.00    -0.198 OA 
BRANCH  17  20
HETATM   20  C   UNL     1      -7.268  12.085  66.574  1.00  0.00     0.267 A  
HETATM   21  C   UNL     1      -7.863  11.009  67.271  1.00  0.00    -0.122 A  
HETATM   22 CL   UNL     1      -8.806  11.283  68.709  1.00  0.00    -0.140 Cl 
HETATM   23  C   UNL     1      -7.637   9.666  66.879  1.00  0.00    -0.095 A  
HETATM   24  C   UNL     1      -6.625   9.364  65.945  1.00  0.00    -0.076 A  
HETATM   25  C   UNL     1      -5.973  10.430  65.311  1.00  0.00    -0.135 A  
HETATM   26  C   UNL     1      -6.261   7.920  65.591  1.00  0.00    -0.038 C  
HETATM   27  C   UNL     1      -6.325  11.769  65.580  1.00  0.00     1.825 A  
HETATM   28  N   UNL     1      -7.110   6.925  66.267  1.00  0.00    -0.072 N  
HETATM   29 CL   UNL     1      -5.580  12.959  64.566  1.00  0.00     9.511 Cl 
HETATM   30  C   UNL     1      -8.491   7.359  66.411  1.00  0.00    -0.129 C  
HETATM   31  C   UNL     1      -6.498   5.987  67.109  1.00  0.00    -0.047 C  
HETATM   32  C   UNL     1      -8.512   8.532  67.393  1.00  0.00    -0.127 C  
HETATM   33  O   UNL     1      -5.275   5.957  67.263  1.00  0.00    -0.004 OA 
BRANCH  31  34
HETATM   34  C   UNL     1      -7.289   4.977  67.886  1.00  0.00    -0.075 A  
HETATM   35  C   UNL     1      -7.913   3.949  67.151  1.00  0.00    -0.092 A  
HETATM   36  C   UNL     1      -8.777   3.020  67.756  1.00  0.00    -0.140 A  
HETATM   37  C   UNL     1      -9.022   3.132  69.133  1.00  0.00    -0.181 A  
HETATM   38  C   UNL     1      -9.824   2.439  70.079  1.00  0.00     0.199 A  
HETATM   39  C   UNL     1      -9.624   3.067  71.287  1.00  0.00    -0.155 A  
HETATM   40  O   UNL     1      -8.756   4.105  71.150  1.00  0.00    -0.089 OA 
HETATM   41  C   UNL     1      -8.393   4.154  69.836  1.00  0.00    -0.061 A  
HETATM   42  C   UNL     1      -7.536   5.101  69.262  1.00  0.00    -0.069 A  
ENDBRANCH  31  34
ENDBRANCH  17  20
ENDBRANCH  12  16
ENDBRANCH  11  12
ENDBRANCH   7  11
ENDBRANCH   2   5
TORSDOF 6
ENDMDL
MODEL       90
REMARK 921   NORMALIZED FREE ENERGY PREDICTED BY IDOCK:   25.18 KCAL/MOL
REMARK 922        TOTAL FREE ENERGY PREDICTED BY IDOCK:   33.38 KCAL/MOL
REMARK 923 INTER-LIGAND FREE ENERGY PREDICTED BY IDOCK:   32.97 KCAL/MOL
REMARK 924 INTRA-LIGAND FREE ENERGY PREDICTED BY IDOCK:    0.42 KCAL/MOL
REMARK 927      BINDING AFFINITY PREDICTED BY RF-SCORE:    0.00 PKD
ROOT
HETATM    1  C   UNL     1      -8.052   3.528  74.415  1.00  0.00    -0.077 C  
HETATM    2  S   UNL     1      -8.807   3.295  72.825  1.00  0.00    -0.085 S  
HETATM    3  O   UNL     1      -8.246   4.265  71.909  1.00  0.00    -0.093 OA 
HETATM    4  O   UNL     1      -8.779   1.876  72.521  1.00  0.00    -0.061 OA 
ENDROOT
BRANCH   2   5
HETATM    5  C   UNL     1     -10.503   3.770  73.060  1.00  0.00    -0.174 A  
HETATM    6  C   UNL     1     -10.869   5.075  72.716  1.00  0.00    -0.305 A  
HETATM    7  C   UNL     1     -12.208   5.469  72.724  1.00  0.00     0.098 A  
HETATM    8  C   UNL     1     -13.166   4.537  73.159  1.00  0.00     2.025 A  
HETATM    9  C   UNL     1     -12.795   3.237  73.531  1.00  0.00     1.465 A  
HETATM   10  C   UNL     1     -11.460   2.842  73.465  1.00  0.00    -0.196 A  
BRANCH   7  11
HETATM   11  C   UNL     1     -12.684   6.835  72.261  1.00  0.00    -0.003 C  
BRANCH  11  12
HETATM   12  CA  UNL     1     -12.676   7.182  70.756  1.00  0.00    -0.075 C  
HETATM   13  C   UNL     1     -13.811   6.439  70.023  1.00  0.00     5.635 C  
HETATM   14  OXT UNL     1     -14.266   5.355  70.348  1.00  0.00     7.844 OA 
HETATM   15  O   UNL     1     -14.248   7.085  68.916  1.00  0.00    10.372 OA 
BRANCH  12  16
HETATM   16  N   UNL     1     -12.649   8.647  70.471  1.00  0.00    -0.263 N  
HETATM   17  C   UNL     1     -11.514   9.328  70.071  1.00  0.00    -0.049 C  
HETATM   18  H   UNL     1     -13.515   9.175  70.578  1.00  0.00     0.000 HD 
HETATM   19  O   UNL     1     -10.447   8.738  69.938  1.00  0.00    -0.211 OA 
BRANCH  17  20
HETATM   20  C   UNL     1     -11.622  10.782  69.690  1.00  0.00    -0.388 A  
HETATM   21  C   UNL     1     -10.497  11.437  69.141  1.00  0.00    -0.127 A  
HETATM   22 CL   UNL     1      -8.888  10.818  69.387  1.00  0.00    -0.049 Cl 
HETATM   23  C   UNL     1     -10.629  12.669  68.452  1.00  0.00    -0.258 A  
HETATM   24  C   UNL     1     -11.842  13.384  68.513  1.00  0.00    -0.401 A  
HETATM   25  C   UNL     1     -12.940  12.771  69.132  1.00  0.00     1.625 A  
HETATM   26  C   UNL     1     -11.987  14.776  67.892  1.00  0.00    -0.227 C  
HETATM   27  C   UNL     1     -12.848  11.469  69.664  1.00  0.00     0.511 A  
HETATM   28  N   UNL     1     -10.773  15.230  67.193  1.00  0.00    -0.310 N  
HETATM   29 CL   UNL     1     -14.339  10.772  70.202  1.00  0.00     3.313 Cl 
HETATM   30  C   UNL     1     -10.072  14.152  66.513  1.00  0.00    -0.280 C  
HETATM   31  C   UNL     1     -10.152  16.408  67.629  1.00  0.00    -0.263 C  
HETATM   32  C   UNL     1      -9.507  13.214  67.581  1.00  0.00    -0.207 C  
HETATM   33  O   UNL     1     -10.617  17.081  68.550  1.00  0.00    -0.338 OA 
BRANCH  31  34
HETATM   34  C   UNL     1      -8.879  16.911  67.017  1.00  0.00    -0.231 A  
HETATM   35  C   UNL     1      -7.756  17.009  67.863  1.00  0.00    -0.180 A  
HETATM   36  C   UNL     1      -6.546  17.581  67.432  1.00  0.00    -0.180 A  
HETATM   37  C   UNL     1      -6.467  18.068  66.119  1.00  0.00    -0.283 A  
HETATM   38  C   UNL     1      -5.475  18.720  65.338  1.00  0.00    -0.223 A  
HETATM   39  C   UNL     1      -6.044  18.950  64.107  1.00  0.00     0.257 A  
HETATM   40  O   UNL     1      -7.323  18.489  64.075  1.00  0.00     3.575 OA 
HETATM   41  C   UNL     1      -7.589  17.959  65.304  1.00  0.00     1.287 A  
HETATM   42  C   UNL     1      -8.810  17.406  65.705  1.00  0.00     0.501 A  
ENDBRANCH  31  34
ENDBRANCH  17  20
ENDBRANCH  12  16
ENDBRANCH  11  12
ENDBRANCH   7  11
ENDBRANCH   2   5
TORSDOF 6
ENDMDL
MODEL       91
REMARK 921   NORMALIZED FREE ENERGY PREDICTED BY IDOCK:   28.59 KCAL/MOL
REMARK 922        TOTAL FREE ENERGY PREDICTED BY IDOCK:   37.99 KCAL/MOL
REMARK 923 INTER-LIGAND FREE ENERGY PREDICTED BY IDOCK:   34.17 KCAL/MOL
REMARK 924 INTRA-LIGAND FREE ENERGY PREDICTED BY IDOCK:    3.82 KCAL/MOL
REMARK 927      BINDING AFFINITY PREDICTED BY RF-SCORE:    0.00 PKD
ROOT
HETATM    1  C   UNL     1     -13.283  13.800  65.747  1.00  0.00     0.214 C  
HETATM    2  S   UNL     1     -11.906  14.247  66.775  1.00  0.00    -0.425 S  
HETATM    3  O   UNL     1     -12.125  13.693  68.095  1.00  0.00    -0.359 OA 
HETATM    4  O   UNL     1     -10.688  13.965  66.038  1.00  0.00    -0.282 OA 
ENDROOT
BRANCH   2   5
HETATM    5  C   UNL     1     -12.038  16.010  66.958  1.00  0.00     1.273 A  
HETATM    6  C   UNL     1     -11.999  16.536  68.253  1.00  0.00     0.617 A  
HETATM    7  C   UNL     1     -11.937  17.915  68.465  1.00  0.00     3.093 A  
HETATM    8  C   UNL     1     -11.992  18.756  67.339  1.00  0.00     2.488 A  
HETATM    9  C   UNL     1     -12.060  18.228  66.043  1.00  0.00     4.905 A  
HETATM   10  C   UNL     1     -12.066  16.847  65.846  1.00  0.00     3.062 A  
BRANCH   7  11
HETATM   11  C   UNL     1     -11.785  18.548  69.837  1.00  0.00     6.373 C  
BRANCH  11  12
HETATM   12  CA  UNL     1     -10.720  18.009  70.817  1.00  0.00     2.230 C  
HETATM   13  C   UNL     1     -11.308  17.877  72.237  1.00  0.00     2.603 C  
HETATM   14  OXT UNL     1     -12.196  18.576  72.698  1.00  0.00     5.647 OA 
HETATM   15  O   UNL     1     -10.706  16.919  72.980  1.00  0.00     2.760 OA 
BRANCH  12  16
HETATM   16  N   UNL     1     -10.032  16.772  70.346  1.00  0.00     1.050 N  
HETATM   17  C   UNL     1      -8.746  16.758  69.837  1.00  0.00     1.257 C  
HETATM   18  H   UNL     1     -10.537  15.888  70.402  1.00  0.00     0.000 HD 
HETATM   19  O   UNL     1      -8.103  17.797  69.740  1.00  0.00     0.715 OA 
BRANCH  17  20
HETATM   20  C   UNL     1      -8.099  15.439  69.503  1.00  0.00    -0.207 A  
HETATM   21  C   UNL     1      -8.908  14.361  69.077  1.00  0.00     0.009 A  
HETATM   22 CL   UNL     1     -10.611  14.320  69.437  1.00  0.00    -0.160 Cl 
HETATM   23  C   UNL     1      -8.346  13.235  68.426  1.00  0.00    -0.131 A  
HETATM   24  C   UNL     1      -6.948  13.055  68.409  1.00  0.00    -0.100 A  
HETATM   25  C   UNL     1      -6.142  14.088  68.908  1.00  0.00    -0.086 A  
HETATM   26  C   UNL     1      -6.306  11.791  67.831  1.00  0.00    -0.057 C  
HETATM   27  C   UNL     1      -6.706  15.284  69.398  1.00  0.00    -0.164 A  
HETATM   28  N   UNL     1      -7.286  10.853  67.255  1.00  0.00    -0.094 N  
HETATM   29 CL   UNL     1      -5.579  16.542  69.780  1.00  0.00    -0.167 Cl 
HETATM   30  C   UNL     1      -8.396  11.524  66.598  1.00  0.00    -0.167 C  
HETATM   31  C   UNL     1      -7.363   9.559  67.787  1.00  0.00    -0.083 C  
HETATM   32  C   UNL     1      -9.215  12.237  67.676  1.00  0.00    -0.183 C  
HETATM   33  O   UNL     1      -6.612   9.184  68.689  1.00  0.00    -0.053 OA 
BRANCH  31  34
HETATM   34  C   UNL     1      -8.372   8.559  67.305  1.00  0.00    -0.115 A  
HETATM   35  C   UNL     1      -9.729   8.927  67.389  1.00  0.00    -0.227 A  
HETATM   36  C   UNL     1     -10.765   8.027  67.082  1.00  0.00    -0.285 A  
HETATM   37  C   UNL     1     -10.425   6.725  66.686  1.00  0.00    -0.213 A  
HETATM   38  C   UNL     1     -11.145   5.552  66.334  1.00  0.00     0.069 A  
HETATM   39  C   UNL     1     -10.202   4.590  66.054  1.00  0.00    -0.260 A  
HETATM   40  O   UNL     1      -8.947   5.088  66.215  1.00  0.00    -0.121 OA 
HETATM   41  C   UNL     1      -9.078   6.387  66.610  1.00  0.00    -0.146 A  
HETATM   42  C   UNL     1      -8.024   7.255  66.918  1.00  0.00    -0.112 A  
ENDBRANCH  31  34
ENDBRANCH  17  20
ENDBRANCH  12  16
ENDBRANCH  11  12
ENDBRANCH   7  11
ENDBRANCH   2   5
TORSDOF 6
ENDMDL
MODEL       92
REMARK 921   NORMALIZED FREE ENERGY PREDICTED BY IDOCK:   29.77 KCAL/MOL
REMARK 922        TOTAL FREE ENERGY PREDICTED BY IDOCK:   39.59 KCAL/MOL
REMARK 923 INTER-LIGAND FREE ENERGY PREDICTED BY IDOCK:   39.52 KCAL/MOL
REMARK 924 INTRA-LIGAND FREE ENERGY PREDICTED BY IDOCK:    0.07 KCAL/MOL
REMARK 927      BINDING AFFINITY PREDICTED BY RF-SCORE:    0.00 PKD
ROOT
HETATM    1  C   UNL     1     -13.798   5.619  67.239  1.00  0.00    22.587 C  
HETATM    2  S   UNL     1     -12.084   5.517  67.692  1.00  0.00     6.380 S  
HETATM    3  O   UNL     1     -11.993   5.541  69.137  1.00  0.00     2.107 OA 
HETATM    4  O   UNL     1     -11.482   4.444  66.923  1.00  0.00     2.705 OA 
ENDROOT
BRANCH   2   5
HETATM    5  C   UNL     1     -11.381   7.051  67.134  1.00  0.00     0.177 A  
HETATM    6  C   UNL     1     -10.261   6.990  66.300  1.00  0.00     0.162 A  
HETATM    7  C   UNL     1      -9.754   8.142  65.695  1.00  0.00     0.393 A  
HETATM    8  C   UNL     1     -10.358   9.371  66.013  1.00  0.00    -0.081 A  
HETATM    9  C   UNL     1     -11.464   9.435  66.872  1.00  0.00     1.697 A  
HETATM   10  C   UNL     1     -11.992   8.268  67.424  1.00  0.00     4.303 A  
BRANCH   7  11
HETATM   11  C   UNL     1      -8.609   8.133  64.698  1.00  0.00     0.035 C  
BRANCH  11  12
HETATM   12  CA  UNL     1      -7.172   8.440  65.174  1.00  0.00    -0.080 C  
HETATM   13  C   UNL     1      -6.200   8.471  63.978  1.00  0.00    -0.071 C  
HETATM   14  OXT UNL     1      -6.326   7.821  62.952  1.00  0.00    -0.069 OA 
HETATM   15  O   UNL     1      -5.125   9.269  64.181  1.00  0.00    -0.056 OA 
BRANCH  12  16
HETATM   16  N   UNL     1      -7.069   9.644  66.051  1.00  0.00    -0.095 N  
HETATM   17  C   UNL     1      -6.875   9.580  67.418  1.00  0.00    -0.083 C  
HETATM   18  H   UNL     1      -7.146  10.564  65.617  1.00  0.00     0.000 HD 
HETATM   19  O   UNL     1      -6.787   8.497  67.985  1.00  0.00    -0.067 OA 
BRANCH  17  20
HETATM   20  C   UNL     1      -6.661  10.854  68.193  1.00  0.00    -0.062 A  
HETATM   21  C   UNL     1      -6.814  12.096  67.536  1.00  0.00    -0.127 A  
HETATM   22 CL   UNL     1      -6.699  12.214  65.802  1.00  0.00     1.893 Cl 
HETATM   23  C   UNL     1      -6.973  13.299  68.268  1.00  0.00    -0.107 A  
HETATM   24  C   UNL     1      -6.737  13.315  69.658  1.00  0.00     0.071 A  
HETATM   25  C   UNL     1      -6.500  12.093  70.302  1.00  0.00     0.282 A  
HETATM   26  C   UNL     1      -6.770  14.616  70.465  1.00  0.00     0.117 C  
HETATM   27  C   UNL     1      -6.516  10.876  69.591  1.00  0.00    -0.114 A  
HETATM   28  N   UNL     1      -7.133  15.792  69.656  1.00  0.00    -0.185 N  
HETATM   29 CL   UNL     1      -6.420   9.442  70.557  1.00  0.00    -0.068 Cl 
HETATM   30  C   UNL     1      -8.121  15.495  68.631  1.00  0.00    -0.159 C  
HETATM   31  C   UNL     1      -6.220  16.852  69.571  1.00  0.00    -0.229 C  
HETATM   32  C   UNL     1      -7.464  14.575  67.600  1.00  0.00    -0.195 C  
HETATM   33  O   UNL     1      -5.150  16.834  70.182  1.00  0.00    -0.156 OA 
BRANCH  31  34
HETATM   34  C   UNL     1      -6.478  18.060  68.722  1.00  0.00    -0.228 A  
HETATM   35  C   UNL     1      -7.706  18.725  68.910  1.00  0.00    -0.298 A  
HETATM   36  C   UNL     1      -8.109  19.794  68.090  1.00  0.00    -0.329 A  
HETATM   37  C   UNL     1      -7.255  20.198  67.052  1.00  0.00    -0.295 A  
HETATM   38  C   UNL     1      -7.305  21.176  66.022  1.00  0.00     0.475 A  
HETATM   39  C   UNL     1      -6.133  21.049  65.313  1.00  0.00    -0.218 A  
HETATM   40  O   UNL     1      -5.364  20.055  65.832  1.00  0.00    -0.161 OA 
HETATM   41  C   UNL     1      -6.049  19.526  66.887  1.00  0.00    -0.176 A  
HETATM   42  C   UNL     1      -5.624  18.454  67.679  1.00  0.00    -0.154 A  
ENDBRANCH  31  34
ENDBRANCH  17  20
ENDBRANCH  12  16
ENDBRANCH  11  12
ENDBRANCH   7  11
ENDBRANCH   2   5
TORSDOF 6
ENDMDL
MODEL       93
REMARK 921   NORMALIZED FREE ENERGY PREDICTED BY IDOCK:   37.30 KCAL/MOL
REMARK 922        TOTAL FREE ENERGY PREDICTED BY IDOCK:   49.76 KCAL/MOL
REMARK 923 INTER-LIGAND FREE ENERGY PREDICTED BY IDOCK:   42.84 KCAL/MOL
REMARK 924 INTRA-LIGAND FREE ENERGY PREDICTED BY IDOCK:    6.92 KCAL/MOL
REMARK 927      BINDING AFFINITY PREDICTED BY RF-SCORE:    0.00 PKD
ROOT
HETATM    1  C   UNL     1      -5.928  14.970  64.727  1.00  0.00    17.477 C  
HETATM    2  S   UNL     1      -6.367  15.593  66.331  1.00  0.00     2.581 S  
HETATM    3  O   UNL     1      -6.270  14.506  67.283  1.00  0.00    -0.302 OA 
HETATM    4  O   UNL     1      -5.647  16.835  66.540  1.00  0.00    -0.340 OA 
ENDROOT
BRANCH   2   5
HETATM    5  C   UNL     1      -8.097  15.977  66.204  1.00  0.00     0.089 A  
HETATM    6  C   UNL     1      -8.750  16.432  67.353  1.00  0.00    -0.195 A  
HETATM    7  C   UNL     1     -10.064  16.903  67.292  1.00  0.00    -0.286 A  
HETATM    8  C   UNL     1     -10.730  16.833  66.056  1.00  0.00    -0.139 A  
HETATM    9  C   UNL     1     -10.083  16.350  64.910  1.00  0.00     0.644 A  
HETATM   10  C   UNL     1      -8.754  15.935  64.977  1.00  0.00     3.145 A  
BRANCH   7  11
HETATM   11  C   UNL     1     -10.795  17.508  68.477  1.00  0.00    -0.136 C  
BRANCH  11  12
HETATM   12  CA  UNL     1     -10.873  16.731  69.810  1.00  0.00    -0.153 C  
HETATM   13  C   UNL     1     -12.342  16.530  70.234  1.00  0.00     1.330 C  
HETATM   14  OXT UNL     1     -13.260  17.289  69.970  1.00  0.00     6.751 OA 
HETATM   15  O   UNL     1     -12.534  15.427  70.995  1.00  0.00    -0.344 OA 
BRANCH  12  16
HETATM   16  N   UNL     1     -10.076  15.469  69.824  1.00  0.00    -0.284 N  
HETATM   17  C   UNL     1     -10.479  14.317  70.472  1.00  0.00     1.088 C  
HETATM   18  H   UNL     1      -9.184  15.457  69.329  1.00  0.00     0.000 HD 
HETATM   19  O   UNL     1     -11.538  14.287  71.089  1.00  0.00    -0.198 OA 
BRANCH  17  20
HETATM   20  C   UNL     1      -9.660  13.061  70.322  1.00  0.00     4.186 A  
HETATM   21  C   UNL     1     -10.265  11.808  70.568  1.00  0.00     3.379 A  
HETATM   22 CL   UNL     1     -11.707  11.682  71.537  1.00  0.00     1.016 Cl 
HETATM   23  C   UNL     1      -9.671  10.604  70.114  1.00  0.00     0.588 A  
HETATM   24  C   UNL     1      -8.348  10.611  69.626  1.00  0.00     0.075 A  
HETATM   25  C   UNL     1      -7.711  11.849  69.460  1.00  0.00     0.580 A  
HETATM   26  C   UNL     1      -7.623   9.317  69.248  1.00  0.00    -0.080 C  
HETATM   27  C   UNL     1      -8.375  13.058  69.751  1.00  0.00     2.132 A  
HETATM   28  N   UNL     1      -8.466   8.118  69.385  1.00  0.00    -0.126 N  
HETATM   29 CL   UNL     1      -7.536  14.503  69.294  1.00  0.00    -0.111 Cl 
HETATM   30  C   UNL     1      -9.856   8.356  69.028  1.00  0.00    -0.183 C  
HETATM   31  C   UNL     1      -8.051   7.106  70.261  1.00  0.00    -0.118 C  
HETATM   32  C   UNL     1     -10.452   9.300  70.074  1.00  0.00    -0.254 C  
HETATM   33  O   UNL     1      -6.989   7.184  70.882  1.00  0.00    -0.056 OA 
BRANCH  31  34
HETATM   34  C   UNL     1      -8.876   5.879  70.510  1.00  0.00    -0.147 A  
HETATM   35  C   UNL     1      -9.961   6.006  71.400  1.00  0.00    -0.223 A  
HETATM   36  C   UNL     1     -10.728   4.898  71.803  1.00  0.00    -0.096 A  
HETATM   37  C   UNL     1     -10.391   3.633  71.300  1.00  0.00     0.316 A  
HETATM   38  C   UNL     1     -10.876   2.310  71.478  1.00  0.00     1.332 A  
HETATM   39  C   UNL     1     -10.086   1.500  70.694  1.00  0.00     0.250 A  
HETATM   40  O   UNL     1      -9.141   2.234  70.048  1.00  0.00    -0.088 OA 
HETATM   41  C   UNL     1      -9.317   3.534  70.422  1.00  0.00    -0.169 A  
HETATM   42  C   UNL     1      -8.527   4.614  70.009  1.00  0.00    -0.089 A  
ENDBRANCH  31  34
ENDBRANCH  17  20
ENDBRANCH  12  16
ENDBRANCH  11  12
ENDBRANCH   7  11
ENDBRANCH   2   5
TORSDOF 6
ENDMDL
MODEL       94
REMARK 921   NORMALIZED FREE ENERGY PREDICTED BY IDOCK:   37.80 KCAL/MOL
REMARK 922        TOTAL FREE ENERGY PREDICTED BY IDOCK:   50.44 KCAL/MOL
REMARK 923 INTER-LIGAND FREE ENERGY PREDICTED BY IDOCK:   47.35 KCAL/MOL
REMARK 924 INTRA-LIGAND FREE ENERGY PREDICTED BY IDOCK:    3.09 KCAL/MOL
REMARK 927      BINDING AFFINITY PREDICTED BY RF-SCORE:    0.00 PKD
ROOT
HETATM    1  C   UNL     1     -10.528  17.250  73.436  1.00  0.00     5.965 C  
HETATM    2  S   UNL     1     -10.289  15.803  72.433  1.00  0.00     3.752 S  
HETATM    3  O   UNL     1      -9.761  14.749  73.274  1.00  0.00     4.975 OA 
HETATM    4  O   UNL     1     -11.493  15.601  71.648  1.00  0.00    -0.387 OA 
ENDROOT
BRANCH   2   5
HETATM    5  C   UNL     1      -8.976  16.242  71.319  1.00  0.00     5.450 A  
HETATM    6  C   UNL     1      -9.302  16.445  69.975  1.00  0.00     0.874 A  
HETATM    7  C   UNL     1      -8.357  16.945  69.077  1.00  0.00    -0.146 A  
HETATM    8  C   UNL     1      -7.051  17.165  69.550  1.00  0.00     0.028 A  
HETATM    9  C   UNL     1      -6.719  16.935  70.892  1.00  0.00     2.402 A  
HETATM   10  C   UNL     1      -7.688  16.488  71.789  1.00  0.00     8.720 A  
BRANCH   7  11
HETATM   11  C   UNL     1      -8.672  17.287  67.631  1.00  0.00    -0.219 C  
BRANCH  11  12
HETATM   12  CA  UNL     1      -9.590  16.360  66.804  1.00  0.00    -0.248 C  
HETATM   13  C   UNL     1      -9.584  16.776  65.319  1.00  0.00     0.809 C  
HETATM   14  OXT UNL     1      -9.414  17.913  64.908  1.00  0.00     1.691 OA 
HETATM   15  O   UNL     1      -9.842  15.750  64.474  1.00  0.00     0.281 OA 
BRANCH  12  16
HETATM   16  N   UNL     1      -9.328  14.906  67.011  1.00  0.00    -0.217 N  
HETATM   17  C   UNL     1      -8.522  14.148  66.182  1.00  0.00     0.923 C  
HETATM   18  H   UNL     1      -9.767  14.445  67.809  1.00  0.00     0.000 HD 
HETATM   19  O   UNL     1      -7.981  14.655  65.205  1.00  0.00     4.137 OA 
BRANCH  17  20
HETATM   20  C   UNL     1      -8.224  12.717  66.549  1.00  0.00     0.308 A  
HETATM   21  C   UNL     1      -8.969  12.099  67.578  1.00  0.00    -0.177 A  
HETATM   22 CL   UNL     1      -9.807  13.048  68.774  1.00  0.00    -0.062 Cl 
HETATM   23  C   UNL     1      -8.985  10.689  67.728  1.00  0.00    -0.140 A  
HETATM   24  C   UNL     1      -8.067   9.894  67.011  1.00  0.00    -0.110 A  
HETATM   25  C   UNL     1      -7.265  10.518  66.046  1.00  0.00    -0.137 A  
HETATM   26  C   UNL     1      -7.962   8.384  67.238  1.00  0.00    -0.105 C  
HETATM   27  C   UNL     1      -7.379  11.898  65.780  1.00  0.00     1.261 A  
HETATM   28  N   UNL     1      -8.944   7.873  68.210  1.00  0.00    -0.133 N  
HETATM   29 CL   UNL     1      -6.477  12.476  64.419  1.00  0.00     7.977 Cl 
HETATM   30  C   UNL     1     -10.228   8.554  68.133  1.00  0.00    -0.208 C  
HETATM   31  C   UNL     1      -8.472   7.233  69.363  1.00  0.00    -0.133 C  
HETATM   32  C   UNL     1     -10.020   9.996  68.599  1.00  0.00    -0.176 C  
HETATM   33  O   UNL     1      -7.268   7.059  69.560  1.00  0.00    -0.076 OA 
BRANCH  31  34
HETATM   34  C   UNL     1      -9.396   6.737  70.435  1.00  0.00    -0.163 A  
HETATM   35  C   UNL     1      -9.117   5.471  70.987  1.00  0.00    -0.163 A  
HETATM   36  C   UNL     1      -9.980   4.853  71.908  1.00  0.00    -0.250 A  
HETATM   37  C   UNL     1     -11.155   5.524  72.278  1.00  0.00    -0.297 A  
HETATM   38  C   UNL     1     -12.262   5.239  73.122  1.00  0.00     0.407 A  
HETATM   39  C   UNL     1     -13.102   6.326  73.037  1.00  0.00     1.688 A  
HETATM   40  O   UNL     1     -12.591   7.262  72.193  1.00  0.00    -0.243 OA 
HETATM   41  C   UNL     1     -11.408   6.773  71.720  1.00  0.00    -0.269 A  
HETATM   42  C   UNL     1     -10.575   7.410  70.794  1.00  0.00    -0.234 A  
ENDBRANCH  31  34
ENDBRANCH  17  20
ENDBRANCH  12  16
ENDBRANCH  11  12
ENDBRANCH   7  11
ENDBRANCH   2   5
TORSDOF 6
ENDMDL
MODEL       95
REMARK 921   NORMALIZED FREE ENERGY PREDICTED BY IDOCK:   47.79 KCAL/MOL
REMARK 922        TOTAL FREE ENERGY PREDICTED BY IDOCK:   63.93 KCAL/MOL
REMARK 923 INTER-LIGAND FREE ENERGY PREDICTED BY IDOCK:   25.43 KCAL/MOL
REMARK 924 INTRA-LIGAND FREE ENERGY PREDICTED BY IDOCK:   38.50 KCAL/MOL
REMARK 927      BINDING AFFINITY PREDICTED BY RF-SCORE:    0.00 PKD
ROOT
HETATM    1  C   UNL     1      -8.961  14.707  68.647  1.00  0.00    -0.184 C  
HETATM    2  S   UNL     1      -9.765  15.937  67.650  1.00  0.00    -0.224 S  
HETATM    3  O   UNL     1      -9.100  15.986  66.365  1.00  0.00    -0.260 OA 
HETATM    4  O   UNL     1     -11.197  15.722  67.744  1.00  0.00    -0.336 OA 
ENDROOT
BRANCH   2   5
HETATM    5  C   UNL     1      -9.390  17.478  68.452  1.00  0.00    -0.287 A  
HETATM    6  C   UNL     1      -8.130  17.617  69.042  1.00  0.00    -0.066 A  
HETATM    7  C   UNL     1      -7.707  18.847  69.549  1.00  0.00     0.197 A  
HETATM    8  C   UNL     1      -8.616  19.920  69.514  1.00  0.00     0.475 A  
HETATM    9  C   UNL     1      -9.889  19.772  68.948  1.00  0.00    -0.454 A  
HETATM   10  C   UNL     1     -10.276  18.551  68.396  1.00  0.00    -0.409 A  
BRANCH   7  11
HETATM   11  C   UNL     1      -6.316  19.093  70.105  1.00  0.00    -0.099 C  
BRANCH  11  12
HETATM   12  CA  UNL     1      -5.415  17.895  70.478  1.00  0.00    -0.245 C  
HETATM   13  C   UNL     1      -5.409  17.676  72.004  1.00  0.00     0.823 C  
HETATM   14  OXT UNL     1      -5.556  18.552  72.841  1.00  0.00     0.982 OA 
HETATM   15  O   UNL     1      -5.171  16.392  72.360  1.00  0.00     0.153 OA 
BRANCH  12  16
HETATM   16  N   UNL     1      -5.707  16.653  69.703  1.00  0.00    -0.177 N  
HETATM   17  C   UNL     1      -6.719  16.555  68.767  1.00  0.00    -0.170 C  
HETATM   18  H   UNL     1      -5.127  15.831  69.875  1.00  0.00     0.000 HD 
HETATM   19  O   UNL     1      -7.448  17.513  68.535  1.00  0.00    -0.242 OA 
BRANCH  17  20
HETATM   20  C   UNL     1      -6.851  15.294  67.953  1.00  0.00    -0.167 A  
HETATM   21  C   UNL     1      -7.657  14.240  68.438  1.00  0.00    -0.124 A  
HETATM   22 CL   UNL     1      -8.046  14.114  70.131  1.00  0.00     1.148 Cl 
HETATM   23  C   UNL     1      -8.098  13.199  67.583  1.00  0.00    -0.176 A  
HETATM   24  C   UNL     1      -7.542  13.063  66.294  1.00  0.00     1.697 A  
HETATM   25  C   UNL     1      -6.675  14.065  65.839  1.00  0.00     6.787 A  
HETATM   26  C   UNL     1      -7.894  11.881  65.387  1.00  0.00     1.486 C  
HETATM   27  C   UNL     1      -6.376  15.191  66.633  1.00  0.00     1.855 A  
HETATM   28  N   UNL     1      -8.895  10.975  65.975  1.00  0.00    -0.188 N  
HETATM   29 CL   UNL     1      -5.463  16.439  65.853  1.00  0.00     1.751 Cl 
HETATM   30  C   UNL     1      -9.903  11.674  66.757  1.00  0.00    -0.200 C  
HETATM   31  C   UNL     1      -8.545   9.634  66.179  1.00  0.00    -0.127 C  
HETATM   32  C   UNL     1      -9.216  12.255  67.994  1.00  0.00    -0.195 C  
HETATM   33  O   UNL     1      -7.443   9.195  65.845  1.00  0.00    -0.092 OA 
BRANCH  31  34
HETATM   34  C   UNL     1      -9.479   8.656  66.828  1.00  0.00    -0.250 A  
HETATM   35  C   UNL     1      -9.441   7.327  66.360  1.00  0.00    -0.185 A  
HETATM   36  C   UNL     1     -10.353   6.354  66.807  1.00  0.00    -0.279 A  
HETATM   37  C   UNL     1     -11.327   6.731  67.744  1.00  0.00    -0.029 A  
HETATM   38  C   UNL     1     -12.409   6.081  68.397  1.00  0.00     4.986 A  
HETATM   39  C   UNL     1     -12.998   7.029  69.202  1.00  0.00     5.343 A  
HETATM   40  O   UNL     1     -12.357   8.222  69.086  1.00  0.00     2.332 OA 
HETATM   41  C   UNL     1     -11.342   8.048  68.190  1.00  0.00     0.888 A  
HETATM   42  C   UNL     1     -10.457   9.042  67.758  1.00  0.00    -0.305 A  
ENDBRANCH  31  34
ENDBRANCH  17  20
ENDBRANCH  12  16
ENDBRANCH  11  12
ENDBRANCH   7  11
ENDBRANCH   2   5
TORSDOF 6
ENDMDL
MODEL       96
REMARK 921   NORMALIZED FREE ENERGY PREDICTED BY IDOCK:   49.59 KCAL/MOL
REMARK 922        TOTAL FREE ENERGY PREDICTED BY IDOCK:   66.37 KCAL/MOL
REMARK 923 INTER-LIGAND FREE ENERGY PREDICTED BY IDOCK:   63.16 KCAL/MOL
REMARK 924 INTRA-LIGAND FREE ENERGY PREDICTED BY IDOCK:    3.21 KCAL/MOL
REMARK 927      BINDING AFFINITY PREDICTED BY RF-SCORE:    0.00 PKD
ROOT
HETATM    1  C   UNL     1     -12.494   7.484  65.898  1.00  0.00    11.280 C  
HETATM    2  S   UNL     1     -11.398   6.822  64.667  1.00  0.00    11.666 S  
HETATM    3  O   UNL     1     -10.661   5.724  65.257  1.00  0.00     0.968 OA 
HETATM    4  O   UNL     1     -12.159   6.639  63.444  1.00  0.00    12.636 OA 
ENDROOT
BRANCH   2   5
HETATM    5  C   UNL     1     -10.210   8.112  64.384  1.00  0.00     5.484 A  
HETATM    6  C   UNL     1     -10.689   9.413  64.210  1.00  0.00     4.416 A  
HETATM    7  C   UNL     1      -9.811  10.498  64.143  1.00  0.00    -0.401 A  
HETATM    8  C   UNL     1      -8.432  10.230  64.181  1.00  0.00    -0.180 A  
HETATM    9  C   UNL     1      -7.951   8.921  64.327  1.00  0.00    -0.146 A  
HETATM   10  C   UNL     1      -8.842   7.855  64.448  1.00  0.00     0.533 A  
BRANCH   7  11
HETATM   11  C   UNL     1     -10.268  11.944  64.061  1.00  0.00    -0.394 C  
BRANCH  11  12
HETATM   12  CA  UNL     1     -10.534  12.739  65.358  1.00  0.00    -0.286 C  
HETATM   13  C   UNL     1     -12.004  13.204  65.416  1.00  0.00    -0.406 C  
HETATM   14  OXT UNL     1     -12.700  13.458  64.446  1.00  0.00    -0.643 OA 
HETATM   15  O   UNL     1     -12.467  13.362  66.678  1.00  0.00    -0.308 OA 
BRANCH  12  16
HETATM   16  N   UNL     1     -10.086  12.044  66.600  1.00  0.00    -0.196 N  
HETATM   17  C   UNL     1     -10.605  12.306  67.854  1.00  0.00    -0.212 C  
HETATM   18  H   UNL     1      -9.355  11.336  66.519  1.00  0.00     0.000 HD 
HETATM   19  O   UNL     1     -11.477  13.155  68.002  1.00  0.00    -0.272 OA 
BRANCH  17  20
HETATM   20  C   UNL     1     -10.170  11.462  69.024  1.00  0.00    -0.137 A  
HETATM   21  C   UNL     1     -10.843  10.248  69.288  1.00  0.00    -0.238 A  
HETATM   22 CL   UNL     1     -12.451   9.963  68.682  1.00  0.00     1.929 Cl 
HETATM   23  C   UNL     1     -10.274   9.261  70.131  1.00  0.00    -0.251 A  
HETATM   24  C   UNL     1      -9.143   9.570  70.914  1.00  0.00    -0.097 A  
HETATM   25  C   UNL     1      -8.519  10.809  70.715  1.00  0.00     3.095 A  
HETATM   26  C   UNL     1      -8.574   8.578  71.932  1.00  0.00    -0.188 C  
HETATM   27  C   UNL     1      -8.992  11.719  69.747  1.00  0.00     1.891 A  
HETATM   28  N   UNL     1      -9.283   7.287  71.943  1.00  0.00    -0.134 N  
HETATM   29 CL   UNL     1      -7.994  13.108  69.473  1.00  0.00     0.803 Cl 
HETATM   30  C   UNL     1      -9.723   6.868  70.622  1.00  0.00    -0.175 C  
HETATM   31  C   UNL     1      -9.892   6.870  73.134  1.00  0.00    -0.186 C  
HETATM   32  C   UNL     1     -10.813   7.839  70.163  1.00  0.00    -0.248 C  
HETATM   33  O   UNL     1      -9.816   7.537  74.168  1.00  0.00    -0.158 OA 
BRANCH  31  34
HETATM   34  C   UNL     1     -10.686   5.601  73.221  1.00  0.00    -0.304 A  
HETATM   35  C   UNL     1     -10.229   4.620  74.124  1.00  0.00    -0.266 A  
HETATM   36  C   UNL     1     -10.821   3.347  74.203  1.00  0.00    -0.213 A  
HETATM   37  C   UNL     1     -11.894   3.054  73.348  1.00  0.00     0.142 A  
HETATM   38  C   UNL     1     -12.713   1.919  73.102  1.00  0.00     0.324 A  
HETATM   39  C   UNL     1     -13.591   2.286  72.109  1.00  0.00     4.705 A  
HETATM   40  O   UNL     1     -13.367   3.569  71.720  1.00  0.00     7.368 OA 
HETATM   41  C   UNL     1     -12.326   4.039  72.467  1.00  0.00     1.990 A  
HETATM   42  C   UNL     1     -11.754   5.311  72.357  1.00  0.00    -0.032 A  
ENDBRANCH  31  34
ENDBRANCH  17  20
ENDBRANCH  12  16
ENDBRANCH  11  12
ENDBRANCH   7  11
ENDBRANCH   2   5
TORSDOF 6
ENDMDL
MODEL       97
REMARK 921   NORMALIZED FREE ENERGY PREDICTED BY IDOCK:   52.98 KCAL/MOL
REMARK 922        TOTAL FREE ENERGY PREDICTED BY IDOCK:   70.94 KCAL/MOL
REMARK 923 INTER-LIGAND FREE ENERGY PREDICTED BY IDOCK:   62.18 KCAL/MOL
REMARK 924 INTRA-LIGAND FREE ENERGY PREDICTED BY IDOCK:    8.76 KCAL/MOL
REMARK 927      BINDING AFFINITY PREDICTED BY RF-SCORE:    0.00 PKD
ROOT
HETATM    1  C   UNL     1     -11.010   9.518  72.242  1.00  0.00     0.877 C  
HETATM    2  S   UNL     1     -11.091   8.096  73.303  1.00  0.00     0.703 S  
HETATM    3  O   UNL     1      -9.758   7.545  73.427  1.00  0.00    -0.240 OA 
HETATM    4  O   UNL     1     -11.862   8.458  74.477  1.00  0.00     6.394 OA 
ENDROOT
BRANCH   2   5
HETATM    5  C   UNL     1     -12.028   6.901  72.380  1.00  0.00    -0.130 A  
HETATM    6  C   UNL     1     -11.333   6.062  71.505  1.00  0.00    -0.309 A  
HETATM    7  C   UNL     1     -11.977   4.998  70.869  1.00  0.00     3.267 A  
HETATM    8  C   UNL     1     -13.359   4.847  71.077  1.00  0.00     8.906 A  
HETATM    9  C   UNL     1     -14.061   5.707  71.933  1.00  0.00     1.817 A  
HETATM   10  C   UNL     1     -13.392   6.730  72.604  1.00  0.00     0.797 A  
BRANCH   7  11
HETATM   11  C   UNL     1     -11.260   3.987  69.991  1.00  0.00     4.714 C  
BRANCH  11  12
HETATM   12  CA  UNL     1     -10.018   4.416  69.181  1.00  0.00    -0.047 C  
HETATM   13  C   UNL     1     -10.064   3.819  67.760  1.00  0.00     0.424 C  
HETATM   14  OXT UNL     1     -10.596   2.762  67.459  1.00  0.00     2.528 OA 
HETATM   15  O   UNL     1      -9.402   4.563  66.844  1.00  0.00    -0.125 OA 
BRANCH  12  16
HETATM   16  N   UNL     1      -9.763   5.887  69.196  1.00  0.00    -0.135 N  
HETATM   17  C   UNL     1     -10.314   6.768  68.285  1.00  0.00    -0.187 C  
HETATM   18  H   UNL     1      -9.147   6.262  69.917  1.00  0.00     0.000 HD 
HETATM   19  O   UNL     1     -11.051   6.362  67.393  1.00  0.00    -0.363 OA 
BRANCH  17  20
HETATM   20  C   UNL     1     -10.091   8.247  68.462  1.00  0.00    -0.217 A  
HETATM   21  C   UNL     1     -10.373   9.121  67.388  1.00  0.00    -0.264 A  
HETATM   22 CL   UNL     1     -10.438   8.538  65.748  1.00  0.00     1.036 Cl 
HETATM   23  C   UNL     1     -10.520  10.516  67.596  1.00  0.00    -0.276 A  
HETATM   24  C   UNL     1     -10.148  11.088  68.829  1.00  0.00    -0.214 A  
HETATM   25  C   UNL     1      -9.786  10.227  69.875  1.00  0.00    -0.119 A  
HETATM   26  C   UNL     1     -10.169  12.603  69.053  1.00  0.00     0.127 C  
HETATM   27  C   UNL     1      -9.809   8.827  69.711  1.00  0.00    -0.186 A  
HETATM   28  N   UNL     1     -10.670  13.354  67.890  1.00  0.00    -0.242 N  
HETATM   29 CL   UNL     1      -9.543   7.900  71.149  1.00  0.00    -0.174 Cl 
HETATM   30  C   UNL     1     -11.739  12.664  67.185  1.00  0.00    -0.371 C  
HETATM   31  C   UNL     1      -9.826  14.299  67.291  1.00  0.00    -0.244 C  
HETATM   32  C   UNL     1     -11.141  11.414  66.537  1.00  0.00    -0.312 C  
HETATM   33  O   UNL     1      -8.701  14.535  67.735  1.00  0.00    -0.160 OA 
BRANCH  31  34
HETATM   34  C   UNL     1     -10.230  15.065  66.067  1.00  0.00    -0.318 A  
HETATM   35  C   UNL     1     -10.371  14.334  64.870  1.00  0.00    -0.429 A  
HETATM   36  C   UNL     1     -10.626  14.963  63.638  1.00  0.00     3.039 A  
HETATM   37  C   UNL     1     -10.737  16.361  63.611  1.00  0.00     3.811 A  
HETATM   38  C   UNL     1     -10.950  17.341  62.605  1.00  0.00    13.614 A  
HETATM   39  C   UNL     1     -10.939  18.559  63.245  1.00  0.00    14.398 A  
HETATM   40  O   UNL     1     -10.729  18.398  64.579  1.00  0.00     0.608 OA 
HETATM   41  C   UNL     1     -10.595  17.059  64.806  1.00  0.00     0.550 A  
HETATM   42  C   UNL     1     -10.331  16.466  66.045  1.00  0.00    -0.365 A  
ENDBRANCH  31  34
ENDBRANCH  17  20
ENDBRANCH  12  16
ENDBRANCH  11  12
ENDBRANCH   7  11
ENDBRANCH   2   5
TORSDOF 6
ENDMDL
MODEL       98
REMARK 921   NORMALIZED FREE ENERGY PREDICTED BY IDOCK:   67.32 KCAL/MOL
REMARK 922        TOTAL FREE ENERGY PREDICTED BY IDOCK:   90.31 KCAL/MOL
REMARK 923 INTER-LIGAND FREE ENERGY PREDICTED BY IDOCK:   90.78 KCAL/MOL
REMARK 924 INTRA-LIGAND FREE ENERGY PREDICTED BY IDOCK:   -0.46 KCAL/MOL
REMARK 927      BINDING AFFINITY PREDICTED BY RF-SCORE:    0.00 PKD
ROOT
HETATM    1  C   UNL     1     -13.769   2.941  67.563  1.00  0.00    30.339 C  
HETATM    2  S   UNL     1     -12.097   3.252  68.075  1.00  0.00    20.909 S  
HETATM    3  O   UNL     1     -12.090   3.449  69.510  1.00  0.00    13.274 OA 
HETATM    4  O   UNL     1     -11.247   2.253  67.454  1.00  0.00     6.676 OA 
ENDROOT
BRANCH   2   5
HETATM    5  C   UNL     1     -11.697   4.830  67.364  1.00  0.00     5.472 A  
HETATM    6  C   UNL     1     -10.465   4.961  66.717  1.00  0.00    -0.237 A  
HETATM    7  C   UNL     1     -10.151   6.117  66.000  1.00  0.00     0.186 A  
HETATM    8  C   UNL     1     -11.081   7.172  66.014  1.00  0.00     2.467 A  
HETATM    9  C   UNL     1     -12.304   7.051  66.688  1.00  0.00     6.115 A  
HETATM   10  C   UNL     1     -12.625   5.869  67.353  1.00  0.00     8.045 A  
BRANCH   7  11
HETATM   11  C   UNL     1      -8.879   6.282  65.187  1.00  0.00     0.119 C  
BRANCH  11  12
HETATM   12  CA  UNL     1      -7.515   6.375  65.906  1.00  0.00    -0.082 C  
HETATM   13  C   UNL     1      -6.390   5.826  65.006  1.00  0.00    -0.037 C  
HETATM   14  OXT UNL     1      -6.525   4.951  64.166  1.00  0.00    -0.035 OA 
HETATM   15  O   UNL     1      -5.180   6.377  65.263  1.00  0.00    -0.013 OA 
BRANCH  12  16
HETATM   16  N   UNL     1      -7.216   7.726  66.467  1.00  0.00    -0.084 N  
HETATM   17  C   UNL     1      -7.317   8.035  67.811  1.00  0.00    -0.093 C  
HETATM   18  H   UNL     1      -6.922   8.461  65.824  1.00  0.00     0.000 HD 
HETATM   19  O   UNL     1      -7.678   7.188  68.620  1.00  0.00    -0.114 OA 
BRANCH  17  20
HETATM   20  C   UNL     1      -6.875   9.393  68.290  1.00  0.00    -0.063 A  
HETATM   21  C   UNL     1      -7.516  10.546  67.785  1.00  0.00    -0.087 A  
HETATM   22 CL   UNL     1      -8.385  10.502  66.276  1.00  0.00    -0.146 Cl 
HETATM   23  C   UNL     1      -7.396  11.799  68.438  1.00  0.00    -0.094 A  
HETATM   24  C   UNL     1      -6.441  11.972  69.461  1.00  0.00    -0.109 A  
HETATM   25  C   UNL     1      -5.741  10.844  69.909  1.00  0.00    -0.067 A  
HETATM   26  C   UNL     1      -6.189  13.339  70.103  1.00  0.00    -0.050 C  
HETATM   27  C   UNL     1      -5.992   9.565  69.371  1.00  0.00    -0.033 A  
HETATM   28  N   UNL     1      -7.078  14.395  69.590  1.00  0.00    -0.095 N  
HETATM   29 CL   UNL     1      -5.205   8.247  70.172  1.00  0.00    -0.023 Cl 
HETATM   30  C   UNL     1      -8.420  13.916  69.298  1.00  0.00     0.478 C  
HETATM   31  C   UNL     1      -6.501  15.513  68.975  1.00  0.00    -0.123 C  
HETATM   32  C   UNL     1      -8.326  12.957  68.110  1.00  0.00    -0.168 C  
HETATM   33  O   UNL     1      -5.279  15.645  68.889  1.00  0.00    -0.098 OA 
BRANCH  31  34
HETATM   34  C   UNL     1      -7.330  16.606  68.369  1.00  0.00    -0.190 A  
HETATM   35  C   UNL     1      -8.589  16.852  68.951  1.00  0.00    -0.206 A  
HETATM   36  C   UNL     1      -9.501  17.767  68.394  1.00  0.00    -0.297 A  
HETATM   37  C   UNL     1      -9.137  18.445  67.221  1.00  0.00    -0.268 A  
HETATM   38  C   UNL     1      -9.761  19.388  66.361  1.00  0.00    -0.460 A  
HETATM   39  C   UNL     1      -8.857  19.650  65.357  1.00  0.00     0.854 A  
HETATM   40  O   UNL     1      -7.718  18.929  65.537  1.00  0.00    -0.434 OA 
HETATM   41  C   UNL     1      -7.888  18.185  66.667  1.00  0.00    -0.242 A  
HETATM   42  C   UNL     1      -6.962  17.275  67.190  1.00  0.00    -0.207 A  
ENDBRANCH  31  34
ENDBRANCH  17  20
ENDBRANCH  12  16
ENDBRANCH  11  12
ENDBRANCH   7  11
ENDBRANCH   2   5
TORSDOF 6
ENDMDL
MODEL       99
REMARK 921   NORMALIZED FREE ENERGY PREDICTED BY IDOCK:   75.63 KCAL/MOL
REMARK 922        TOTAL FREE ENERGY PREDICTED BY IDOCK:  101.54 KCAL/MOL
REMARK 923 INTER-LIGAND FREE ENERGY PREDICTED BY IDOCK:   97.16 KCAL/MOL
REMARK 924 INTRA-LIGAND FREE ENERGY PREDICTED BY IDOCK:    4.38 KCAL/MOL
REMARK 927      BINDING AFFINITY PREDICTED BY RF-SCORE:    0.00 PKD
ROOT
HETATM    1  C   UNL     1     -11.636   3.490  70.012  1.00  0.00     9.345 C  
HETATM    2  S   UNL     1     -10.403   4.614  69.404  1.00  0.00     0.370 S  
HETATM    3  O   UNL     1     -10.988   5.937  69.336  1.00  0.00    -0.342 OA 
HETATM    4  O   UNL     1      -9.178   4.376  70.146  1.00  0.00    -0.108 OA 
ENDROOT
BRANCH   2   5
HETATM    5  C   UNL     1     -10.130   4.113  67.722  1.00  0.00     0.144 A  
HETATM    6  C   UNL     1      -8.840   4.248  67.202  1.00  0.00    -0.119 A  
HETATM    7  C   UNL     1      -8.515   3.730  65.946  1.00  0.00    -0.110 A  
HETATM    8  C   UNL     1      -9.544   3.138  65.193  1.00  0.00    -0.076 A  
HETATM    9  C   UNL     1     -10.845   3.028  65.704  1.00  0.00     2.536 A  
HETATM   10  C   UNL     1     -11.139   3.501  66.982  1.00  0.00     4.900 A  
BRANCH   7  11
HETATM   11  C   UNL     1      -7.111   3.748  65.368  1.00  0.00    -0.066 C  
BRANCH  11  12
HETATM   12  CA  UNL     1      -6.646   4.951  64.518  1.00  0.00    -0.043 C  
HETATM   13  C   UNL     1      -7.149   4.816  63.066  1.00  0.00    -0.039 C  
HETATM   14  OXT UNL     1      -7.349   3.761  62.487  1.00  0.00    -0.043 OA 
HETATM   15  O   UNL     1      -7.313   6.007  62.443  1.00  0.00    -0.047 OA 
BRANCH  12  16
HETATM   16  N   UNL     1      -6.950   6.279  65.128  1.00  0.00    -0.054 N  
HETATM   17  C   UNL     1      -7.070   7.446  64.398  1.00  0.00    -0.062 C  
HETATM   18  H   UNL     1      -7.077   6.327  66.139  1.00  0.00     0.000 HD 
HETATM   19  O   UNL     1      -6.917   7.440  63.182  1.00  0.00    -0.059 OA 
BRANCH  17  20
HETATM   20  C   UNL     1      -7.501   8.711  65.095  1.00  0.00    -0.090 A  
HETATM   21  C   UNL     1      -7.888   9.828  64.322  1.00  0.00    -0.134 A  
HETATM   22 CL   UNL     1      -7.381   9.991  62.664  1.00  0.00    -0.126 Cl 
HETATM   23  C   UNL     1      -8.622  10.898  64.893  1.00  0.00    -0.029 A  
HETATM   24  C   UNL     1      -8.767  10.985  66.293  1.00  0.00    -0.178 A  
HETATM   25  C   UNL     1      -8.308   9.914  67.073  1.00  0.00    -0.121 A  
HETATM   26  C   UNL     1      -9.439  12.189  66.959  1.00  0.00    -0.201 C  
HETATM   27  C   UNL     1      -7.734   8.771  66.480  1.00  0.00    -0.099 A  
HETATM   28  N   UNL     1      -9.955  13.174  65.993  1.00  0.00    -0.282 N  
HETATM   29 CL   UNL     1      -7.413   7.451  67.555  1.00  0.00    -0.098 Cl 
HETATM   30  C   UNL     1     -10.491  12.561  64.788  1.00  0.00    -0.311 C  
HETATM   31  C   UNL     1      -9.460  14.483  66.046  1.00  0.00    -0.229 C  
HETATM   32  C   UNL     1      -9.324  11.931  64.025  1.00  0.00     0.143 C  
HETATM   33  O   UNL     1      -8.639  14.831  66.897  1.00  0.00    -0.228 OA 
BRANCH  31  34
HETATM   34  C   UNL     1      -9.883  15.535  65.064  1.00  0.00     0.076 A  
HETATM   35  C   UNL     1      -8.868  16.346  64.518  1.00  0.00     5.960 A  
HETATM   36  C   UNL     1      -9.157  17.440  63.683  1.00  0.00    15.289 A  
HETATM   37  C   UNL     1     -10.500  17.726  63.396  1.00  0.00    11.550 A  
HETATM   38  C   UNL     1     -11.188  18.722  62.652  1.00  0.00    21.550 A  
HETATM   39  C   UNL     1     -12.529  18.443  62.782  1.00  0.00    21.436 A  
HETATM   40  O   UNL     1     -12.717  17.345  63.562  1.00  0.00     5.433 OA 
HETATM   41  C   UNL     1     -11.483  16.910  63.947  1.00  0.00     2.098 A  
HETATM   42  C   UNL     1     -11.229  15.821  64.789  1.00  0.00    -0.375 A  
ENDBRANCH  31  34
ENDBRANCH  17  20
ENDBRANCH  12  16
ENDBRANCH  11  12
ENDBRANCH   7  11
ENDBRANCH   2   5
TORSDOF 6
ENDMDL
MODEL      100
REMARK 921   NORMALIZED FREE ENERGY PREDICTED BY IDOCK:   77.79 KCAL/MOL
REMARK 922        TOTAL FREE ENERGY PREDICTED BY IDOCK:  104.45 KCAL/MOL
REMARK 923 INTER-LIGAND FREE ENERGY PREDICTED BY IDOCK:   99.35 KCAL/MOL
REMARK 924 INTRA-LIGAND FREE ENERGY PREDICTED BY IDOCK:    5.10 KCAL/MOL
REMARK 927      BINDING AFFINITY PREDICTED BY RF-SCORE:    0.00 PKD
ROOT
HETATM    1  C   UNL     1     -11.651   3.503  70.049  1.00  0.00     9.345 C  
HETATM    2  S   UNL     1     -10.523   4.874  69.985  1.00  0.00     0.132 S  
HETATM    3  O   UNL     1     -11.263   6.085  70.272  1.00  0.00    -0.347 OA 
HETATM    4  O   UNL     1      -9.345   4.518  70.753  1.00  0.00    -0.129 OA 
ENDROOT
BRANCH   2   5
HETATM    5  C   UNL     1     -10.049   4.985  68.276  1.00  0.00    -0.103 A  
HETATM    6  C   UNL     1      -8.752   5.417  67.986  1.00  0.00    -0.106 A  
HETATM    7  C   UNL     1      -8.259   5.377  66.680  1.00  0.00    -0.108 A  
HETATM    8  C   UNL     1      -9.133   4.961  65.660  1.00  0.00    -0.151 A  
HETATM    9  C   UNL     1     -10.442   4.555  65.948  1.00  0.00    -0.262 A  
HETATM   10  C   UNL     1     -10.902   4.549  67.265  1.00  0.00     1.057 A  
BRANCH   7  11
HETATM   11  C   UNL     1      -6.829   5.730  66.311  1.00  0.00    -0.058 C  
BRANCH  11  12
HETATM   12  CA  UNL     1      -6.412   7.212  66.184  1.00  0.00    -0.051 C  
HETATM   13  C   UNL     1      -6.955   7.817  64.874  1.00  0.00    -0.055 C  
HETATM   14  OXT UNL     1      -7.152   7.196  63.841  1.00  0.00    -0.054 OA 
HETATM   15  O   UNL     1      -7.160   9.153  64.945  1.00  0.00    -0.092 OA 
BRANCH  12  16
HETATM   16  N   UNL     1      -6.724   8.035  67.389  1.00  0.00    -0.067 N  
HETATM   17  C   UNL     1      -6.919   9.403  67.351  1.00  0.00    -0.085 C  
HETATM   18  H   UNL     1      -6.796   7.563  68.290  1.00  0.00     0.000 HD 
HETATM   19  O   UNL     1      -6.831  10.016  66.293  1.00  0.00    -0.089 OA 
BRANCH  17  20
HETATM   20  C   UNL     1      -7.350  10.122  68.603  1.00  0.00    -0.082 A  
HETATM   21  C   UNL     1      -7.838  11.444  68.507  1.00  0.00    -0.140 A  
HETATM   22 CL   UNL     1      -7.461  12.443  67.131  1.00  0.00    -0.131 Cl 
HETATM   23  C   UNL     1      -8.572  12.035  69.566  1.00  0.00     1.282 A  
HETATM   24  C   UNL     1      -8.619  11.406  70.828  1.00  0.00     5.637 A  
HETATM   25  C   UNL     1      -8.060  10.127  70.950  1.00  0.00     1.227 A  
HETATM   26  C   UNL     1      -9.290  12.070  72.033  1.00  0.00    19.035 C  
HETATM   27  C   UNL     1      -7.483   9.471  69.843  1.00  0.00    -0.113 A  
HETATM   28  N   UNL     1      -9.915  13.364  71.710  1.00  0.00     9.358 N  
HETATM   29 CL   UNL     1      -7.030   7.820  70.101  1.00  0.00    -0.049 Cl 
HETATM   30  C   UNL     1     -10.511  13.391  70.383  1.00  0.00     2.310 C  
HETATM   31  C   UNL     1      -9.473  14.507  72.387  1.00  0.00     6.966 C  
HETATM   32  C   UNL     1      -9.378  13.308  69.360  1.00  0.00     1.050 C  
HETATM   33  O   UNL     1      -8.607  14.446  73.263  1.00  0.00     6.289 OA 
BRANCH  31  34
HETATM   34  C   UNL     1     -10.009  15.874  72.080  1.00  0.00     3.917 A  
HETATM   35  C   UNL     1     -10.018  16.268  70.727  1.00  0.00     1.560 A  
HETATM   36  C   UNL     1     -10.383  17.568  70.332  1.00  0.00     1.289 A  
HETATM   37  C   UNL     1     -10.743  18.492  71.325  1.00  0.00     3.000 A  
HETATM   38  C   UNL     1     -11.129  19.859  71.344  1.00  0.00     5.804 A  
HETATM   39  C   UNL     1     -11.335  20.182  72.666  1.00  0.00    10.393 A  
HETATM   40  O   UNL     1     -11.097  19.109  73.465  1.00  0.00     1.989 OA 
HETATM   41  C   UNL     1     -10.726  18.077  72.652  1.00  0.00     3.591 A  
HETATM   42  C   UNL     1     -10.358  16.796  73.079  1.00  0.00     6.398 A  
ENDBRANCH  31  34
ENDBRANCH  17  20
ENDBRANCH  12  16
ENDBRANCH  11  12
ENDBRANCH   7  11
ENDBRANCH   2   5
TORSDOF 6
ENDMDL
