MODEL        1
REMARK 921   NORMALIZED FREE ENERGY PREDICTED BY IDOCK:   -8.90 KCAL/MOL
REMARK 922        TOTAL FREE ENERGY PREDICTED BY IDOCK:  -12.01 KCAL/MOL
REMARK 923 INTER-LIGAND FREE ENERGY PREDICTED BY IDOCK:  -11.51 KCAL/MOL
REMARK 924 INTRA-LIGAND FREE ENERGY PREDICTED BY IDOCK:   -0.50 KCAL/MOL
REMARK 927      BINDING AFFINITY PREDICTED BY RF-SCORE:    0.00 PKD
ROOT
HETATM    1  C   UNL     1     -12.170  16.054  74.170  1.00  0.00    -0.631 C  
HETATM    2  C   UNL     1     -12.735  14.846  73.440  1.00  0.00    -0.636 C  
HETATM    3  C   UNL     1     -13.219  13.810  72.813  1.00  0.00    -0.492 C  
ENDROOT
BRANCH   3   4
HETATM    4  C   UNL     1     -13.783  12.602  72.083  1.00  0.00    -0.312 C  
BRANCH   4   5
HETATM    5  N   UNL     1     -12.714  12.148  71.113  1.00  0.00    -0.322 NA 
HETATM    6  C   UNL     1     -12.100  10.872  71.058  1.00  0.00    -0.320 A  
HETATM    7  N   UNL     1     -11.322  10.779  69.997  1.00  0.00    -0.303 NA 
HETATM    8  N   UNL     1     -10.695  12.286  68.221  1.00  0.00    -0.213 N  
HETATM    9  C   UNL     1     -11.343  11.991  69.404  1.00  0.00    -0.251 A  
HETATM   10  O   UNL     1     -10.661  13.714  66.440  1.00  0.00    -0.279 OA 
HETATM   11  C   UNL     1     -12.132  12.894  70.066  1.00  0.00    -0.286 A  
HETATM   12  C   UNL     1      -9.909  11.279  67.533  1.00  0.00    -0.178 C  
HETATM   13  C   UNL     1     -12.199  14.261  69.614  1.00  0.00    -0.323 C  
HETATM   14  C   UNL     1     -10.898  13.525  67.638  1.00  0.00    -0.260 C  
HETATM   15  O   UNL     1     -12.902  15.102  70.164  1.00  0.00    -0.268 OA 
HETATM   16  N   UNL     1     -11.420  14.531  68.466  1.00  0.00    -0.285 N  
BRANCH   6  17
HETATM   17  N   UNL     1     -12.329   9.811  71.890  1.00  0.00    -0.368 NA 
HETATM   18  N   UNL     1     -11.609   7.387  69.941  1.00  0.00    -0.493 NA 
HETATM   19  C   UNL     1     -13.139   6.981  71.832  1.00  0.00    -0.266 C  
HETATM   20  C   UNL     1     -11.327   8.742  72.041  1.00  0.00    -0.371 C  
HETATM   21  C   UNL     1     -14.133   8.076  71.472  1.00  0.00    -0.475 C  
HETATM   22  C   UNL     1     -13.742   9.414  72.105  1.00  0.00    -0.420 C  
HETATM   23  C   UNL     1     -11.726   7.380  71.406  1.00  0.00    -0.288 C  
HETATM   24  H1  UNL     1     -10.666   7.653  69.656  1.00  0.00     0.000 HD 
HETATM   25  H2  UNL     1     -12.317   7.980  69.508  1.00  0.00     0.000 HD 
ENDBRANCH   6  17
BRANCH  16  26
HETATM   26  C   UNL     1     -11.388  15.895  67.881  1.00  0.00    -0.252 C  
BRANCH  26  27
HETATM   27  C   UNL     1     -10.143  16.766  68.175  1.00  0.00    -0.282 A  
HETATM   28  N   UNL     1     -10.131  18.039  67.705  1.00  0.00    -0.335 NA 
HETATM   29  C   UNL     1      -8.982  18.749  67.776  1.00  0.00    -0.286 A  
HETATM   30  C   UNL     1      -7.800  18.210  68.303  1.00  0.00    -0.301 A  
HETATM   31  C   UNL     1      -6.600  18.992  68.281  1.00  0.00    -0.265 A  
HETATM   32  C   UNL     1      -7.923  16.908  68.806  1.00  0.00    -0.254 A  
HETATM   33  C   UNL     1      -6.577  20.286  67.768  1.00  0.00    -0.298 A  
HETATM   34  C   UNL     1      -6.750  16.139  69.347  1.00  0.00    -0.205 C  
HETATM   35  N   UNL     1      -9.077  16.202  68.770  1.00  0.00    -0.217 NA 
HETATM   36  C   UNL     1      -7.753  20.828  67.278  1.00  0.00    -0.332 A  
HETATM   37  C   UNL     1      -8.929  20.059  67.289  1.00  0.00    -0.440 A  
ENDBRANCH  26  27
ENDBRANCH  16  26
ENDBRANCH   4   5
ENDBRANCH   3   4
TORSDOF 5
ENDMDL
MODEL        2
REMARK 921   NORMALIZED FREE ENERGY PREDICTED BY IDOCK:   -8.70 KCAL/MOL
REMARK 922        TOTAL FREE ENERGY PREDICTED BY IDOCK:  -11.75 KCAL/MOL
REMARK 923 INTER-LIGAND FREE ENERGY PREDICTED BY IDOCK:  -11.12 KCAL/MOL
REMARK 924 INTRA-LIGAND FREE ENERGY PREDICTED BY IDOCK:   -0.63 KCAL/MOL
REMARK 927      BINDING AFFINITY PREDICTED BY RF-SCORE:    0.00 PKD
ROOT
HETATM    1  C   UNL     1     -12.081  15.953  74.088  1.00  0.00    -0.520 C  
HETATM    2  C   UNL     1     -12.645  14.754  73.342  1.00  0.00    -0.556 C  
HETATM    3  C   UNL     1     -13.129  13.726  72.701  1.00  0.00    -0.489 C  
ENDROOT
BRANCH   3   4
HETATM    4  C   UNL     1     -13.692  12.528  71.956  1.00  0.00    -0.158 C  
BRANCH   4   5
HETATM    5  N   UNL     1     -12.628  12.095  70.970  1.00  0.00    -0.330 NA 
HETATM    6  C   UNL     1     -11.970  10.841  70.922  1.00  0.00    -0.333 A  
HETATM    7  N   UNL     1     -11.212  10.758  69.846  1.00  0.00    -0.289 NA 
HETATM    8  N   UNL     1     -10.677  12.257  68.033  1.00  0.00    -0.211 N  
HETATM    9  C   UNL     1     -11.289  11.958  69.234  1.00  0.00    -0.277 A  
HETATM   10  O   UNL     1     -10.733  13.655  66.228  1.00  0.00    -0.282 OA 
HETATM   11  C   UNL     1     -12.096  12.844  69.899  1.00  0.00    -0.265 A  
HETATM   12  C   UNL     1      -9.870  11.266  67.344  1.00  0.00    -0.181 C  
HETATM   13  C   UNL     1     -12.222  14.200  69.426  1.00  0.00    -0.287 C  
HETATM   14  C   UNL     1     -10.937  13.477  67.434  1.00  0.00    -0.272 C  
HETATM   15  O   UNL     1     -12.942  15.025  69.978  1.00  0.00    -0.150 OA 
HETATM   16  N   UNL     1     -11.477  14.478  68.257  1.00  0.00    -0.295 N  
BRANCH   6  17
HETATM   17  N   UNL     1     -12.143   9.788  71.776  1.00  0.00    -0.385 NA 
HETATM   18  N   UNL     1     -11.541   7.348  69.806  1.00  0.00    -0.487 NA 
HETATM   19  C   UNL     1     -12.947   6.955  71.794  1.00  0.00    -0.326 C  
HETATM   20  C   UNL     1     -11.130   8.722  71.873  1.00  0.00    -0.364 C  
HETATM   21  C   UNL     1     -13.965   8.044  71.488  1.00  0.00    -0.433 C  
HETATM   22  C   UNL     1     -13.538   9.389  72.083  1.00  0.00    -0.457 C  
HETATM   23  C   UNL     1     -11.565   7.353  71.276  1.00  0.00    -0.280 C  
HETATM   24  H1  UNL     1     -10.619   7.614  69.460  1.00  0.00     0.000 HD 
HETATM   25  H2  UNL     1     -12.277   7.936  69.414  1.00  0.00     0.000 HD 
ENDBRANCH   6  17
BRANCH  16  26
HETATM   26  C   UNL     1     -11.507  15.832  67.649  1.00  0.00    -0.119 C  
BRANCH  26  27
HETATM   27  C   UNL     1     -10.254  16.721  67.834  1.00  0.00    -0.300 A  
HETATM   28  N   UNL     1      -9.169  16.176  68.440  1.00  0.00    -0.197 NA 
HETATM   29  C   UNL     1      -8.143  16.984  68.790  1.00  0.00    -0.250 A  
HETATM   30  C   UNL     1      -8.167  18.367  68.561  1.00  0.00    -0.338 A  
HETATM   31  C   UNL     1      -7.078  19.175  69.021  1.00  0.00    -0.377 A  
HETATM   32  C   UNL     1      -9.305  18.829  67.886  1.00  0.00    -0.298 A  
HETATM   33  C   UNL     1      -5.980  18.622  69.676  1.00  0.00    -0.268 A  
HETATM   34  C   UNL     1      -9.543  20.288  67.613  1.00  0.00    -0.530 C  
HETATM   35  N   UNL     1     -10.323  18.023  67.503  1.00  0.00    -0.369 NA 
HETATM   36  C   UNL     1      -5.943  17.252  69.872  1.00  0.00    -0.230 A  
HETATM   37  C   UNL     1      -7.015  16.459  69.430  1.00  0.00    -0.210 A  
ENDBRANCH  26  27
ENDBRANCH  16  26
ENDBRANCH   4   5
ENDBRANCH   3   4
TORSDOF 5
ENDMDL
MODEL        3
REMARK 921   NORMALIZED FREE ENERGY PREDICTED BY IDOCK:   -8.51 KCAL/MOL
REMARK 922        TOTAL FREE ENERGY PREDICTED BY IDOCK:  -11.50 KCAL/MOL
REMARK 923 INTER-LIGAND FREE ENERGY PREDICTED BY IDOCK:  -10.60 KCAL/MOL
REMARK 924 INTRA-LIGAND FREE ENERGY PREDICTED BY IDOCK:   -0.90 KCAL/MOL
REMARK 927      BINDING AFFINITY PREDICTED BY RF-SCORE:    0.00 PKD
ROOT
HETATM    1  C   UNL     1      -9.033  10.791  64.383  1.00  0.00    -0.176 C  
HETATM    2  C   UNL     1      -9.758  12.111  64.592  1.00  0.00    -0.059 C  
HETATM    3  C   UNL     1     -10.379  13.243  64.771  1.00  0.00    -0.381 C  
ENDROOT
BRANCH   3   4
HETATM    4  C   UNL     1     -11.105  14.563  64.980  1.00  0.00    -0.387 C  
BRANCH   4   5
HETATM    5  N   UNL     1     -10.891  14.946  66.429  1.00  0.00    -0.320 NA 
HETATM    6  C   UNL     1     -10.304  16.140  66.917  1.00  0.00    -0.297 A  
HETATM    7  N   UNL     1     -10.414  16.206  68.230  1.00  0.00    -0.265 NA 
HETATM    8  N   UNL     1     -11.317  14.750  69.927  1.00  0.00    -0.264 N  
HETATM    9  C   UNL     1     -10.980  15.046  68.621  1.00  0.00    -0.257 A  
HETATM   10  O   UNL     1     -12.654  13.444  71.240  1.00  0.00    -0.354 OA 
HETATM   11  C   UNL     1     -11.248  14.203  67.574  1.00  0.00    -0.306 A  
HETATM   12  C   UNL     1     -11.055  15.697  70.995  1.00  0.00    -0.318 C  
HETATM   13  C   UNL     1     -11.775  12.886  67.825  1.00  0.00    -0.362 C  
HETATM   14  C   UNL     1     -12.015  13.584  70.191  1.00  0.00    -0.329 C  
HETATM   15  O   UNL     1     -12.045  12.102  66.922  1.00  0.00    -0.600 OA 
HETATM   16  N   UNL     1     -11.989  12.597  69.192  1.00  0.00    -0.276 N  
BRANCH   6  17
HETATM   17  N   UNL     1      -9.785  17.165  66.175  1.00  0.00    -0.426 NA 
HETATM   18  N   UNL     1      -8.137  18.722  68.423  1.00  0.00    -0.329 NA 
HETATM   19  C   UNL     1      -8.895  19.960  66.430  1.00  0.00    -0.420 C  
HETATM   20  C   UNL     1      -8.350  17.491  66.240  1.00  0.00    -0.224 C  
HETATM   21  C   UNL     1     -10.368  19.604  66.571  1.00  0.00    -0.601 C  
HETATM   22  C   UNL     1     -10.695  18.292  65.852  1.00  0.00    -0.144 C  
HETATM   23  C   UNL     1      -8.017  18.827  66.963  1.00  0.00    -0.245 C  
HETATM   24  H1  UNL     1      -7.552  17.966  68.779  1.00  0.00     0.000 HD 
HETATM   25  H2  UNL     1      -9.109  18.618  68.717  1.00  0.00     0.000 HD 
ENDBRANCH   6  17
BRANCH  16  26
HETATM   26  C   UNL     1     -12.531  11.280  69.609  1.00  0.00    -0.094 C  
BRANCH  26  27
HETATM   27  C   UNL     1     -11.528  10.243  70.169  1.00  0.00    -0.309 A  
HETATM   28  N   UNL     1     -11.951   9.416  71.158  1.00  0.00    -0.317 NA 
HETATM   29  C   UNL     1     -11.043   8.644  71.795  1.00  0.00    -0.326 A  
HETATM   30  C   UNL     1      -9.677   8.679  71.481  1.00  0.00    -0.333 A  
HETATM   31  C   UNL     1      -8.758   7.890  72.244  1.00  0.00    -0.198 A  
HETATM   32  C   UNL     1      -9.343   9.527  70.415  1.00  0.00    -0.257 A  
HETATM   33  C   UNL     1      -9.186   7.066  73.283  1.00  0.00    -0.173 A  
HETATM   34  C   UNL     1      -7.923   9.750  69.979  1.00  0.00    -0.196 C  
HETATM   35  N   UNL     1     -10.251  10.279  69.749  1.00  0.00    -0.238 NA 
HETATM   36  C   UNL     1     -10.540   7.008  73.571  1.00  0.00    -0.405 A  
HETATM   37  C   UNL     1     -11.441   7.790  72.829  1.00  0.00    -0.415 A  
ENDBRANCH  26  27
ENDBRANCH  16  26
ENDBRANCH   4   5
ENDBRANCH   3   4
TORSDOF 5
ENDMDL
MODEL        4
REMARK 921   NORMALIZED FREE ENERGY PREDICTED BY IDOCK:   -8.40 KCAL/MOL
REMARK 922        TOTAL FREE ENERGY PREDICTED BY IDOCK:  -11.36 KCAL/MOL
REMARK 923 INTER-LIGAND FREE ENERGY PREDICTED BY IDOCK:  -10.43 KCAL/MOL
REMARK 924 INTRA-LIGAND FREE ENERGY PREDICTED BY IDOCK:   -0.93 KCAL/MOL
REMARK 927      BINDING AFFINITY PREDICTED BY RF-SCORE:    0.00 PKD
ROOT
HETATM    1  C   UNL     1     -10.870   5.960  66.461  1.00  0.00    -0.214 C  
HETATM    2  C   UNL     1     -10.294   7.207  67.113  1.00  0.00    -0.359 C  
HETATM    3  C   UNL     1      -9.800   8.277  67.672  1.00  0.00    -0.218 C  
ENDROOT
BRANCH   3   4
HETATM    4  C   UNL     1      -9.224   9.524  68.322  1.00  0.00    -0.130 C  
BRANCH   4   5
HETATM    5  N   UNL     1     -10.285  10.043  69.269  1.00  0.00    -0.200 NA 
HETATM    6  C   UNL     1     -10.824   9.373  70.396  1.00  0.00    -0.269 A  
HETATM    7  N   UNL     1     -11.617  10.178  71.076  1.00  0.00    -0.372 NA 
HETATM    8  N   UNL     1     -12.368  12.453  70.790  1.00  0.00    -0.356 N  
HETATM    9  C   UNL     1     -11.679  11.330  70.376  1.00  0.00    -0.304 A  
HETATM   10  O   UNL     1     -12.522  14.719  70.552  1.00  0.00    -0.315 OA 
HETATM   11  C   UNL     1     -10.931  11.297  69.229  1.00  0.00    -0.243 A  
HETATM   12  C   UNL     1     -13.108  12.451  72.039  1.00  0.00    -0.365 C  
HETATM   13  C   UNL     1     -10.953  12.416  68.320  1.00  0.00    -0.236 C  
HETATM   14  C   UNL     1     -12.250  13.620  70.056  1.00  0.00    -0.329 C  
HETATM   15  O   UNL     1     -10.290  12.440  67.289  1.00  0.00    -0.214 OA 
HETATM   16  N   UNL     1     -11.771  13.489  68.742  1.00  0.00    -0.316 N  
BRANCH   6  17
HETATM   17  N   UNL     1     -10.516   8.114  70.829  1.00  0.00    -0.200 NA 
HETATM   18  N   UNL     1     -13.227   7.347  72.333  1.00  0.00    -0.422 NA 
HETATM   19  C   UNL     1     -11.138   6.216  72.993  1.00  0.00    -0.250 C  
HETATM   20  C   UNL     1     -11.441   6.990  70.598  1.00  0.00    -0.324 C  
HETATM   21  C   UNL     1     -10.352   7.486  73.283  1.00  0.00    -0.412 C  
HETATM   22  C   UNL     1      -9.647   8.006  72.027  1.00  0.00    -0.201 C  
HETATM   23  C   UNL     1     -12.151   6.457  71.874  1.00  0.00    -0.310 C  
HETATM   24  H1  UNL     1     -13.903   7.508  71.586  1.00  0.00     0.000 HD 
HETATM   25  H2  UNL     1     -12.860   8.222  72.706  1.00  0.00     0.000 HD 
ENDBRANCH   6  17
BRANCH  16  26
HETATM   26  C   UNL     1     -11.895  14.714  67.913  1.00  0.00    -0.320 C  
BRANCH  26  27
HETATM   27  C   UNL     1     -10.877  15.851  68.169  1.00  0.00    -0.317 A  
HETATM   28  N   UNL     1     -11.203  17.103  67.758  1.00  0.00    -0.056 NA 
HETATM   29  C   UNL     1     -10.256  18.067  67.789  1.00  0.00    -0.378 A  
HETATM   30  C   UNL     1      -8.945  17.815  68.217  1.00  0.00    -0.277 A  
HETATM   31  C   UNL     1      -7.971  18.864  68.156  1.00  0.00    -0.330 A  
HETATM   32  C   UNL     1      -8.716  16.508  68.667  1.00  0.00    -0.244 A  
HETATM   33  C   UNL     1      -8.295  20.140  67.701  1.00  0.00    -0.348 A  
HETATM   34  C   UNL     1      -7.358  16.030  69.099  1.00  0.00    -0.209 C  
HETATM   35  N   UNL     1      -9.667  15.545  68.670  1.00  0.00    -0.201 NA 
HETATM   36  C   UNL     1      -9.598  20.395  67.310  1.00  0.00    -0.592 A  
HETATM   37  C   UNL     1     -10.552  19.365  67.360  1.00  0.00    -0.603 A  
ENDBRANCH  26  27
ENDBRANCH  16  26
ENDBRANCH   4   5
ENDBRANCH   3   4
TORSDOF 5
ENDMDL
MODEL        5
REMARK 921   NORMALIZED FREE ENERGY PREDICTED BY IDOCK:   -8.38 KCAL/MOL
REMARK 922        TOTAL FREE ENERGY PREDICTED BY IDOCK:  -11.34 KCAL/MOL
REMARK 923 INTER-LIGAND FREE ENERGY PREDICTED BY IDOCK:  -10.52 KCAL/MOL
REMARK 924 INTRA-LIGAND FREE ENERGY PREDICTED BY IDOCK:   -0.82 KCAL/MOL
REMARK 927      BINDING AFFINITY PREDICTED BY RF-SCORE:    0.00 PKD
ROOT
HETATM    1  C   UNL     1     -12.428  15.557  73.515  1.00  0.00    -0.674 C  
HETATM    2  C   UNL     1     -12.802  14.225  72.883  1.00  0.00    -0.482 C  
HETATM    3  C   UNL     1     -13.122  13.083  72.340  1.00  0.00    -0.380 C  
ENDROOT
BRANCH   3   4
HETATM    4  C   UNL     1     -13.496  11.752  71.709  1.00  0.00    -0.093 C  
BRANCH   4   5
HETATM    5  N   UNL     1     -12.325  11.345  70.840  1.00  0.00    -0.392 NA 
HETATM    6  C   UNL     1     -11.537  10.174  70.966  1.00  0.00    -0.376 A  
HETATM    7  N   UNL     1     -10.701  10.069  69.952  1.00  0.00    -0.265 NA 
HETATM    8  N   UNL     1     -10.199  11.428  68.023  1.00  0.00    -0.180 N  
HETATM    9  C   UNL     1     -10.860  11.185  69.212  1.00  0.00    -0.229 A  
HETATM   10  O   UNL     1     -10.273  12.623  66.079  1.00  0.00    -0.260 OA 
HETATM   11  C   UNL     1     -11.800  12.037  69.728  1.00  0.00    -0.331 A  
HETATM   12  C   UNL     1      -9.246  10.470  67.494  1.00  0.00    -0.142 C  
HETATM   13  C   UNL     1     -12.033  13.316  69.106  1.00  0.00    -0.296 C  
HETATM   14  C   UNL     1     -10.542  12.546  67.283  1.00  0.00    -0.227 C  
HETATM   15  O   UNL     1     -12.874  14.107  69.522  1.00  0.00     0.029 OA 
HETATM   16  N   UNL     1     -11.241  13.558  67.961  1.00  0.00    -0.259 N  
BRANCH   6  17
HETATM   17  N   UNL     1     -11.659   9.198  71.917  1.00  0.00    -0.370 NA 
HETATM   18  N   UNL     1     -10.073   6.817  70.500  1.00  0.00    -0.183 NA 
HETATM   19  C   UNL     1     -11.775   6.270  72.198  1.00  0.00    -0.368 C  
HETATM   20  C   UNL     1     -10.480   8.442  72.375  1.00  0.00    -0.332 C  
HETATM   21  C   UNL     1     -12.915   7.027  71.532  1.00  0.00    -0.411 C  
HETATM   22  C   UNL     1     -12.958   8.487  71.992  1.00  0.00    -0.371 C  
HETATM   23  C   UNL     1     -10.439   6.957  71.916  1.00  0.00    -0.201 C  
HETATM   24  H1  UNL     1      -9.182   7.275  70.311  1.00  0.00     0.000 HD 
HETATM   25  H2  UNL     1     -10.811   7.156  69.882  1.00  0.00     0.000 HD 
ENDBRANCH   6  17
BRANCH  16  26
HETATM   26  C   UNL     1     -11.370  14.832  67.210  1.00  0.00    -0.357 C  
BRANCH  26  27
HETATM   27  C   UNL     1     -10.484  16.017  67.664  1.00  0.00    -0.292 A  
HETATM   28  N   UNL     1     -10.832  17.264  67.258  1.00  0.00    -0.200 NA 
HETATM   29  C   UNL     1      -9.970  18.283  67.473  1.00  0.00    -0.335 A  
HETATM   30  C   UNL     1      -8.725  18.094  68.089  1.00  0.00    -0.285 A  
HETATM   31  C   UNL     1      -7.829  19.204  68.221  1.00  0.00    -0.351 A  
HETATM   32  C   UNL     1      -8.476  16.783  68.517  1.00  0.00    -0.244 A  
HETATM   33  C   UNL     1      -8.169  20.478  67.772  1.00  0.00    -0.173 A  
HETATM   34  C   UNL     1      -7.169  16.371  69.134  1.00  0.00    -0.222 C  
HETATM   35  N   UNL     1      -9.347  15.762  68.335  1.00  0.00    -0.192 NA 
HETATM   36  C   UNL     1      -9.413  20.669  67.194  1.00  0.00    -0.505 A  
HETATM   37  C   UNL     1     -10.288  19.580  67.055  1.00  0.00    -0.568 A  
ENDBRANCH  26  27
ENDBRANCH  16  26
ENDBRANCH   4   5
ENDBRANCH   3   4
TORSDOF 5
ENDMDL
MODEL        6
REMARK 921   NORMALIZED FREE ENERGY PREDICTED BY IDOCK:   -8.36 KCAL/MOL
REMARK 922        TOTAL FREE ENERGY PREDICTED BY IDOCK:  -11.31 KCAL/MOL
REMARK 923 INTER-LIGAND FREE ENERGY PREDICTED BY IDOCK:  -10.32 KCAL/MOL
REMARK 924 INTRA-LIGAND FREE ENERGY PREDICTED BY IDOCK:   -0.99 KCAL/MOL
REMARK 927      BINDING AFFINITY PREDICTED BY RF-SCORE:    0.00 PKD
ROOT
HETATM    1  C   UNL     1     -14.402  15.325  72.168  1.00  0.00    -0.651 C  
HETATM    2  C   UNL     1     -13.022  15.538  71.567  1.00  0.00    -0.545 C  
HETATM    3  C   UNL     1     -11.838  15.719  71.052  1.00  0.00    -0.460 C  
ENDROOT
BRANCH   3   4
HETATM    4  C   UNL     1     -10.458  15.932  70.451  1.00  0.00    -0.083 C  
BRANCH   4   5
HETATM    5  N   UNL     1     -10.571  15.589  68.981  1.00  0.00    -0.234 NA 
HETATM    6  C   UNL     1     -10.371  16.463  67.884  1.00  0.00    -0.286 A  
HETATM    7  N   UNL     1     -10.405  15.794  66.748  1.00  0.00    -0.287 NA 
HETATM    8  N   UNL     1     -10.784  13.487  66.153  1.00  0.00    -0.286 N  
HETATM    9  C   UNL     1     -10.710  14.519  67.068  1.00  0.00    -0.291 A  
HETATM   10  O   UNL     1     -10.683  11.218  65.916  1.00  0.00    -0.265 OA 
HETATM   11  C   UNL     1     -10.881  14.334  68.415  1.00  0.00    -0.253 A  
HETATM   12  C   UNL     1     -10.548  13.727  64.741  1.00  0.00    -0.428 C  
HETATM   13  C   UNL     1     -11.294  13.049  68.919  1.00  0.00    -0.287 C  
HETATM   14  C   UNL     1     -10.972  12.196  66.615  1.00  0.00    -0.282 C  
HETATM   15  O   UNL     1     -11.446  12.830  70.116  1.00  0.00    -0.116 OA 
HETATM   16  N   UNL     1     -11.468  12.062  67.922  1.00  0.00    -0.307 N  
BRANCH   6  17
HETATM   17  N   UNL     1     -10.067  17.795  67.937  1.00  0.00    -0.324 NA 
HETATM   18  N   UNL     1     -10.857  18.683  64.974  1.00  0.00    -0.349 NA 
HETATM   19  C   UNL     1      -9.203  20.023  66.217  1.00  0.00    -0.426 C  
HETATM   20  C   UNL     1     -11.035  18.807  67.480  1.00  0.00    -0.207 C  
HETATM   21  C   UNL     1      -8.257  18.870  66.520  1.00  0.00    -0.306 C  
HETATM   22  C   UNL     1      -8.635  18.166  67.826  1.00  0.00    -0.255 C  
HETATM   23  C   UNL     1     -10.648  19.528  66.158  1.00  0.00    -0.487 C  
HETATM   24  H1  UNL     1     -11.821  18.352  64.933  1.00  0.00     0.000 HD 
HETATM   25  H2  UNL     1     -10.191  17.911  64.937  1.00  0.00     0.000 HD 
ENDBRANCH   6  17
BRANCH  16  26
HETATM   26  C   UNL     1     -11.890  10.687  68.287  1.00  0.00     0.088 C  
BRANCH  26  27
HETATM   27  C   UNL     1     -10.980   9.899  69.261  1.00  0.00    -0.211 A  
HETATM   28  N   UNL     1     -11.568   9.247  70.295  1.00  0.00    -0.177 NA 
HETATM   29  C   UNL     1     -10.785   8.723  71.264  1.00  0.00    -0.269 A  
HETATM   30  C   UNL     1      -9.388   8.842  71.246  1.00  0.00    -0.336 A  
HETATM   31  C   UNL     1      -8.623   8.327  72.341  1.00  0.00    -0.270 A  
HETATM   32  C   UNL     1      -8.871   9.489  70.115  1.00  0.00    -0.235 A  
HETATM   33  C   UNL     1      -9.228   7.688  73.421  1.00  0.00    -0.311 A  
HETATM   34  C   UNL     1      -7.405   9.773  69.950  1.00  0.00    -0.134 C  
HETATM   35  N   UNL     1      -9.645   9.988  69.123  1.00  0.00    -0.197 NA 
HETATM   36  C   UNL     1     -10.604   7.542  73.422  1.00  0.00    -0.409 A  
HETATM   37  C   UNL     1     -11.357   8.056  72.353  1.00  0.00    -0.443 A  
ENDBRANCH  26  27
ENDBRANCH  16  26
ENDBRANCH   4   5
ENDBRANCH   3   4
TORSDOF 5
ENDMDL
MODEL        7
REMARK 921   NORMALIZED FREE ENERGY PREDICTED BY IDOCK:   -8.36 KCAL/MOL
REMARK 922        TOTAL FREE ENERGY PREDICTED BY IDOCK:  -11.31 KCAL/MOL
REMARK 923 INTER-LIGAND FREE ENERGY PREDICTED BY IDOCK:  -10.07 KCAL/MOL
REMARK 924 INTRA-LIGAND FREE ENERGY PREDICTED BY IDOCK:   -1.23 KCAL/MOL
REMARK 927      BINDING AFFINITY PREDICTED BY RF-SCORE:    0.00 PKD
ROOT
HETATM    1  C   UNL     1      -5.598  11.800  69.818  1.00  0.00    -0.091 C  
HETATM    2  C   UNL     1      -6.854  11.088  69.343  1.00  0.00    -0.119 C  
HETATM    3  C   UNL     1      -7.932  10.477  68.936  1.00  0.00    -0.128 C  
ENDROOT
BRANCH   3   4
HETATM    4  C   UNL     1      -9.188   9.765  68.462  1.00  0.00    -0.134 C  
BRANCH   4   5
HETATM    5  N   UNL     1     -10.314  10.239  69.357  1.00  0.00    -0.221 NA 
HETATM    6  C   UNL     1     -10.920   9.520  70.417  1.00  0.00    -0.278 A  
HETATM    7  N   UNL     1     -11.763  10.291  71.075  1.00  0.00    -0.369 NA 
HETATM    8  N   UNL     1     -12.514  12.571  70.834  1.00  0.00    -0.336 N  
HETATM    9  C   UNL     1     -11.790  11.470  70.421  1.00  0.00    -0.320 A  
HETATM   10  O   UNL     1     -12.673  14.843  70.679  1.00  0.00    -0.340 OA 
HETATM   11  C   UNL     1     -10.967  11.489  69.325  1.00  0.00    -0.208 A  
HETATM   12  C   UNL     1     -13.335  12.513  72.030  1.00  0.00    -0.426 C  
HETATM   13  C   UNL     1     -10.940  12.645  68.464  1.00  0.00    -0.261 C  
HETATM   14  C   UNL     1     -12.359  13.767  70.157  1.00  0.00    -0.323 C  
HETATM   15  O   UNL     1     -10.210  12.716  67.480  1.00  0.00    -0.211 OA 
HETATM   16  N   UNL     1     -11.793  13.694  68.874  1.00  0.00    -0.346 N  
BRANCH   6  17
HETATM   17  N   UNL     1     -10.630   8.245  70.818  1.00  0.00    -0.206 NA 
HETATM   18  N   UNL     1     -13.401   7.428  72.178  1.00  0.00    -0.519 NA 
HETATM   19  C   UNL     1     -11.341   6.272  72.885  1.00  0.00    -0.187 C  
HETATM   20  C   UNL     1     -11.544   7.131  70.508  1.00  0.00    -0.290 C  
HETATM   21  C   UNL     1     -10.570   7.531  73.253  1.00  0.00    -0.438 C  
HETATM   22  C   UNL     1      -9.813   8.094  72.047  1.00  0.00    -0.232 C  
HETATM   23  C   UNL     1     -12.307   6.554  71.734  1.00  0.00    -0.287 C  
HETATM   24  H1  UNL     1     -14.046   7.617  71.410  1.00  0.00     0.000 HD 
HETATM   25  H2  UNL     1     -13.051   8.290  72.597  1.00  0.00     0.000 HD 
ENDBRANCH   6  17
BRANCH  16  26
HETATM   26  C   UNL     1     -11.873  14.952  68.089  1.00  0.00    -0.278 C  
BRANCH  26  27
HETATM   27  C   UNL     1     -10.776  16.015  68.336  1.00  0.00    -0.289 A  
HETATM   28  N   UNL     1     -11.005  17.279  67.900  1.00  0.00    -0.275 NA 
HETATM   29  C   UNL     1      -9.989  18.171  67.925  1.00  0.00    -0.333 A  
HETATM   30  C   UNL     1      -8.704  17.831  68.371  1.00  0.00    -0.292 A  
HETATM   31  C   UNL     1      -7.655  18.803  68.303  1.00  0.00    -0.307 A  
HETATM   32  C   UNL     1      -8.578  16.518  68.847  1.00  0.00    -0.241 A  
HETATM   33  C   UNL     1      -7.879  20.091  67.823  1.00  0.00    -0.330 A  
HETATM   34  C   UNL     1      -7.263  15.949  69.301  1.00  0.00    -0.217 C  
HETATM   35  N   UNL     1      -9.598  15.628  68.856  1.00  0.00    -0.210 NA 
HETATM   36  C   UNL     1      -9.156  20.435  67.413  1.00  0.00    -0.484 A  
HETATM   37  C   UNL     1     -10.184  19.479  67.470  1.00  0.00    -0.546 A  
ENDBRANCH  26  27
ENDBRANCH  16  26
ENDBRANCH   4   5
ENDBRANCH   3   4
TORSDOF 5
ENDMDL
MODEL        8
REMARK 921   NORMALIZED FREE ENERGY PREDICTED BY IDOCK:   -8.33 KCAL/MOL
REMARK 922        TOTAL FREE ENERGY PREDICTED BY IDOCK:  -11.26 KCAL/MOL
REMARK 923 INTER-LIGAND FREE ENERGY PREDICTED BY IDOCK:   -9.86 KCAL/MOL
REMARK 924 INTRA-LIGAND FREE ENERGY PREDICTED BY IDOCK:   -1.40 KCAL/MOL
REMARK 927      BINDING AFFINITY PREDICTED BY RF-SCORE:    0.00 PKD
ROOT
HETATM    1  C   UNL     1      -7.540   8.310  72.627  1.00  0.00    -0.160 C  
HETATM    2  C   UNL     1      -8.867   8.572  71.933  1.00  0.00    -0.284 C  
HETATM    3  C   UNL     1     -10.005   8.797  71.338  1.00  0.00    -0.354 C  
ENDROOT
BRANCH   3   4
HETATM    4  C   UNL     1     -11.332   9.060  70.645  1.00  0.00    -0.265 C  
BRANCH   4   5
HETATM    5  N   UNL     1     -10.999   9.564  69.257  1.00  0.00    -0.190 NA 
HETATM    6  C   UNL     1     -10.428   8.820  68.194  1.00  0.00    -0.191 A  
HETATM    7  N   UNL     1     -10.414   9.535  67.086  1.00  0.00    -0.260 NA 
HETATM    8  N   UNL     1     -11.075  11.784  66.513  1.00  0.00    -0.299 N  
HETATM    9  C   UNL     1     -10.880  10.757  67.416  1.00  0.00    -0.290 A  
HETATM   10  O   UNL     1     -12.211  13.729  66.144  1.00  0.00    -0.422 OA 
HETATM   11  C   UNL     1     -11.206  10.862  68.743  1.00  0.00    -0.270 A  
HETATM   12  C   UNL     1     -10.758  11.606  65.107  1.00  0.00    -0.296 C  
HETATM   13  C   UNL     1     -11.640  12.127  69.282  1.00  0.00    -0.318 C  
HETATM   14  C   UNL     1     -11.685  12.949  66.944  1.00  0.00    -0.382 C  
HETATM   15  O   UNL     1     -11.956  12.267  70.458  1.00  0.00    -0.335 OA 
HETATM   16  N   UNL     1     -11.706  13.170  68.331  1.00  0.00    -0.331 N  
BRANCH   6  17
HETATM   17  N   UNL     1     -10.035   7.511  68.223  1.00  0.00    -0.167 NA 
HETATM   18  N   UNL     1      -8.577   7.287  65.392  1.00  0.00    -0.309 NA 
HETATM   19  C   UNL     1      -9.480   5.241  66.432  1.00  0.00    -0.161 C  
HETATM   20  C   UNL     1      -8.648   7.133  67.901  1.00  0.00    -0.123 C  
HETATM   21  C   UNL     1     -10.900   5.761  66.601  1.00  0.00    -0.290 C  
HETATM   22  C   UNL     1     -11.072   6.489  67.937  1.00  0.00    -0.255 C  
HETATM   23  C   UNL     1      -8.473   6.386  66.549  1.00  0.00    -0.118 C  
HETATM   24  H1  UNL     1      -7.906   8.051  65.469  1.00  0.00     0.000 HD 
HETATM   25  H2  UNL     1      -9.528   7.631  65.264  1.00  0.00     0.000 HD 
ENDBRANCH   6  17
BRANCH  16  26
HETATM   26  C   UNL     1     -12.138  14.532  68.734  1.00  0.00    -0.221 C  
BRANCH  26  27
HETATM   27  C   UNL     1     -11.062  15.644  68.749  1.00  0.00    -0.307 A  
HETATM   28  N   UNL     1     -11.371  16.837  68.181  1.00  0.00    -0.156 NA 
HETATM   29  C   UNL     1     -10.389  17.749  68.005  1.00  0.00    -0.393 A  
HETATM   30  C   UNL     1      -9.060  17.499  68.376  1.00  0.00    -0.276 A  
HETATM   31  C   UNL     1      -8.055  18.480  68.096  1.00  0.00    -0.310 A  
HETATM   32  C   UNL     1      -8.848  16.261  68.999  1.00  0.00    -0.243 A  
HETATM   33  C   UNL     1      -8.364  19.691  67.480  1.00  0.00    -0.337 A  
HETATM   34  C   UNL     1      -7.481  15.787  69.403  1.00  0.00    -0.216 C  
HETATM   35  N   UNL     1      -9.832  15.355  69.208  1.00  0.00    -0.246 NA 
HETATM   36  C   UNL     1      -9.682  19.949  67.144  1.00  0.00    -0.523 A  
HETATM   37  C   UNL     1     -10.667  18.983  67.410  1.00  0.00    -0.559 A  
ENDBRANCH  26  27
ENDBRANCH  16  26
ENDBRANCH   4   5
ENDBRANCH   3   4
TORSDOF 5
ENDMDL
MODEL        9
REMARK 921   NORMALIZED FREE ENERGY PREDICTED BY IDOCK:   -8.30 KCAL/MOL
REMARK 922        TOTAL FREE ENERGY PREDICTED BY IDOCK:  -11.23 KCAL/MOL
REMARK 923 INTER-LIGAND FREE ENERGY PREDICTED BY IDOCK:  -10.40 KCAL/MOL
REMARK 924 INTRA-LIGAND FREE ENERGY PREDICTED BY IDOCK:   -0.83 KCAL/MOL
REMARK 927      BINDING AFFINITY PREDICTED BY RF-SCORE:    0.00 PKD
ROOT
HETATM    1  C   UNL     1     -11.042   6.238  66.856  1.00  0.00    -0.329 C  
HETATM    2  C   UNL     1     -10.482   7.594  67.257  1.00  0.00    -0.396 C  
HETATM    3  C   UNL     1     -10.002   8.757  67.601  1.00  0.00    -0.247 C  
ENDROOT
BRANCH   3   4
HETATM    4  C   UNL     1      -9.442  10.111  68.002  1.00  0.00    -0.145 C  
BRANCH   4   5
HETATM    5  N   UNL     1     -10.435  10.718  68.969  1.00  0.00    -0.204 NA 
HETATM    6  C   UNL     1     -11.018  10.089  70.099  1.00  0.00    -0.310 A  
HETATM    7  N   UNL     1     -11.722  10.958  70.798  1.00  0.00    -0.312 NA 
HETATM    8  N   UNL     1     -12.263  13.295  70.543  1.00  0.00    -0.364 N  
HETATM    9  C   UNL     1     -11.688  12.117  70.109  1.00  0.00    -0.218 A  
HETATM   10  O   UNL     1     -12.210  15.567  70.327  1.00  0.00    -0.365 OA 
HETATM   11  C   UNL     1     -10.963  12.026  68.950  1.00  0.00    -0.232 A  
HETATM   12  C   UNL     1     -12.982  13.350  71.804  1.00  0.00    -0.342 C  
HETATM   13  C   UNL     1     -10.895  13.152  68.051  1.00  0.00    -0.242 C  
HETATM   14  C   UNL     1     -12.048  14.453  69.817  1.00  0.00    -0.334 C  
HETATM   15  O   UNL     1     -10.248  13.124  67.010  1.00  0.00    -0.245 OA 
HETATM   16  N   UNL     1     -11.603  14.292  68.495  1.00  0.00    -0.301 N  
BRANCH   6  17
HETATM   17  N   UNL     1     -10.822   8.803  70.517  1.00  0.00    -0.227 NA 
HETATM   18  N   UNL     1     -12.926   8.653  72.914  1.00  0.00    -0.687 NA 
HETATM   19  C   UNL     1     -10.992   7.122  72.929  1.00  0.00    -0.359 C  
HETATM   20  C   UNL     1     -11.964   7.893  70.717  1.00  0.00    -0.131 C  
HETATM   21  C   UNL     1      -9.930   8.206  72.817  1.00  0.00    -0.361 C  
HETATM   22  C   UNL     1      -9.625   8.540  71.354  1.00  0.00    -0.215 C  
HETATM   23  C   UNL     1     -12.268   7.547  72.202  1.00  0.00    -0.248 C  
HETATM   24  H1  UNL     1     -13.777   8.937  72.430  1.00  0.00     0.000 HD 
HETATM   25  H2  UNL     1     -12.293   9.439  73.059  1.00  0.00     0.000 HD 
ENDBRANCH   6  17
BRANCH  16  26
HETATM   26  C   UNL     1     -11.625  15.531  67.678  1.00  0.00    -0.142 C  
BRANCH  26  27
HETATM   27  C   UNL     1     -10.428  16.500  67.825  1.00  0.00    -0.308 A  
HETATM   28  N   UNL     1      -9.270  16.009  68.334  1.00  0.00    -0.191 NA 
HETATM   29  C   UNL     1      -8.281  16.873  68.656  1.00  0.00    -0.254 A  
HETATM   30  C   UNL     1      -8.416  18.260  68.496  1.00  0.00    -0.325 A  
HETATM   31  C   UNL     1      -7.358  19.124  68.925  1.00  0.00    -0.379 A  
HETATM   32  C   UNL     1      -9.627  18.667  67.919  1.00  0.00    -0.310 A  
HETATM   33  C   UNL     1      -6.183  18.625  69.481  1.00  0.00    -0.278 A  
HETATM   34  C   UNL     1      -9.983  20.115  67.732  1.00  0.00    -0.549 C  
HETATM   35  N   UNL     1     -10.609  17.807  67.563  1.00  0.00    -0.378 NA 
HETATM   36  C   UNL     1      -6.038  17.254  69.608  1.00  0.00    -0.244 A  
HETATM   37  C   UNL     1      -7.079  16.405  69.197  1.00  0.00    -0.224 A  
ENDBRANCH  26  27
ENDBRANCH  16  26
ENDBRANCH   4   5
ENDBRANCH   3   4
TORSDOF 5
ENDMDL
MODEL       10
REMARK 921   NORMALIZED FREE ENERGY PREDICTED BY IDOCK:   -8.27 KCAL/MOL
REMARK 922        TOTAL FREE ENERGY PREDICTED BY IDOCK:  -11.19 KCAL/MOL
REMARK 923 INTER-LIGAND FREE ENERGY PREDICTED BY IDOCK:   -9.72 KCAL/MOL
REMARK 924 INTRA-LIGAND FREE ENERGY PREDICTED BY IDOCK:   -1.47 KCAL/MOL
REMARK 927      BINDING AFFINITY PREDICTED BY RF-SCORE:    0.00 PKD
ROOT
HETATM    1  C   UNL     1     -14.411   8.237  71.476  1.00  0.00    -0.525 C  
HETATM    2  C   UNL     1     -13.054   8.848  71.162  1.00  0.00    -0.144 C  
HETATM    3  C   UNL     1     -11.891   9.372  70.893  1.00  0.00    -0.365 C  
ENDROOT
BRANCH   3   4
HETATM    4  C   UNL     1     -10.535   9.982  70.579  1.00  0.00    -0.198 C  
BRANCH   4   5
HETATM    5  N   UNL     1     -10.552  10.334  69.107  1.00  0.00    -0.215 NA 
HETATM    6  C   UNL     1     -10.177   9.497  68.026  1.00  0.00    -0.201 A  
HETATM    7  N   UNL     1     -10.459  10.076  66.874  1.00  0.00    -0.233 NA 
HETATM    8  N   UNL     1     -11.389  12.208  66.234  1.00  0.00    -0.342 N  
HETATM    9  C   UNL     1     -10.928  11.305  67.172  1.00  0.00    -0.291 A  
HETATM   10  O   UNL     1     -12.716  14.041  65.930  1.00  0.00    -0.495 OA 
HETATM   11  C   UNL     1     -10.959  11.551  68.520  1.00  0.00    -0.223 A  
HETATM   12  C   UNL     1     -11.377  11.880  64.820  1.00  0.00    -0.283 C  
HETATM   13  C   UNL     1     -11.354  12.849  69.007  1.00  0.00    -0.290 C  
HETATM   14  C   UNL     1     -11.971  13.386  66.668  1.00  0.00    -0.399 C  
HETATM   15  O   UNL     1     -11.413  13.113  70.204  1.00  0.00    -0.124 OA 
HETATM   16  N   UNL     1     -11.703  13.769  67.992  1.00  0.00    -0.336 N  
BRANCH   6  17
HETATM   17  N   UNL     1      -9.695   8.220  68.102  1.00  0.00    -0.154 NA 
HETATM   18  N   UNL     1      -8.879   7.732  65.054  1.00  0.00    -0.375 NA 
HETATM   19  C   UNL     1      -9.383   5.784  66.479  1.00  0.00    -0.162 C  
HETATM   20  C   UNL     1      -8.389   7.872  67.517  1.00  0.00    -0.124 C  
HETATM   21  C   UNL     1     -10.765   6.253  66.908  1.00  0.00    -0.411 C  
HETATM   22  C   UNL     1     -10.693   7.124  68.165  1.00  0.00    -0.160 C  
HETATM   23  C   UNL     1      -8.460   6.980  66.245  1.00  0.00    -0.134 C  
HETATM   24  H1  UNL     1      -8.264   8.531  64.898  1.00  0.00     0.000 HD 
HETATM   25  H2  UNL     1      -9.858   8.014  65.109  1.00  0.00     0.000 HD 
ENDBRANCH   6  17
BRANCH  16  26
HETATM   26  C   UNL     1     -12.133  15.147  68.338  1.00  0.00    -0.074 C  
BRANCH  26  27
HETATM   27  C   UNL     1     -11.039  16.240  68.390  1.00  0.00    -0.362 A  
HETATM   28  N   UNL     1     -11.278  17.411  67.747  1.00  0.00     0.001 NA 
HETATM   29  C   UNL     1     -10.267  18.297  67.610  1.00  0.00    -0.382 A  
HETATM   30  C   UNL     1      -8.976  18.043  68.096  1.00  0.00    -0.287 A  
HETATM   31  C   UNL     1      -7.933  18.994  67.853  1.00  0.00    -0.307 A  
HETATM   32  C   UNL     1      -8.839  16.832  68.787  1.00  0.00    -0.258 A  
HETATM   33  C   UNL     1      -8.168  20.180  67.162  1.00  0.00    -0.378 A  
HETATM   34  C   UNL     1      -7.518  16.353  69.320  1.00  0.00    -0.202 C  
HETATM   35  N   UNL     1      -9.854  15.953  68.958  1.00  0.00    -0.220 NA 
HETATM   36  C   UNL     1      -9.450  20.444  66.711  1.00  0.00    -0.478 A  
HETATM   37  C   UNL     1     -10.472  19.508  66.940  1.00  0.00    -0.589 A  
ENDBRANCH  26  27
ENDBRANCH  16  26
ENDBRANCH   4   5
ENDBRANCH   3   4
TORSDOF 5
ENDMDL
MODEL       11
REMARK 921   NORMALIZED FREE ENERGY PREDICTED BY IDOCK:   -8.26 KCAL/MOL
REMARK 922        TOTAL FREE ENERGY PREDICTED BY IDOCK:  -11.18 KCAL/MOL
REMARK 923 INTER-LIGAND FREE ENERGY PREDICTED BY IDOCK:  -10.00 KCAL/MOL
REMARK 924 INTRA-LIGAND FREE ENERGY PREDICTED BY IDOCK:   -1.18 KCAL/MOL
REMARK 927      BINDING AFFINITY PREDICTED BY RF-SCORE:    0.00 PKD
ROOT
HETATM    1  C   UNL     1     -12.216  16.011  73.137  1.00  0.00    -0.636 C  
HETATM    2  C   UNL     1     -12.280  15.810  71.631  1.00  0.00    -0.523 C  
HETATM    3  C   UNL     1     -12.335  15.637  70.340  1.00  0.00    -0.427 C  
ENDROOT
BRANCH   3   4
HETATM    4  C   UNL     1     -12.399  15.436  68.835  1.00  0.00     0.040 C  
BRANCH   4   5
HETATM    5  N   UNL     1     -10.974  15.236  68.367  1.00  0.00    -0.259 NA 
HETATM    6  C   UNL     1     -10.073  16.238  67.927  1.00  0.00    -0.247 A  
HETATM    7  N   UNL     1      -8.872  15.727  67.736  1.00  0.00    -0.171 NA 
HETATM    8  N   UNL     1      -7.925  13.515  67.913  1.00  0.00    -0.146 N  
HETATM    9  C   UNL     1      -8.984  14.401  67.956  1.00  0.00    -0.183 A  
HETATM   10  O   UNL     1      -7.197  11.470  68.622  1.00  0.00    -0.088 OA 
HETATM   11  C   UNL     1     -10.258  14.022  68.292  1.00  0.00    -0.249 A  
HETATM   12  C   UNL     1      -6.585  13.975  67.598  1.00  0.00    -0.159 C  
HETATM   13  C   UNL     1     -10.570  12.627  68.477  1.00  0.00    -0.243 C  
HETATM   14  C   UNL     1      -8.137  12.200  68.287  1.00  0.00    -0.166 C  
HETATM   15  O   UNL     1     -11.691  12.241  68.793  1.00  0.00    -0.302 OA 
HETATM   16  N   UNL     1      -9.470  11.758  68.304  1.00  0.00    -0.190 N  
BRANCH   6  17
HETATM   17  N   UNL     1     -10.324  17.576  67.808  1.00  0.00    -0.352 NA 
HETATM   18  N   UNL     1      -7.892  18.452  65.935  1.00  0.00    -0.509 NA 
HETATM   19  C   UNL     1      -8.943  20.143  67.390  1.00  0.00    -0.453 C  
HETATM   20  C   UNL     1     -10.335  18.226  66.486  1.00  0.00    -0.392 C  
HETATM   21  C   UNL     1      -8.761  19.371  68.689  1.00  0.00    -0.403 C  
HETATM   22  C   UNL     1      -9.946  18.438  68.954  1.00  0.00    -0.345 C  
HETATM   23  C   UNL     1      -9.137  19.180  66.218  1.00  0.00    -0.310 C  
HETATM   24  H1  UNL     1      -8.020  17.809  65.153  1.00  0.00     0.000 HD 
HETATM   25  H2  UNL     1      -7.535  17.974  66.762  1.00  0.00     0.000 HD 
ENDBRANCH   6  17
BRANCH  16  26
HETATM   26  C   UNL     1      -9.635  10.291  68.464  1.00  0.00    -0.161 C  
BRANCH  26  27
HETATM   27  C   UNL     1      -9.921   9.760  69.889  1.00  0.00    -0.245 A  
HETATM   28  N   UNL     1      -8.890   9.217  70.585  1.00  0.00    -0.231 NA 
HETATM   29  C   UNL     1      -9.154   8.571  71.743  1.00  0.00    -0.235 A  
HETATM   30  C   UNL     1     -10.457   8.429  72.241  1.00  0.00    -0.407 A  
HETATM   31  C   UNL     1     -10.675   7.670  73.435  1.00  0.00    -0.330 A  
HETATM   32  C   UNL     1     -11.448   9.064  71.479  1.00  0.00    -0.337 A  
HETATM   33  C   UNL     1      -9.622   7.081  74.133  1.00  0.00    -0.298 A  
HETATM   34  C   UNL     1     -12.909   8.965  71.815  1.00  0.00    -0.419 C  
HETATM   35  N   UNL     1     -11.188   9.741  70.337  1.00  0.00    -0.278 NA 
HETATM   36  C   UNL     1      -8.333   7.250  73.657  1.00  0.00    -0.169 A  
HETATM   37  C   UNL     1      -8.119   7.986  72.480  1.00  0.00    -0.182 A  
ENDBRANCH  26  27
ENDBRANCH  16  26
ENDBRANCH   4   5
ENDBRANCH   3   4
TORSDOF 5
ENDMDL
MODEL       12
REMARK 921   NORMALIZED FREE ENERGY PREDICTED BY IDOCK:   -8.21 KCAL/MOL
REMARK 922        TOTAL FREE ENERGY PREDICTED BY IDOCK:  -11.11 KCAL/MOL
REMARK 923 INTER-LIGAND FREE ENERGY PREDICTED BY IDOCK:   -9.64 KCAL/MOL
REMARK 924 INTRA-LIGAND FREE ENERGY PREDICTED BY IDOCK:   -1.47 KCAL/MOL
REMARK 927      BINDING AFFINITY PREDICTED BY RF-SCORE:    0.00 PKD
ROOT
HETATM    1  C   UNL     1     -14.378   8.246  71.572  1.00  0.00    -0.525 C  
HETATM    2  C   UNL     1     -13.024   8.844  71.225  1.00  0.00    -0.255 C  
HETATM    3  C   UNL     1     -11.863   9.357  70.927  1.00  0.00    -0.365 C  
ENDROOT
BRANCH   3   4
HETATM    4  C   UNL     1     -10.509   9.955  70.580  1.00  0.00    -0.264 C  
BRANCH   4   5
HETATM    5  N   UNL     1     -10.545  10.268  69.099  1.00  0.00    -0.215 NA 
HETATM    6  C   UNL     1     -10.245   9.383  68.034  1.00  0.00    -0.204 A  
HETATM    7  N   UNL     1     -10.523   9.946  66.874  1.00  0.00    -0.233 NA 
HETATM    8  N   UNL     1     -11.350  12.109  66.197  1.00  0.00    -0.346 N  
HETATM    9  C   UNL     1     -10.915  11.207  67.148  1.00  0.00    -0.291 A  
HETATM   10  O   UNL     1     -12.579  14.005  65.874  1.00  0.00    -0.488 OA 
HETATM   11  C   UNL     1     -10.899  11.490  68.489  1.00  0.00    -0.215 A  
HETATM   12  C   UNL     1     -11.393  11.743  64.792  1.00  0.00    -0.249 C  
HETATM   13  C   UNL     1     -11.208  12.820  68.949  1.00  0.00    -0.283 C  
HETATM   14  C   UNL     1     -11.854  13.329  66.611  1.00  0.00    -0.395 C  
HETATM   15  O   UNL     1     -11.221  13.119  70.139  1.00  0.00     0.088 OA 
HETATM   16  N   UNL     1     -11.531  13.731  67.917  1.00  0.00    -0.295 N  
BRANCH   6  17
HETATM   17  N   UNL     1      -9.832   8.083  68.134  1.00  0.00    -0.164 NA 
HETATM   18  N   UNL     1      -8.929   7.534  65.122  1.00  0.00    -0.345 NA 
HETATM   19  C   UNL     1      -9.587   5.623  66.535  1.00  0.00    -0.171 C  
HETATM   20  C   UNL     1      -8.525   7.664  67.601  1.00  0.00    -0.117 C  
HETATM   21  C   UNL     1     -10.958   6.166  66.910  1.00  0.00    -0.384 C  
HETATM   22  C   UNL     1     -10.888   7.041  68.165  1.00  0.00    -0.153 C  
HETATM   23  C   UNL     1      -8.595   6.769  66.331  1.00  0.00    -0.130 C  
HETATM   24  H1  UNL     1      -8.268   8.298  64.985  1.00  0.00     0.000 HD 
HETATM   25  H2  UNL     1      -9.893   7.866  65.138  1.00  0.00     0.000 HD 
ENDBRANCH   6  17
BRANCH  16  26
HETATM   26  C   UNL     1     -11.874  15.140  68.235  1.00  0.00    -0.250 C  
BRANCH  26  27
HETATM   27  C   UNL     1     -10.738  16.186  68.141  1.00  0.00    -0.315 A  
HETATM   28  N   UNL     1      -9.507  15.831  68.586  1.00  0.00    -0.200 NA 
HETATM   29  C   UNL     1      -8.554  16.784  68.699  1.00  0.00    -0.263 A  
HETATM   30  C   UNL     1      -8.800  18.129  68.387  1.00  0.00    -0.305 A  
HETATM   31  C   UNL     1      -7.769  19.100  68.598  1.00  0.00    -0.387 A  
HETATM   32  C   UNL     1     -10.084  18.390  67.890  1.00  0.00    -0.362 A  
HETATM   33  C   UNL     1      -6.515  18.743  69.088  1.00  0.00    -0.297 A  
HETATM   34  C   UNL     1     -10.556  19.780  67.566  1.00  0.00    -0.544 C  
HETATM   35  N   UNL     1     -11.033  17.436  67.743  1.00  0.00    -0.247 NA 
HETATM   36  C   UNL     1      -6.264  17.410  69.365  1.00  0.00    -0.250 A  
HETATM   37  C   UNL     1      -7.278  16.458  69.168  1.00  0.00    -0.222 A  
ENDBRANCH  26  27
ENDBRANCH  16  26
ENDBRANCH   4   5
ENDBRANCH   3   4
TORSDOF 5
ENDMDL
MODEL       13
REMARK 921   NORMALIZED FREE ENERGY PREDICTED BY IDOCK:   -8.12 KCAL/MOL
REMARK 922        TOTAL FREE ENERGY PREDICTED BY IDOCK:  -10.99 KCAL/MOL
REMARK 923 INTER-LIGAND FREE ENERGY PREDICTED BY IDOCK:   -9.87 KCAL/MOL
REMARK 924 INTRA-LIGAND FREE ENERGY PREDICTED BY IDOCK:   -1.12 KCAL/MOL
REMARK 927      BINDING AFFINITY PREDICTED BY RF-SCORE:    0.00 PKD
ROOT
HETATM    1  C   UNL     1     -13.057  14.610  73.025  1.00  0.00    -0.616 C  
HETATM    2  C   UNL     1     -13.079  13.260  72.326  1.00  0.00    -0.474 C  
HETATM    3  C   UNL     1     -13.097  12.102  71.726  1.00  0.00    -0.457 C  
ENDROOT
BRANCH   3   4
HETATM    4  C   UNL     1     -13.120  10.752  71.028  1.00  0.00    -0.248 C  
BRANCH   4   5
HETATM    5  N   UNL     1     -11.717  10.510  70.516  1.00  0.00    -0.325 NA 
HETATM    6  C   UNL     1     -10.793   9.543  70.984  1.00  0.00    -0.353 A  
HETATM    7  N   UNL     1      -9.724   9.513  70.212  1.00  0.00    -0.248 NA 
HETATM    8  N   UNL     1      -9.001  10.752  68.273  1.00  0.00    -0.137 N  
HETATM    9  C   UNL     1      -9.885  10.495  69.302  1.00  0.00    -0.205 A  
HETATM   10  O   UNL     1      -8.794  11.711  66.211  1.00  0.00    -0.193 OA 
HETATM   11  C   UNL     1     -11.059  11.183  69.464  1.00  0.00    -0.252 A  
HETATM   12  C   UNL     1      -7.793   9.962  68.117  1.00  0.00    -0.085 C  
HETATM   13  C   UNL     1     -11.349  12.321  68.628  1.00  0.00    -0.291 C  
HETATM   14  C   UNL     1      -9.338  11.698  67.321  1.00  0.00    -0.169 C  
HETATM   15  O   UNL     1     -12.392  12.959  68.724  1.00  0.00    -0.086 OA 
HETATM   16  N   UNL     1     -10.351  12.606  67.669  1.00  0.00    -0.217 N  
BRANCH   6  17
HETATM   17  N   UNL     1     -10.975   8.661  72.013  1.00  0.00    -0.340 NA 
HETATM   18  N   UNL     1      -8.694   6.528  71.351  1.00  0.00    -0.130 NA 
HETATM   19  C   UNL     1     -10.644   5.812  72.680  1.00  0.00    -0.261 C  
HETATM   20  C   UNL     1      -9.836   8.210  72.831  1.00  0.00    -0.268 C  
HETATM   21  C   UNL     1     -11.695   6.251  71.671  1.00  0.00    -0.342 C  
HETATM   22  C   UNL     1     -12.107   7.709  71.893  1.00  0.00    -0.298 C  
HETATM   23  C   UNL     1      -9.422   6.728  72.612  1.00  0.00    -0.138 C  
HETATM   24  H1  UNL     1      -7.878   7.139  71.305  1.00  0.00     0.000 HD 
HETATM   25  H2  UNL     1      -9.301   6.646  70.540  1.00  0.00     0.000 HD 
ENDBRANCH   6  17
BRANCH  16  26
HETATM   26  C   UNL     1     -10.508  13.748  66.733  1.00  0.00    -0.270 C  
BRANCH  26  27
HETATM   27  C   UNL     1     -10.043  15.139  67.226  1.00  0.00    -0.235 A  
HETATM   28  N   UNL     1     -10.558  16.236  66.614  1.00  0.00    -0.287 NA 
HETATM   29  C   UNL     1     -10.023  17.447  66.888  1.00  0.00    -0.300 A  
HETATM   30  C   UNL     1      -8.945  17.607  67.771  1.00  0.00    -0.247 A  
HETATM   31  C   UNL     1      -8.379  18.909  67.961  1.00  0.00    -0.325 A  
HETATM   32  C   UNL     1      -8.514  16.426  68.390  1.00  0.00    -0.204 A  
HETATM   33  C   UNL     1      -8.883  20.030  67.307  1.00  0.00    -0.428 A  
HETATM   34  C   UNL     1      -7.329  16.386  69.312  1.00  0.00    -0.211 C  
HETATM   35  N   UNL     1      -9.066  15.214  68.146  1.00  0.00    -0.173 NA 
HETATM   36  C   UNL     1      -9.969  19.875  66.461  1.00  0.00    -0.591 A  
HETATM   37  C   UNL     1     -10.519  18.597  66.266  1.00  0.00    -0.468 A  
ENDBRANCH  26  27
ENDBRANCH  16  26
ENDBRANCH   4   5
ENDBRANCH   3   4
TORSDOF 5
ENDMDL
MODEL       14
REMARK 921   NORMALIZED FREE ENERGY PREDICTED BY IDOCK:   -8.03 KCAL/MOL
REMARK 922        TOTAL FREE ENERGY PREDICTED BY IDOCK:  -10.88 KCAL/MOL
REMARK 923 INTER-LIGAND FREE ENERGY PREDICTED BY IDOCK:  -10.36 KCAL/MOL
REMARK 924 INTRA-LIGAND FREE ENERGY PREDICTED BY IDOCK:   -0.52 KCAL/MOL
REMARK 927      BINDING AFFINITY PREDICTED BY RF-SCORE:    0.00 PKD
ROOT
HETATM    1  C   UNL     1     -10.644  10.872  64.134  1.00  0.00    -0.327 C  
HETATM    2  C   UNL     1     -10.134  10.733  65.560  1.00  0.00    -0.335 C  
HETATM    3  C   UNL     1      -9.697  10.614  66.782  1.00  0.00    -0.222 C  
ENDROOT
BRANCH   3   4
HETATM    4  C   UNL     1      -9.187  10.474  68.207  1.00  0.00    -0.152 C  
BRANCH   4   5
HETATM    5  N   UNL     1     -10.319  10.910  69.113  1.00  0.00    -0.217 NA 
HETATM    6  C   UNL     1     -10.956  10.135  70.115  1.00  0.00    -0.316 A  
HETATM    7  N   UNL     1     -11.796  10.879  70.808  1.00  0.00    -0.337 NA 
HETATM    8  N   UNL     1     -12.502  13.183  70.703  1.00  0.00    -0.321 N  
HETATM    9  C   UNL     1     -11.790  12.098  70.231  1.00  0.00    -0.254 A  
HETATM   10  O   UNL     1     -12.618  15.463  70.692  1.00  0.00    -0.387 OA 
HETATM   11  C   UNL     1     -10.949  12.172  69.152  1.00  0.00    -0.161 A  
HETATM   12  C   UNL     1     -13.344  13.064  71.880  1.00  0.00    -0.446 C  
HETATM   13  C   UNL     1     -10.887  13.380  68.367  1.00  0.00    -0.264 C  
HETATM   14  C   UNL     1     -12.314  14.418  70.107  1.00  0.00    -0.348 C  
HETATM   15  O   UNL     1     -10.140  13.500  67.402  1.00  0.00    -0.233 OA 
HETATM   16  N   UNL     1     -11.728  14.417  68.831  1.00  0.00    -0.303 N  
BRANCH   6  17
HETATM   17  N   UNL     1     -10.696   8.833  70.438  1.00  0.00    -0.219 NA 
HETATM   18  N   UNL     1     -12.756   8.415  72.840  1.00  0.00    -0.667 NA 
HETATM   19  C   UNL     1     -10.755   6.979  72.724  1.00  0.00    -0.306 C  
HETATM   20  C   UNL     1     -11.792   7.859  70.585  1.00  0.00    -0.102 C  
HETATM   21  C   UNL     1      -9.745   8.116  72.679  1.00  0.00    -0.360 C  
HETATM   22  C   UNL     1      -9.476   8.566  71.240  1.00  0.00    -0.205 C  
HETATM   23  C   UNL     1     -12.059   7.395  72.044  1.00  0.00    -0.289 C  
HETATM   24  H1  UNL     1     -13.627   8.693  72.387  1.00  0.00     0.000 HD 
HETATM   25  H2  UNL     1     -12.158   9.218  73.034  1.00  0.00     0.000 HD 
ENDBRANCH   6  17
BRANCH  16  26
HETATM   26  C   UNL     1     -11.773  15.723  68.128  1.00  0.00    -0.168 C  
BRANCH  26  27
HETATM   27  C   UNL     1     -10.559  16.667  68.306  1.00  0.00    -0.338 A  
HETATM   28  N   UNL     1     -10.648  17.921  67.794  1.00  0.00    -0.404 NA 
HETATM   29  C   UNL     1      -9.537  18.691  67.761  1.00  0.00    -0.304 A  
HETATM   30  C   UNL     1      -8.295  18.235  68.223  1.00  0.00    -0.316 A  
HETATM   31  C   UNL     1      -7.143  19.076  68.092  1.00  0.00    -0.274 A  
HETATM   32  C   UNL     1      -8.313  16.947  68.778  1.00  0.00    -0.240 A  
HETATM   33  C   UNL     1      -7.225  20.349  67.534  1.00  0.00    -0.353 A  
HETATM   34  C   UNL     1      -7.067  16.261  69.262  1.00  0.00    -0.222 C  
HETATM   35  N   UNL     1      -9.427  16.182  68.845  1.00  0.00    -0.232 NA 
HETATM   36  C   UNL     1      -8.459  20.811  67.109  1.00  0.00    -0.212 A  
HETATM   37  C   UNL     1      -9.587  19.983  67.227  1.00  0.00    -0.527 A  
ENDBRANCH  26  27
ENDBRANCH  16  26
ENDBRANCH   4   5
ENDBRANCH   3   4
TORSDOF 5
ENDMDL
MODEL       15
REMARK 921   NORMALIZED FREE ENERGY PREDICTED BY IDOCK:   -8.02 KCAL/MOL
REMARK 922        TOTAL FREE ENERGY PREDICTED BY IDOCK:  -10.87 KCAL/MOL
REMARK 923 INTER-LIGAND FREE ENERGY PREDICTED BY IDOCK:   -9.56 KCAL/MOL
REMARK 924 INTRA-LIGAND FREE ENERGY PREDICTED BY IDOCK:   -1.31 KCAL/MOL
REMARK 927      BINDING AFFINITY PREDICTED BY RF-SCORE:    0.00 PKD
ROOT
HETATM    1  C   UNL     1      -5.700  11.165  69.418  1.00  0.00    -0.045 C  
HETATM    2  C   UNL     1      -7.097  10.841  68.912  1.00  0.00    -0.082 C  
HETATM    3  C   UNL     1      -8.295  10.562  68.479  1.00  0.00    -0.129 C  
ENDROOT
BRANCH   3   4
HETATM    4  C   UNL     1      -9.691  10.238  67.973  1.00  0.00    -0.149 C  
BRANCH   4   5
HETATM    5  N   UNL     1     -10.660  10.871  68.949  1.00  0.00    -0.198 NA 
HETATM    6  C   UNL     1     -11.251  10.257  70.081  1.00  0.00    -0.318 A  
HETATM    7  N   UNL     1     -11.925  11.144  70.788  1.00  0.00    -0.338 NA 
HETATM    8  N   UNL     1     -12.400  13.496  70.542  1.00  0.00    -0.350 N  
HETATM    9  C   UNL     1     -11.862  12.303  70.101  1.00  0.00    -0.272 A  
HETATM   10  O   UNL     1     -12.283  15.767  70.330  1.00  0.00    -0.392 OA 
HETATM   11  C   UNL     1     -11.149  12.194  68.936  1.00  0.00    -0.243 A  
HETATM   12  C   UNL     1     -13.107  13.569  71.808  1.00  0.00    -0.387 C  
HETATM   13  C   UNL     1     -11.056  13.319  68.040  1.00  0.00    -0.256 C  
HETATM   14  C   UNL     1     -12.158  14.649  69.817  1.00  0.00    -0.324 C  
HETATM   15  O   UNL     1     -10.418  13.276  66.993  1.00  0.00    -0.247 OA 
HETATM   16  N   UNL     1     -11.727  14.478  68.491  1.00  0.00    -0.309 N  
BRANCH   6  17
HETATM   17  N   UNL     1     -11.089   8.964  70.495  1.00  0.00    -0.247 NA 
HETATM   18  N   UNL     1     -13.110   8.897  72.967  1.00  0.00    -0.783 NA 
HETATM   19  C   UNL     1     -11.237   7.294  72.916  1.00  0.00    -0.336 C  
HETATM   20  C   UNL     1     -12.257   8.099  70.739  1.00  0.00    -0.002 C  
HETATM   21  C   UNL     1     -10.139   8.336  72.763  1.00  0.00    -0.333 C  
HETATM   22  C   UNL     1      -9.874   8.657  71.289  1.00  0.00    -0.238 C  
HETATM   23  C   UNL     1     -12.521   7.767  72.235  1.00  0.00    -0.187 C  
HETATM   24  H1  UNL     1     -13.967   9.213  72.513  1.00  0.00     0.000 HD 
HETATM   25  H2  UNL     1     -12.443   9.659  73.087  1.00  0.00     0.000 HD 
ENDBRANCH   6  17
BRANCH  16  26
HETATM   26  C   UNL     1     -11.720  15.719  67.677  1.00  0.00     0.084 C  
BRANCH  26  27
HETATM   27  C   UNL     1     -10.482  16.640  67.797  1.00  0.00    -0.316 A  
HETATM   28  N   UNL     1      -9.335  16.106  68.288  1.00  0.00    -0.201 NA 
HETATM   29  C   UNL     1      -8.307  16.931  68.587  1.00  0.00    -0.261 A  
HETATM   30  C   UNL     1      -8.389  18.321  68.422  1.00  0.00    -0.323 A  
HETATM   31  C   UNL     1      -7.290  19.144  68.826  1.00  0.00    -0.372 A  
HETATM   32  C   UNL     1      -9.593  18.774  67.864  1.00  0.00    -0.308 A  
HETATM   33  C   UNL     1      -6.126  18.600  69.364  1.00  0.00    -0.274 A  
HETATM   34  C   UNL     1      -9.894  20.234  67.675  1.00  0.00    -0.563 C  
HETATM   35  N   UNL     1     -10.615  17.952  67.531  1.00  0.00    -0.392 NA 
HETATM   36  C   UNL     1      -6.034  17.225  69.496  1.00  0.00    -0.241 A  
HETATM   37  C   UNL     1      -7.115  16.417  69.109  1.00  0.00    -0.224 A  
ENDBRANCH  26  27
ENDBRANCH  16  26
ENDBRANCH   4   5
ENDBRANCH   3   4
TORSDOF 5
ENDMDL
MODEL       16
REMARK 921   NORMALIZED FREE ENERGY PREDICTED BY IDOCK:   -7.92 KCAL/MOL
REMARK 922        TOTAL FREE ENERGY PREDICTED BY IDOCK:  -10.74 KCAL/MOL
REMARK 923 INTER-LIGAND FREE ENERGY PREDICTED BY IDOCK:  -10.09 KCAL/MOL
REMARK 924 INTRA-LIGAND FREE ENERGY PREDICTED BY IDOCK:   -0.64 KCAL/MOL
REMARK 927      BINDING AFFINITY PREDICTED BY RF-SCORE:    0.00 PKD
ROOT
HETATM    1  C   UNL     1      -7.973  10.751  66.189  1.00  0.00    -0.157 C  
HETATM    2  C   UNL     1      -9.193  11.657  66.234  1.00  0.00    -0.225 C  
HETATM    3  C   UNL     1     -10.240  12.434  66.272  1.00  0.00    -0.258 C  
ENDROOT
BRANCH   3   4
HETATM    4  C   UNL     1     -11.459  13.340  66.318  1.00  0.00    -0.325 C  
BRANCH   4   5
HETATM    5  N   UNL     1     -11.471  13.976  67.691  1.00  0.00    -0.315 NA 
HETATM    6  C   UNL     1     -11.111  15.308  68.018  1.00  0.00    -0.312 A  
HETATM    7  N   UNL     1     -11.383  15.563  69.283  1.00  0.00    -0.300 NA 
HETATM    8  N   UNL     1     -12.276  14.273  71.115  1.00  0.00    -0.344 N  
HETATM    9  C   UNL     1     -11.830  14.407  69.815  1.00  0.00    -0.320 A  
HETATM   10  O   UNL     1     -13.571  13.004  72.504  1.00  0.00    -0.572 OA 
HETATM   11  C   UNL     1     -11.857  13.379  68.910  1.00  0.00    -0.334 A  
HETATM   12  C   UNL     1     -12.271  15.407  72.022  1.00  0.00    -0.383 C  
HETATM   13  C   UNL     1     -12.229  12.053  69.335  1.00  0.00    -0.097 C  
HETATM   14  C   UNL     1     -12.838  13.072  71.511  1.00  0.00    -0.290 C  
HETATM   15  O   UNL     1     -12.283  11.104  68.560  1.00  0.00    -0.600 OA 
HETATM   16  N   UNL     1     -12.562  11.955  70.706  1.00  0.00    -0.280 N  
BRANCH   6  17
HETATM   17  N   UNL     1     -10.651  16.269  67.161  1.00  0.00    -0.310 NA 
HETATM   18  N   UNL     1      -7.512  15.700  67.293  1.00  0.00    -0.204 NA 
HETATM   19  C   UNL     1      -8.289  17.952  66.656  1.00  0.00    -0.286 C  
HETATM   20  C   UNL     1      -9.706  15.929  66.084  1.00  0.00    -0.321 C  
HETATM   21  C   UNL     1      -9.149  18.181  67.890  1.00  0.00    -0.270 C  
HETATM   22  C   UNL     1     -10.572  17.656  67.683  1.00  0.00    -0.362 C  
HETATM   23  C   UNL     1      -8.262  16.468  66.289  1.00  0.00    -0.325 C  
HETATM   24  H1  UNL     1      -7.494  14.710  67.049  1.00  0.00     0.000 HD 
HETATM   25  H2  UNL     1      -7.876  15.851  68.234  1.00  0.00     0.000 HD 
ENDBRANCH   6  17
BRANCH  16  26
HETATM   26  C   UNL     1     -12.968  10.653  71.292  1.00  0.00    -0.414 C  
BRANCH  26  27
HETATM   27  C   UNL     1     -11.867   9.580  71.470  1.00  0.00    -0.405 A  
HETATM   28  N   UNL     1     -10.607   9.887  71.070  1.00  0.00    -0.224 NA 
HETATM   29  C   UNL     1      -9.678   8.906  71.030  1.00  0.00    -0.252 A  
HETATM   30  C   UNL     1      -9.975   7.579  71.372  1.00  0.00    -0.200 A  
HETATM   31  C   UNL     1      -8.963   6.575  71.238  1.00  0.00    -0.141 A  
HETATM   32  C   UNL     1     -11.287   7.369  71.818  1.00  0.00    -0.255 A  
HETATM   33  C   UNL     1      -7.679   6.882  70.794  1.00  0.00    -0.092 A  
HETATM   34  C   UNL     1     -11.811   6.003  72.163  1.00  0.00    -0.304 C  
HETATM   35  N   UNL     1     -12.214   8.352  71.893  1.00  0.00    -0.321 NA 
HETATM   36  C   UNL     1      -7.379   8.198  70.487  1.00  0.00    -0.056 A  
HETATM   37  C   UNL     1      -8.373   9.183  70.609  1.00  0.00    -0.239 A  
ENDBRANCH  26  27
ENDBRANCH  16  26
ENDBRANCH   4   5
ENDBRANCH   3   4
TORSDOF 5
ENDMDL
MODEL       17
REMARK 921   NORMALIZED FREE ENERGY PREDICTED BY IDOCK:   -7.86 KCAL/MOL
REMARK 922        TOTAL FREE ENERGY PREDICTED BY IDOCK:  -10.67 KCAL/MOL
REMARK 923 INTER-LIGAND FREE ENERGY PREDICTED BY IDOCK:   -9.85 KCAL/MOL
REMARK 924 INTRA-LIGAND FREE ENERGY PREDICTED BY IDOCK:   -0.82 KCAL/MOL
REMARK 927      BINDING AFFINITY PREDICTED BY RF-SCORE:    0.00 PKD
ROOT
HETATM    1  C   UNL     1     -14.394   8.323  71.783  1.00  0.00    -0.574 C  
HETATM    2  C   UNL     1     -13.589   9.512  71.283  1.00  0.00    -0.298 C  
HETATM    3  C   UNL     1     -12.899  10.532  70.854  1.00  0.00    -0.485 C  
ENDROOT
BRANCH   3   4
HETATM    4  C   UNL     1     -12.094  11.720  70.354  1.00  0.00    -0.352 C  
BRANCH   4   5
HETATM    5  N   UNL     1     -11.387  11.262  69.097  1.00  0.00    -0.255 NA 
HETATM    6  C   UNL     1     -10.734  10.021  68.891  1.00  0.00    -0.219 A  
HETATM    7  N   UNL     1     -10.358   9.901  67.632  1.00  0.00    -0.209 NA 
HETATM    8  N   UNL     1     -10.487  11.318  65.684  1.00  0.00    -0.259 N  
HETATM    9  C   UNL     1     -10.671  11.067  67.030  1.00  0.00    -0.270 A  
HETATM   10  O   UNL     1     -11.168  12.622  63.938  1.00  0.00    -0.381 OA 
HETATM   11  C   UNL     1     -11.254  11.967  67.882  1.00  0.00    -0.264 A  
HETATM   12  C   UNL     1      -9.907  10.312  64.813  1.00  0.00    -0.334 C  
HETATM   13  C   UNL     1     -11.573  13.295  67.420  1.00  0.00    -0.353 C  
HETATM   14  C   UNL     1     -10.969  12.501  65.152  1.00  0.00    -0.297 C  
HETATM   15  O   UNL     1     -12.109  14.131  68.141  1.00  0.00    -0.343 OA 
HETATM   16  N   UNL     1     -11.253  13.530  66.064  1.00  0.00    -0.294 N  
BRANCH   6  17
HETATM   17  N   UNL     1     -10.585   9.008  69.797  1.00  0.00    -0.225 NA 
HETATM   18  N   UNL     1      -7.480   8.363  69.431  1.00  0.00    -0.087 NA 
HETATM   19  C   UNL     1      -8.968   6.600  70.303  1.00  0.00    -0.152 C  
HETATM   20  C   UNL     1      -9.492   9.034  70.783  1.00  0.00    -0.251 C  
HETATM   21  C   UNL     1      -9.955   6.638  69.146  1.00  0.00    -0.168 C  
HETATM   22  C   UNL     1     -11.065   7.664  69.391  1.00  0.00     0.027 C  
HETATM   23  C   UNL     1      -8.369   7.987  70.540  1.00  0.00    -0.123 C  
HETATM   24  H1  UNL     1      -7.080   9.288  69.589  1.00  0.00     0.000 HD 
HETATM   25  H2  UNL     1      -7.954   8.304  68.530  1.00  0.00     0.000 HD 
ENDBRANCH   6  17
BRANCH  16  26
HETATM   26  C   UNL     1     -11.525  14.851  65.443  1.00  0.00    -0.320 C  
BRANCH  26  27
HETATM   27  C   UNL     1     -10.480  15.970  65.668  1.00  0.00    -0.397 A  
HETATM   28  N   UNL     1      -9.236  15.609  66.071  1.00  0.00    -0.346 NA 
HETATM   29  C   UNL     1      -8.372  16.572  66.463  1.00  0.00    -0.292 A  
HETATM   30  C   UNL     1      -8.722  17.930  66.481  1.00  0.00    -0.278 A  
HETATM   31  C   UNL     1      -7.784  18.891  66.977  1.00  0.00    -0.241 A  
HETATM   32  C   UNL     1     -10.010  18.209  66.003  1.00  0.00    -0.215 A  
HETATM   33  C   UNL     1      -6.519  18.519  67.425  1.00  0.00    -0.199 A  
HETATM   34  C   UNL     1     -10.588  19.596  66.011  1.00  0.00    -0.584 C  
HETATM   35  N   UNL     1     -10.869  17.254  65.577  1.00  0.00    -0.393 NA 
HETATM   36  C   UNL     1      -6.163  17.181  67.374  1.00  0.00    -0.175 A  
HETATM   37  C   UNL     1      -7.086  16.236  66.898  1.00  0.00    -0.246 A  
ENDBRANCH  26  27
ENDBRANCH  16  26
ENDBRANCH   4   5
ENDBRANCH   3   4
TORSDOF 5
ENDMDL
MODEL       18
REMARK 921   NORMALIZED FREE ENERGY PREDICTED BY IDOCK:   -7.84 KCAL/MOL
REMARK 922        TOTAL FREE ENERGY PREDICTED BY IDOCK:  -10.64 KCAL/MOL
REMARK 923 INTER-LIGAND FREE ENERGY PREDICTED BY IDOCK:   -9.76 KCAL/MOL
REMARK 924 INTRA-LIGAND FREE ENERGY PREDICTED BY IDOCK:   -0.88 KCAL/MOL
REMARK 927      BINDING AFFINITY PREDICTED BY RF-SCORE:    0.00 PKD
ROOT
HETATM    1  C   UNL     1     -12.084  12.671  63.351  1.00  0.00    -0.614 C  
HETATM    2  C   UNL     1     -12.037  13.253  64.755  1.00  0.00    -0.456 C  
HETATM    3  C   UNL     1     -11.996  13.752  65.959  1.00  0.00    -0.443 C  
ENDROOT
BRANCH   3   4
HETATM    4  C   UNL     1     -11.949  14.333  67.362  1.00  0.00    -0.391 C  
BRANCH   4   5
HETATM    5  N   UNL     1     -10.487  14.546  67.691  1.00  0.00    -0.245 NA 
HETATM    6  C   UNL     1      -9.819  15.786  67.846  1.00  0.00    -0.217 A  
HETATM    7  N   UNL     1      -8.586  15.597  68.276  1.00  0.00    -0.156 NA 
HETATM    8  N   UNL     1      -7.250  13.653  68.781  1.00  0.00    -0.102 N  
HETATM    9  C   UNL     1      -8.402  14.261  68.323  1.00  0.00    -0.165 A  
HETATM   10  O   UNL     1      -6.398  11.716  69.638  1.00  0.00    -0.109 OA 
HETATM   11  C   UNL     1      -9.508  13.557  67.925  1.00  0.00    -0.215 A  
HETATM   12  C   UNL     1      -6.122  14.446  69.237  1.00  0.00    -0.105 C  
HETATM   13  C   UNL     1      -9.452  12.119  67.834  1.00  0.00    -0.195 C  
HETATM   14  C   UNL     1      -7.225  12.276  68.910  1.00  0.00    -0.069 C  
HETATM   15  O   UNL     1     -10.419  11.443  67.498  1.00  0.00    -0.190 OA 
HETATM   16  N   UNL     1      -8.207  11.562  68.204  1.00  0.00    -0.142 N  
BRANCH   6  17
HETATM   17  N   UNL     1     -10.356  17.034  67.696  1.00  0.00    -0.321 NA 
HETATM   18  N   UNL     1      -8.028  18.468  66.048  1.00  0.00    -0.482 NA 
HETATM   19  C   UNL     1      -9.563  19.853  67.391  1.00  0.00    -0.499 C  
HETATM   20  C   UNL     1     -10.395  17.685  66.375  1.00  0.00    -0.345 C  
HETATM   21  C   UNL     1      -9.328  19.124  68.706  1.00  0.00    -0.423 C  
HETATM   22  C   UNL     1     -10.289  17.943  68.867  1.00  0.00    -0.268 C  
HETATM   23  C   UNL     1      -9.426  18.889  66.212  1.00  0.00    -0.297 C  
HETATM   24  H1  UNL     1      -7.935  17.824  65.262  1.00  0.00     0.000 HD 
HETATM   25  H2  UNL     1      -7.648  18.071  66.908  1.00  0.00     0.000 HD 
ENDBRANCH   6  17
BRANCH  16  26
HETATM   26  C   UNL     1      -7.997  10.093  68.165  1.00  0.00    -0.104 C  
BRANCH  26  27
HETATM   27  C   UNL     1      -9.083   9.202  68.815  1.00  0.00    -0.136 A  
HETATM   28  N   UNL     1      -9.306   9.339  70.147  1.00  0.00    -0.209 NA 
HETATM   29  C   UNL     1     -10.101   8.440  70.770  1.00  0.00    -0.193 A  
HETATM   30  C   UNL     1     -10.691   7.364  70.092  1.00  0.00    -0.254 A  
HETATM   31  C   UNL     1     -11.463   6.408  70.826  1.00  0.00    -0.415 A  
HETATM   32  C   UNL     1     -10.442   7.335  68.712  1.00  0.00    -0.200 A  
HETATM   33  C   UNL     1     -11.664   6.526  72.199  1.00  0.00    -0.353 A  
HETATM   34  C   UNL     1     -10.932   6.221  67.830  1.00  0.00    -0.427 C  
HETATM   35  N   UNL     1      -9.675   8.248  68.074  1.00  0.00    -0.157 NA 
HETATM   36  C   UNL     1     -11.108   7.608  72.861  1.00  0.00    -0.448 A  
HETATM   37  C   UNL     1     -10.342   8.542  72.144  1.00  0.00    -0.409 A  
ENDBRANCH  26  27
ENDBRANCH  16  26
ENDBRANCH   4   5
ENDBRANCH   3   4
TORSDOF 5
ENDMDL
MODEL       19
REMARK 921   NORMALIZED FREE ENERGY PREDICTED BY IDOCK:   -7.83 KCAL/MOL
REMARK 922        TOTAL FREE ENERGY PREDICTED BY IDOCK:  -10.62 KCAL/MOL
REMARK 923 INTER-LIGAND FREE ENERGY PREDICTED BY IDOCK:  -10.23 KCAL/MOL
REMARK 924 INTRA-LIGAND FREE ENERGY PREDICTED BY IDOCK:   -0.39 KCAL/MOL
REMARK 927      BINDING AFFINITY PREDICTED BY RF-SCORE:    0.00 PKD
ROOT
HETATM    1  C   UNL     1      -6.490  10.929  69.679  1.00  0.00    -0.114 C  
HETATM    2  C   UNL     1      -7.860  10.294  69.498  1.00  0.00    -0.172 C  
HETATM    3  C   UNL     1      -9.035   9.750  69.342  1.00  0.00    -0.197 C  
ENDROOT
BRANCH   3   4
HETATM    4  C   UNL     1     -10.404   9.117  69.160  1.00  0.00    -0.212 C  
BRANCH   4   5
HETATM    5  N   UNL     1     -11.367   9.924  70.003  1.00  0.00    -0.254 NA 
HETATM    6  C   UNL     1     -12.081   9.479  71.144  1.00  0.00    -0.347 A  
HETATM    7  N   UNL     1     -12.712  10.486  71.716  1.00  0.00    -0.428 NA 
HETATM    8  N   UNL     1     -12.950  12.835  71.221  1.00  0.00    -0.284 N  
HETATM    9  C   UNL     1     -12.499  11.562  70.931  1.00  0.00    -0.366 A  
HETATM   10  O   UNL     1     -12.610  15.055  70.807  1.00  0.00    -0.321 OA 
HETATM   11  C   UNL     1     -11.730  11.277  69.833  1.00  0.00    -0.352 A  
HETATM   12  C   UNL     1     -13.723  13.093  72.422  1.00  0.00    -0.540 C  
HETATM   13  C   UNL     1     -11.478  12.296  68.845  1.00  0.00    -0.304 C  
HETATM   14  C   UNL     1     -12.558  13.885  70.410  1.00  0.00    -0.282 C  
HETATM   15  O   UNL     1     -10.784  12.094  67.854  1.00  0.00    -0.196 OA 
HETATM   16  N   UNL     1     -12.065  13.547  69.139  1.00  0.00    -0.320 N  
BRANCH   6  17
HETATM   17  N   UNL     1     -12.066   8.224  71.686  1.00  0.00    -0.292 NA 
HETATM   18  N   UNL     1      -8.919   7.721  71.878  1.00  0.00    -0.122 NA 
HETATM   19  C   UNL     1     -10.431   5.776  71.763  1.00  0.00    -0.281 C  
HETATM   20  C   UNL     1     -11.227   7.920  72.858  1.00  0.00    -0.366 C  
HETATM   21  C   UNL     1     -11.133   6.195  70.480  1.00  0.00    -0.405 C  
HETATM   22  C   UNL     1     -12.342   7.089  70.771  1.00  0.00    -0.258 C  
HETATM   23  C   UNL     1     -10.004   7.006  72.565  1.00  0.00    -0.170 C  
HETATM   24  H1  UNL     1      -8.633   8.541  72.413  1.00  0.00     0.000 HD 
HETATM   25  H2  UNL     1      -9.172   7.963  70.920  1.00  0.00     0.000 HD 
ENDBRANCH   6  17
BRANCH  16  26
HETATM   26  C   UNL     1     -11.892  14.697  68.216  1.00  0.00    -0.298 C  
BRANCH  26  27
HETATM   27  C   UNL     1     -10.753  15.695  68.530  1.00  0.00    -0.264 A  
HETATM   28  N   UNL     1     -10.884  16.971  68.086  1.00  0.00    -0.372 NA 
HETATM   29  C   UNL     1      -9.822  17.804  68.173  1.00  0.00    -0.326 A  
HETATM   30  C   UNL     1      -8.587  17.391  68.691  1.00  0.00    -0.259 A  
HETATM   31  C   UNL     1      -7.482  18.302  68.687  1.00  0.00    -0.308 A  
HETATM   32  C   UNL     1      -8.563  16.073  69.168  1.00  0.00    -0.247 A  
HETATM   33  C   UNL     1      -7.604  19.601  68.200  1.00  0.00    -0.342 A  
HETATM   34  C   UNL     1      -7.311  15.430  69.695  1.00  0.00    -0.177 C  
HETATM   35  N   UNL     1      -9.630  15.243  69.115  1.00  0.00    -0.230 NA 
HETATM   36  C   UNL     1      -8.834  20.017  67.719  1.00  0.00    -0.379 A  
HETATM   37  C   UNL     1      -9.916  19.121  67.713  1.00  0.00    -0.440 A  
ENDBRANCH  26  27
ENDBRANCH  16  26
ENDBRANCH   4   5
ENDBRANCH   3   4
TORSDOF 5
ENDMDL
MODEL       20
REMARK 921   NORMALIZED FREE ENERGY PREDICTED BY IDOCK:   -7.81 KCAL/MOL
REMARK 922        TOTAL FREE ENERGY PREDICTED BY IDOCK:  -10.59 KCAL/MOL
REMARK 923 INTER-LIGAND FREE ENERGY PREDICTED BY IDOCK:   -9.87 KCAL/MOL
REMARK 924 INTRA-LIGAND FREE ENERGY PREDICTED BY IDOCK:   -0.72 KCAL/MOL
REMARK 927      BINDING AFFINITY PREDICTED BY RF-SCORE:    0.00 PKD
ROOT
HETATM    1  C   UNL     1     -10.491  11.191  63.282  1.00  0.00    -0.323 C  
HETATM    2  C   UNL     1      -9.847  10.998  64.646  1.00  0.00    -0.338 C  
HETATM    3  C   UNL     1      -9.295  10.834  65.816  1.00  0.00    -0.235 C  
ENDROOT
BRANCH   3   4
HETATM    4  C   UNL     1      -8.652  10.642  67.179  1.00  0.00    -0.127 C  
BRANCH   4   5
HETATM    5  N   UNL     1      -9.772  10.710  68.196  1.00  0.00    -0.153 NA 
HETATM    6  C   UNL     1     -10.269   9.646  68.990  1.00  0.00    -0.199 A  
HETATM    7  N   UNL     1     -11.143  10.096  69.870  1.00  0.00    -0.273 NA 
HETATM    8  N   UNL     1     -12.090  12.259  70.361  1.00  0.00    -0.349 N  
HETATM    9  C   UNL     1     -11.295  11.412  69.614  1.00  0.00    -0.275 A  
HETATM   10  O   UNL     1     -12.442  14.444  70.923  1.00  0.00    -0.308 OA 
HETATM   11  C   UNL     1     -10.527  11.844  68.565  1.00  0.00    -0.224 A  
HETATM   12  C   UNL     1     -12.849  11.760  71.494  1.00  0.00    -0.345 C  
HETATM   13  C   UNL     1     -10.634  13.206  68.105  1.00  0.00    -0.245 C  
HETATM   14  C   UNL     1     -12.064  13.616  70.087  1.00  0.00    -0.361 C  
HETATM   15  O   UNL     1      -9.957  13.643  67.181  1.00  0.00    -0.239 OA 
HETATM   16  N   UNL     1     -11.552  13.994  68.836  1.00  0.00    -0.291 N  
BRANCH   6  17
HETATM   17  N   UNL     1      -9.857   8.343  68.970  1.00  0.00    -0.178 NA 
HETATM   18  N   UNL     1     -12.424   6.912  70.217  1.00  0.00    -0.560 NA 
HETATM   19  C   UNL     1     -10.233   5.795  70.398  1.00  0.00    -0.288 C  
HETATM   20  C   UNL     1     -10.718   7.289  68.408  1.00  0.00    -0.121 C  
HETATM   21  C   UNL     1      -9.516   6.958  71.070  1.00  0.00    -0.163 C  
HETATM   22  C   UNL     1      -8.917   7.916  70.036  1.00  0.00    -0.145 C  
HETATM   23  C   UNL     1     -11.321   6.311  69.455  1.00  0.00    -0.404 C  
HETATM   24  H1  UNL     1     -13.150   7.256  69.588  1.00  0.00     0.000 HD 
HETATM   25  H2  UNL     1     -12.095   7.642  70.849  1.00  0.00     0.000 HD 
ENDBRANCH   6  17
BRANCH  16  26
HETATM   26  C   UNL     1     -11.771  15.419  68.482  1.00  0.00    -0.338 C  
BRANCH  26  27
HETATM   27  C   UNL     1     -10.569  16.382  68.636  1.00  0.00    -0.305 A  
HETATM   28  N   UNL     1     -10.691  17.638  68.137  1.00  0.00    -0.354 NA 
HETATM   29  C   UNL     1      -9.595  18.427  68.081  1.00  0.00    -0.316 A  
HETATM   30  C   UNL     1      -8.333  17.987  68.506  1.00  0.00    -0.313 A  
HETATM   31  C   UNL     1      -7.200  18.848  68.352  1.00  0.00    -0.309 A  
HETATM   32  C   UNL     1      -8.316  16.695  69.050  1.00  0.00    -0.182 A  
HETATM   33  C   UNL     1      -7.317  20.125  67.807  1.00  0.00    -0.333 A  
HETATM   34  C   UNL     1      -7.046  16.026  69.494  1.00  0.00    -0.181 C  
HETATM   35  N   UNL     1      -9.415  15.911  69.140  1.00  0.00    -0.245 NA 
HETATM   36  C   UNL     1      -8.569  20.569  67.419  1.00  0.00    -0.361 A  
HETATM   37  C   UNL     1      -9.681  19.722  67.560  1.00  0.00    -0.490 A  
ENDBRANCH  26  27
ENDBRANCH  16  26
ENDBRANCH   4   5
ENDBRANCH   3   4
TORSDOF 5
ENDMDL
MODEL       21
REMARK 921   NORMALIZED FREE ENERGY PREDICTED BY IDOCK:   -7.79 KCAL/MOL
REMARK 922        TOTAL FREE ENERGY PREDICTED BY IDOCK:  -10.57 KCAL/MOL
REMARK 923 INTER-LIGAND FREE ENERGY PREDICTED BY IDOCK:   -9.37 KCAL/MOL
REMARK 924 INTRA-LIGAND FREE ENERGY PREDICTED BY IDOCK:   -1.20 KCAL/MOL
REMARK 927      BINDING AFFINITY PREDICTED BY RF-SCORE:    0.00 PKD
ROOT
HETATM    1  C   UNL     1      -9.776   9.091  71.013  1.00  0.00    -0.348 C  
HETATM    2  C   UNL     1      -8.877   9.638  69.915  1.00  0.00    -0.240 C  
HETATM    3  C   UNL     1      -8.107  10.108  68.974  1.00  0.00    -0.125 C  
ENDROOT
BRANCH   3   4
HETATM    4  C   UNL     1      -7.208  10.655  67.877  1.00  0.00    -0.087 C  
BRANCH   4   5
HETATM    5  N   UNL     1      -8.102  10.931  66.687  1.00  0.00    -0.141 NA 
HETATM    6  C   UNL     1      -8.136  10.219  65.462  1.00  0.00    -0.156 A  
HETATM    7  N   UNL     1      -9.135  10.639  64.711  1.00  0.00    -0.201 NA 
HETATM    8  N   UNL     1     -10.827  12.343  64.942  1.00  0.00    -0.286 N  
HETATM    9  C   UNL     1      -9.703  11.666  65.376  1.00  0.00    -0.229 A  
HETATM   10  O   UNL     1     -12.571  13.651  65.620  1.00  0.00    -0.479 OA 
HETATM   11  C   UNL     1      -9.086  11.936  66.569  1.00  0.00    -0.211 A  
HETATM   12  C   UNL     1     -11.473  11.987  63.692  1.00  0.00    -0.468 C  
HETATM   13  C   UNL     1      -9.514  13.059  67.365  1.00  0.00    -0.210 C  
HETATM   14  C   UNL     1     -11.399  13.291  65.773  1.00  0.00    -0.307 C  
HETATM   15  O   UNL     1      -9.003  13.332  68.446  1.00  0.00    -0.179 OA 
HETATM   16  N   UNL     1     -10.593  13.785  66.811  1.00  0.00    -0.272 N  
BRANCH   6  17
HETATM   17  N   UNL     1      -7.345   9.164  65.102  1.00  0.00    -0.095 NA 
HETATM   18  N   UNL     1      -8.750   8.302  62.368  1.00  0.00    -0.430 NA 
HETATM   19  C   UNL     1      -7.444   6.623  63.616  1.00  0.00    -0.083 C  
HETATM   20  C   UNL     1      -6.788   9.069  63.741  1.00  0.00    -0.088 C  
HETATM   21  C   UNL     1      -8.197   6.779  64.929  1.00  0.00    -0.082 C  
HETATM   22  C   UNL     1      -7.578   7.876  65.801  1.00  0.00    -0.083 C  
HETATM   23  C   UNL     1      -7.410   7.951  62.858  1.00  0.00    -0.103 C  
HETATM   24  H1  UNL     1      -8.728   9.187  61.862  1.00  0.00     0.000 HD 
HETATM   25  H2  UNL     1      -9.438   8.313  63.121  1.00  0.00     0.000 HD 
ENDBRANCH   6  17
BRANCH  16  26
HETATM   26  C   UNL     1     -11.147  14.967  67.517  1.00  0.00    -0.317 C  
BRANCH  26  27
HETATM   27  C   UNL     1     -11.744  14.739  68.926  1.00  0.00    -0.309 A  
HETATM   28  N   UNL     1     -11.724  15.775  69.802  1.00  0.00    -0.345 NA 
HETATM   29  C   UNL     1     -12.053  15.544  71.093  1.00  0.00    -0.380 A  
HETATM   30  C   UNL     1     -12.401  14.269  71.561  1.00  0.00    -0.417 A  
HETATM   31  C   UNL     1     -12.668  14.080  72.955  1.00  0.00    -0.274 A  
HETATM   32  C   UNL     1     -12.440  13.274  70.574  1.00  0.00    -0.260 A  
HETATM   33  C   UNL     1     -12.614  15.136  73.862  1.00  0.00    -0.690 A  
HETATM   34  C   UNL     1     -12.723  11.833  70.894  1.00  0.00    -0.328 C  
HETATM   35  N   UNL     1     -12.143  13.503  69.274  1.00  0.00    -0.316 NA 
HETATM   36  C   UNL     1     -12.303  16.400  73.392  1.00  0.00    -0.561 A  
HETATM   37  C   UNL     1     -12.030  16.586  72.026  1.00  0.00    -0.270 A  
ENDBRANCH  26  27
ENDBRANCH  16  26
ENDBRANCH   4   5
ENDBRANCH   3   4
TORSDOF 5
ENDMDL
MODEL       22
REMARK 921   NORMALIZED FREE ENERGY PREDICTED BY IDOCK:   -7.79 KCAL/MOL
REMARK 922        TOTAL FREE ENERGY PREDICTED BY IDOCK:  -10.57 KCAL/MOL
REMARK 923 INTER-LIGAND FREE ENERGY PREDICTED BY IDOCK:   -9.18 KCAL/MOL
REMARK 924 INTRA-LIGAND FREE ENERGY PREDICTED BY IDOCK:   -1.39 KCAL/MOL
REMARK 927      BINDING AFFINITY PREDICTED BY RF-SCORE:    0.00 PKD
ROOT
HETATM    1  C   UNL     1      -5.563  13.953  71.888  1.00  0.00    -0.198 C  
HETATM    2  C   UNL     1      -5.808  14.148  70.400  1.00  0.00    -0.158 C  
HETATM    3  C   UNL     1      -6.018  14.315  69.124  1.00  0.00    -0.092 C  
ENDROOT
BRANCH   3   4
HETATM    4  C   UNL     1      -6.263  14.509  67.636  1.00  0.00    -0.080 C  
BRANCH   4   5
HETATM    5  N   UNL     1      -7.749  14.745  67.473  1.00  0.00    -0.179 NA 
HETATM    6  C   UNL     1      -8.408  15.996  67.383  1.00  0.00    -0.167 A  
HETATM    7  N   UNL     1      -9.685  15.826  67.097  1.00  0.00    -0.222 NA 
HETATM    8  N   UNL     1     -11.103  13.904  66.764  1.00  0.00    -0.299 N  
HETATM    9  C   UNL     1      -9.896  14.494  67.083  1.00  0.00    -0.245 A  
HETATM   10  O   UNL     1     -12.079  11.975  66.027  1.00  0.00    -0.561 OA 
HETATM   11  C   UNL     1      -8.765  13.772  67.361  1.00  0.00    -0.207 A  
HETATM   12  C   UNL     1     -12.261  14.714  66.431  1.00  0.00    -0.137 C  
HETATM   13  C   UNL     1      -8.834  12.337  67.470  1.00  0.00    -0.182 C  
HETATM   14  C   UNL     1     -11.166  12.526  66.652  1.00  0.00    -0.307 C  
HETATM   15  O   UNL     1      -7.848  11.646  67.702  1.00  0.00    -0.121 OA 
HETATM   16  N   UNL     1     -10.123  11.799  67.249  1.00  0.00    -0.192 N  
BRANCH   6  17
HETATM   17  N   UNL     1      -7.836  17.236  67.459  1.00  0.00    -0.179 NA 
HETATM   18  N   UNL     1     -10.165  18.854  68.925  1.00  0.00    -0.495 NA 
HETATM   19  C   UNL     1      -8.548  20.092  67.535  1.00  0.00    -0.401 C  
HETATM   20  C   UNL     1      -7.815  17.979  68.730  1.00  0.00    -0.258 C  
HETATM   21  C   UNL     1      -8.767  19.275  66.270  1.00  0.00    -0.333 C  
HETATM   22  C   UNL     1      -7.839  18.058  66.224  1.00  0.00    -0.253 C  
HETATM   23  C   UNL     1      -8.750  19.221  68.775  1.00  0.00    -0.346 C  
HETATM   24  H1  UNL     1     -10.301  18.273  69.752  1.00  0.00     0.000 HD 
HETATM   25  H2  UNL     1     -10.532  18.407  68.084  1.00  0.00     0.000 HD 
ENDBRANCH   6  17
BRANCH  16  26
HETATM   26  C   UNL     1     -10.352  10.335  67.325  1.00  0.00    -0.232 C  
BRANCH  26  27
HETATM   27  C   UNL     1     -10.662   9.736  68.718  1.00  0.00    -0.215 A  
HETATM   28  N   UNL     1     -10.316   8.444  68.947  1.00  0.00    -0.218 NA 
HETATM   29  C   UNL     1     -10.752   7.843  70.077  1.00  0.00    -0.244 A  
HETATM   30  C   UNL     1     -11.561   8.503  71.013  1.00  0.00    -0.317 A  
HETATM   31  C   UNL     1     -12.049   7.786  72.152  1.00  0.00    -0.346 A  
HETATM   32  C   UNL     1     -11.825   9.847  70.714  1.00  0.00    -0.330 A  
HETATM   33  C   UNL     1     -11.724   6.449  72.371  1.00  0.00    -0.286 A  
HETATM   34  C   UNL     1     -12.729  10.698  71.560  1.00  0.00    -0.549 C  
HETATM   35  N   UNL     1     -11.365  10.467  69.602  1.00  0.00    -0.257 NA 
HETATM   36  C   UNL     1     -10.898   5.809  71.463  1.00  0.00    -0.316 A  
HETATM   37  C   UNL     1     -10.427   6.508  70.340  1.00  0.00    -0.256 A  
ENDBRANCH  26  27
ENDBRANCH  16  26
ENDBRANCH   4   5
ENDBRANCH   3   4
TORSDOF 5
ENDMDL
MODEL       23
REMARK 921   NORMALIZED FREE ENERGY PREDICTED BY IDOCK:   -7.72 KCAL/MOL
REMARK 922        TOTAL FREE ENERGY PREDICTED BY IDOCK:  -10.47 KCAL/MOL
REMARK 923 INTER-LIGAND FREE ENERGY PREDICTED BY IDOCK:   -9.77 KCAL/MOL
REMARK 924 INTRA-LIGAND FREE ENERGY PREDICTED BY IDOCK:   -0.71 KCAL/MOL
REMARK 927      BINDING AFFINITY PREDICTED BY RF-SCORE:    0.00 PKD
ROOT
HETATM    1  C   UNL     1     -13.457   9.985  71.806  1.00  0.00    -0.422 C  
HETATM    2  C   UNL     1     -12.148  10.048  71.035  1.00  0.00    -0.469 C  
HETATM    3  C   UNL     1     -11.025  10.103  70.375  1.00  0.00    -0.386 C  
ENDROOT
BRANCH   3   4
HETATM    4  C   UNL     1      -9.716  10.166  69.605  1.00  0.00    -0.221 C  
BRANCH   4   5
HETATM    5  N   UNL     1     -10.078  10.464  68.166  1.00  0.00    -0.151 NA 
HETATM    6  C   UNL     1      -9.972   9.583  67.061  1.00  0.00    -0.213 A  
HETATM    7  N   UNL     1     -10.514  10.123  65.986  1.00  0.00    -0.151 NA 
HETATM    8  N   UNL     1     -11.560  12.242  65.500  1.00  0.00    -0.368 N  
HETATM    9  C   UNL     1     -10.894  11.368  66.338  1.00  0.00    -0.271 A  
HETATM   10  O   UNL     1     -12.912  14.081  65.446  1.00  0.00    -0.726 OA 
HETATM   11  C   UNL     1     -10.607  11.664  67.645  1.00  0.00    -0.203 A  
HETATM   12  C   UNL     1     -11.883  11.862  64.137  1.00  0.00    -0.318 C  
HETATM   13  C   UNL     1     -10.869  12.984  68.160  1.00  0.00    -0.247 C  
HETATM   14  C   UNL     1     -12.018  13.443  66.013  1.00  0.00    -0.415 C  
HETATM   15  O   UNL     1     -10.643  13.292  69.326  1.00  0.00    -0.054 OA 
HETATM   16  N   UNL     1     -11.443  13.870  67.220  1.00  0.00    -0.326 N  
BRANCH   6  17
HETATM   17  N   UNL     1      -9.491   8.303  67.071  1.00  0.00    -0.164 NA 
HETATM   18  N   UNL     1     -11.506   6.951  69.147  1.00  0.00    -0.560 NA 
HETATM   19  C   UNL     1      -9.277   5.946  68.823  1.00  0.00    -0.120 C  
HETATM   20  C   UNL     1     -10.399   7.156  66.898  1.00  0.00    -0.279 C  
HETATM   21  C   UNL     1      -8.486   7.209  69.129  1.00  0.00    -0.133 C  
HETATM   22  C   UNL     1      -8.266   8.049  67.868  1.00  0.00    -0.129 C  
HETATM   23  C   UNL     1     -10.617   6.298  68.176  1.00  0.00    -0.257 C  
HETATM   24  H1  UNL     1     -12.400   7.186  68.716  1.00  0.00     0.000 HD 
HETATM   25  H2  UNL     1     -11.066   7.767  69.574  1.00  0.00     0.000 HD 
ENDBRANCH   6  17
BRANCH  16  26
HETATM   26  C   UNL     1     -11.773  15.266  67.604  1.00  0.00    -0.167 C  
BRANCH  26  27
HETATM   27  C   UNL     1     -10.656  16.327  67.455  1.00  0.00    -0.307 A  
HETATM   28  N   UNL     1      -9.426  15.906  67.066  1.00  0.00    -0.218 NA 
HETATM   29  C   UNL     1      -8.392  16.775  67.121  1.00  0.00    -0.183 A  
HETATM   30  C   UNL     1      -8.544  18.091  67.580  1.00  0.00    -0.247 A  
HETATM   31  C   UNL     1      -7.393  18.938  67.682  1.00  0.00    -0.239 A  
HETATM   32  C   UNL     1      -9.858  18.448  67.913  1.00  0.00    -0.329 A  
HETATM   33  C   UNL     1      -6.124  18.497  67.317  1.00  0.00    -0.172 A  
HETATM   34  C   UNL     1     -10.207  19.791  68.490  1.00  0.00    -0.547 C  
HETATM   35  N   UNL     1     -10.905  17.594  67.830  1.00  0.00    -0.319 NA 
HETATM   36  C   UNL     1      -5.982  17.208  66.832  1.00  0.00    -0.224 A  
HETATM   37  C   UNL     1      -7.108  16.373  66.741  1.00  0.00    -0.233 A  
ENDBRANCH  26  27
ENDBRANCH  16  26
ENDBRANCH   4   5
ENDBRANCH   3   4
TORSDOF 5
ENDMDL
MODEL       24
REMARK 921   NORMALIZED FREE ENERGY PREDICTED BY IDOCK:   -7.71 KCAL/MOL
REMARK 922        TOTAL FREE ENERGY PREDICTED BY IDOCK:  -10.47 KCAL/MOL
REMARK 923 INTER-LIGAND FREE ENERGY PREDICTED BY IDOCK:   -9.18 KCAL/MOL
REMARK 924 INTRA-LIGAND FREE ENERGY PREDICTED BY IDOCK:   -1.29 KCAL/MOL
REMARK 927      BINDING AFFINITY PREDICTED BY RF-SCORE:    0.00 PKD
ROOT
HETATM    1  C   UNL     1      -5.211  10.789  65.900  1.00  0.00    -0.115 C  
HETATM    2  C   UNL     1      -6.641  10.426  65.533  1.00  0.00    -0.125 C  
HETATM    3  C   UNL     1      -7.868  10.114  65.220  1.00  0.00    -0.143 C  
ENDROOT
BRANCH   3   4
HETATM    4  C   UNL     1      -9.297   9.752  64.853  1.00  0.00    -0.265 C  
BRANCH   4   5
HETATM    5  N   UNL     1     -10.123   9.936  66.108  1.00  0.00    -0.255 NA 
HETATM    6  C   UNL     1     -10.442   8.947  67.072  1.00  0.00    -0.256 A  
HETATM    7  N   UNL     1     -11.050   9.490  68.108  1.00  0.00    -0.078 NA 
HETATM    8  N   UNL     1     -11.766  11.724  68.670  1.00  0.00    -0.311 N  
HETATM    9  C   UNL     1     -11.216  10.795  67.809  1.00  0.00    -0.316 A  
HETATM   10  O   UNL     1     -11.889  13.953  69.151  1.00  0.00    -0.313 OA 
HETATM   11  C   UNL     1     -10.720  11.126  66.575  1.00  0.00    -0.260 A  
HETATM   12  C   UNL     1     -12.234  11.331  69.987  1.00  0.00    -0.314 C  
HETATM   13  C   UNL     1     -10.891  12.463  66.065  1.00  0.00    -0.273 C  
HETATM   14  C   UNL     1     -11.762  13.059  68.307  1.00  0.00    -0.353 C  
HETATM   15  O   UNL     1     -10.453  12.812  64.973  1.00  0.00    -0.297 OA 
HETATM   16  N   UNL     1     -11.567  13.339  66.944  1.00  0.00    -0.345 N  
BRANCH   6  17
HETATM   17  N   UNL     1     -10.095   7.625  67.040  1.00  0.00    -0.240 NA 
HETATM   18  N   UNL     1     -11.685   6.553  69.593  1.00  0.00    -0.643 NA 
HETATM   19  C   UNL     1      -9.699   5.312  68.818  1.00  0.00    -0.203 C  
HETATM   20  C   UNL     1     -11.122   6.573  67.141  1.00  0.00    -0.360 C  
HETATM   21  C   UNL     1      -8.743   6.494  68.866  1.00  0.00    -0.127 C  
HETATM   22  C   UNL     1      -8.746   7.268  67.545  1.00  0.00    -0.121 C  
HETATM   23  C   UNL     1     -11.114   5.781  68.479  1.00  0.00     0.042 C  
HETATM   24  H1  UNL     1     -12.629   6.866  69.367  1.00  0.00     0.000 HD 
HETATM   25  H2  UNL     1     -11.082   7.330  69.862  1.00  0.00     0.000 HD 
ENDBRANCH   6  17
BRANCH  16  26
HETATM   26  C   UNL     1     -11.817  14.750  66.559  1.00  0.00    -0.228 C  
BRANCH  26  27
HETATM   27  C   UNL     1     -10.738  15.792  66.941  1.00  0.00    -0.299 A  
HETATM   28  N   UNL     1     -11.125  17.085  67.087  1.00  0.00     0.050 NA 
HETATM   29  C   UNL     1     -10.176  18.038  67.223  1.00  0.00    -0.364 A  
HETATM   30  C   UNL     1      -8.806  17.739  67.203  1.00  0.00    -0.251 A  
HETATM   31  C   UNL     1      -7.852  18.804  67.278  1.00  0.00    -0.243 A  
HETATM   32  C   UNL     1      -8.506  16.374  67.096  1.00  0.00    -0.183 A  
HETATM   33  C   UNL     1      -8.247  20.135  67.392  1.00  0.00    -0.385 A  
HETATM   34  C   UNL     1      -7.096  15.865  66.989  1.00  0.00    -0.207 C  
HETATM   35  N   UNL     1      -9.450  15.410  66.993  1.00  0.00    -0.214 NA 
HETATM   36  C   UNL     1      -9.600  20.425  67.445  1.00  0.00    -0.584 A  
HETATM   37  C   UNL     1     -10.537  19.382  67.361  1.00  0.00    -0.603 A  
ENDBRANCH  26  27
ENDBRANCH  16  26
ENDBRANCH   4   5
ENDBRANCH   3   4
TORSDOF 5
ENDMDL
MODEL       25
REMARK 921   NORMALIZED FREE ENERGY PREDICTED BY IDOCK:   -7.63 KCAL/MOL
REMARK 922        TOTAL FREE ENERGY PREDICTED BY IDOCK:  -10.37 KCAL/MOL
REMARK 923 INTER-LIGAND FREE ENERGY PREDICTED BY IDOCK:   -9.18 KCAL/MOL
REMARK 924 INTRA-LIGAND FREE ENERGY PREDICTED BY IDOCK:   -1.19 KCAL/MOL
REMARK 927      BINDING AFFINITY PREDICTED BY RF-SCORE:    0.00 PKD
ROOT
HETATM    1  C   UNL     1     -13.295  13.521  72.211  1.00  0.00    -0.628 C  
HETATM    2  C   UNL     1     -13.050  12.073  71.816  1.00  0.00    -0.460 C  
HETATM    3  C   UNL     1     -12.840  10.831  71.478  1.00  0.00    -0.567 C  
ENDROOT
BRANCH   3   4
HETATM    4  C   UNL     1     -12.596   9.384  71.083  1.00  0.00    -0.282 C  
BRANCH   4   5
HETATM    5  N   UNL     1     -11.161   9.304  70.608  1.00  0.00    -0.261 NA 
HETATM    6  C   UNL     1     -10.069   8.709  71.288  1.00  0.00    -0.242 A  
HETATM    7  N   UNL     1      -8.999   8.691  70.517  1.00  0.00    -0.153 NA 
HETATM    8  N   UNL     1      -8.502   9.481  68.292  1.00  0.00    -0.119 N  
HETATM    9  C   UNL     1      -9.338   9.337  69.382  1.00  0.00    -0.164 A  
HETATM   10  O   UNL     1      -8.449   9.869  66.043  1.00  0.00    -0.125 OA 
HETATM   11  C   UNL     1     -10.632   9.788  69.392  1.00  0.00    -0.228 A  
HETATM   12  C   UNL     1      -7.154   8.942  68.314  1.00  0.00    -0.078 C  
HETATM   13  C   UNL     1     -11.131  10.574  68.291  1.00  0.00    -0.284 C  
HETATM   14  C   UNL     1      -9.005  10.045  67.133  1.00  0.00    -0.135 C  
HETATM   15  O   UNL     1     -12.284  10.987  68.247  1.00  0.00    -0.582 OA 
HETATM   16  N   UNL     1     -10.190  10.787  67.258  1.00  0.00    -0.196 N  
BRANCH   6  17
HETATM   17  N   UNL     1     -10.090   8.120  72.521  1.00  0.00    -0.276 NA 
HETATM   18  N   UNL     1      -7.536   6.218  72.291  1.00  0.00    -0.093 NA 
HETATM   19  C   UNL     1      -9.321   5.627  73.887  1.00  0.00    -0.134 C  
HETATM   20  C   UNL     1      -8.875   8.065  73.351  1.00  0.00    -0.269 C  
HETATM   21  C   UNL     1     -10.453   5.632  72.870  1.00  0.00    -0.246 C  
HETATM   22  C   UNL     1     -11.071   7.026  72.730  1.00  0.00    -0.284 C  
HETATM   23  C   UNL     1      -8.251   6.649  73.501  1.00  0.00    -0.113 C  
HETATM   24  H1  UNL     1      -6.822   6.899  72.033  1.00  0.00     0.000 HD 
HETATM   25  H2  UNL     1      -8.176   6.031  71.520  1.00  0.00     0.000 HD 
ENDBRANCH   6  17
BRANCH  16  26
HETATM   26  C   UNL     1     -10.557  11.577  66.056  1.00  0.00    -0.261 C  
BRANCH  26  27
HETATM   27  C   UNL     1     -10.330  13.106  66.113  1.00  0.00    -0.284 A  
HETATM   28  N   UNL     1      -9.749  13.622  67.226  1.00  0.00    -0.237 NA 
HETATM   29  C   UNL     1      -9.722  14.965  67.384  1.00  0.00    -0.217 A  
HETATM   30  C   UNL     1     -10.286  15.841  66.446  1.00  0.00    -0.306 A  
HETATM   31  C   UNL     1     -10.288  17.248  66.711  1.00  0.00    -0.308 A  
HETATM   32  C   UNL     1     -10.819  15.218  65.309  1.00  0.00    -0.403 A  
HETATM   33  C   UNL     1      -9.723  17.778  67.869  1.00  0.00    -0.294 A  
HETATM   34  C   UNL     1     -11.528  15.985  64.229  1.00  0.00    -0.162 C  
HETATM   35  N   UNL     1     -10.821  13.877  65.127  1.00  0.00    -0.337 NA 
HETATM   36  C   UNL     1      -9.137  16.913  68.778  1.00  0.00    -0.254 A  
HETATM   37  C   UNL     1      -9.143  15.532  68.525  1.00  0.00    -0.196 A  
ENDBRANCH  26  27
ENDBRANCH  16  26
ENDBRANCH   4   5
ENDBRANCH   3   4
TORSDOF 5
ENDMDL
MODEL       26
REMARK 921   NORMALIZED FREE ENERGY PREDICTED BY IDOCK:   -7.62 KCAL/MOL
REMARK 922        TOTAL FREE ENERGY PREDICTED BY IDOCK:  -10.36 KCAL/MOL
REMARK 923 INTER-LIGAND FREE ENERGY PREDICTED BY IDOCK:   -9.89 KCAL/MOL
REMARK 924 INTRA-LIGAND FREE ENERGY PREDICTED BY IDOCK:   -0.46 KCAL/MOL
REMARK 927      BINDING AFFINITY PREDICTED BY RF-SCORE:    0.00 PKD
ROOT
HETATM    1  C   UNL     1     -12.281  15.446  72.723  1.00  0.00    -0.525 C  
HETATM    2  C   UNL     1     -12.190  15.436  71.205  1.00  0.00    -0.430 C  
HETATM    3  C   UNL     1     -12.112  15.428  69.903  1.00  0.00    -0.382 C  
ENDROOT
BRANCH   3   4
HETATM    4  C   UNL     1     -12.021  15.418  68.386  1.00  0.00    -0.132 C  
BRANCH   4   5
HETATM    5  N   UNL     1     -10.595  15.042  68.044  1.00  0.00    -0.246 NA 
HETATM    6  C   UNL     1      -9.454  15.882  68.103  1.00  0.00    -0.203 A  
HETATM    7  N   UNL     1      -8.356  15.186  67.880  1.00  0.00    -0.145 NA 
HETATM    8  N   UNL     1      -7.893  12.878  67.352  1.00  0.00    -0.174 N  
HETATM    9  C   UNL     1      -8.756  13.930  67.591  1.00  0.00    -0.187 A  
HETATM   10  O   UNL     1      -7.711  10.602  67.352  1.00  0.00    -0.103 OA 
HETATM   11  C   UNL     1     -10.118  13.784  67.619  1.00  0.00    -0.242 A  
HETATM   12  C   UNL     1      -6.455  13.075  67.381  1.00  0.00    -0.098 C  
HETATM   13  C   UNL     1     -10.716  12.526  67.250  1.00  0.00    -0.233 C  
HETATM   14  C   UNL     1      -8.415  11.606  67.198  1.00  0.00    -0.162 C  
HETATM   15  O   UNL     1     -11.928  12.342  67.273  1.00  0.00    -0.546 OA 
HETATM   16  N   UNL     1      -9.785  11.521  66.901  1.00  0.00    -0.185 N  
BRANCH   6  17
HETATM   17  N   UNL     1      -9.423  17.204  68.449  1.00  0.00    -0.267 NA 
HETATM   18  N   UNL     1     -10.418  18.533  65.721  1.00  0.00    -0.628 NA 
HETATM   19  C   UNL     1      -9.047  19.876  67.270  1.00  0.00    -0.434 C  
HETATM   20  C   UNL     1     -10.580  18.078  68.190  1.00  0.00    -0.319 C  
HETATM   21  C   UNL     1      -7.886  18.896  67.346  1.00  0.00    -0.255 C  
HETATM   22  C   UNL     1      -8.096  17.868  68.461  1.00  0.00    -0.301 C  
HETATM   23  C   UNL     1     -10.365  19.129  67.064  1.00  0.00    -0.414 C  
HETATM   24  H1  UNL     1     -11.297  18.034  65.583  1.00  0.00     0.000 HD 
HETATM   25  H2  UNL     1      -9.611  17.935  65.540  1.00  0.00     0.000 HD 
ENDBRANCH   6  17
BRANCH  16  26
HETATM   26  C   UNL     1     -10.249  10.169  66.499  1.00  0.00    -0.223 C  
BRANCH  26  27
HETATM   27  C   UNL     1     -10.588   9.170  67.631  1.00  0.00    -0.242 A  
HETATM   28  N   UNL     1     -10.788   9.664  68.879  1.00  0.00    -0.206 NA 
HETATM   29  C   UNL     1     -10.887   8.800  69.914  1.00  0.00    -0.206 A  
HETATM   30  C   UNL     1     -10.776   7.413  69.745  1.00  0.00    -0.252 A  
HETATM   31  C   UNL     1     -10.818   6.559  70.894  1.00  0.00    -0.302 A  
HETATM   32  C   UNL     1     -10.620   6.995  68.416  1.00  0.00    -0.202 A  
HETATM   33  C   UNL     1     -10.988   7.066  72.180  1.00  0.00    -0.267 A  
HETATM   34  C   UNL     1     -10.414   5.554  68.044  1.00  0.00    -0.240 C  
HETATM   35  N   UNL     1     -10.552   7.851  67.370  1.00  0.00    -0.285 NA 
HETATM   36  C   UNL     1     -11.130   8.434  72.341  1.00  0.00    -0.431 A  
HETATM   37  C   UNL     1     -11.079   9.274  71.216  1.00  0.00    -0.427 A  
ENDBRANCH  26  27
ENDBRANCH  16  26
ENDBRANCH   4   5
ENDBRANCH   3   4
TORSDOF 5
ENDMDL
MODEL       27
REMARK 921   NORMALIZED FREE ENERGY PREDICTED BY IDOCK:   -7.59 KCAL/MOL
REMARK 922        TOTAL FREE ENERGY PREDICTED BY IDOCK:  -10.31 KCAL/MOL
REMARK 923 INTER-LIGAND FREE ENERGY PREDICTED BY IDOCK:   -9.77 KCAL/MOL
REMARK 924 INTRA-LIGAND FREE ENERGY PREDICTED BY IDOCK:   -0.54 KCAL/MOL
REMARK 927      BINDING AFFINITY PREDICTED BY RF-SCORE:    0.00 PKD
ROOT
HETATM    1  C   UNL     1     -14.213   9.076  71.847  1.00  0.00    -0.357 C  
HETATM    2  C   UNL     1     -12.799   9.305  71.337  1.00  0.00    -0.398 C  
HETATM    3  C   UNL     1     -11.586   9.501  70.901  1.00  0.00    -0.398 C  
ENDROOT
BRANCH   3   4
HETATM    4  C   UNL     1     -10.172   9.729  70.391  1.00  0.00    -0.281 C  
BRANCH   4   5
HETATM    5  N   UNL     1     -10.291  10.013  68.909  1.00  0.00    -0.191 NA 
HETATM    6  C   UNL     1     -10.016   9.118  67.845  1.00  0.00    -0.186 A  
HETATM    7  N   UNL     1     -10.368   9.650  66.691  1.00  0.00    -0.230 NA 
HETATM    8  N   UNL     1     -11.294  11.774  66.018  1.00  0.00    -0.313 N  
HETATM    9  C   UNL     1     -10.785  10.904  66.963  1.00  0.00    -0.271 A  
HETATM   10  O   UNL     1     -12.597  13.626  65.724  1.00  0.00    -0.476 OA 
HETATM   11  C   UNL     1     -10.712  11.212  68.296  1.00  0.00    -0.196 A  
HETATM   12  C   UNL     1     -11.395  11.381  64.624  1.00  0.00    -0.086 C  
HETATM   13  C   UNL     1     -11.039  12.541  68.748  1.00  0.00    -0.270 C  
HETATM   14  C   UNL     1     -11.815  12.986  66.436  1.00  0.00    -0.405 C  
HETATM   15  O   UNL     1     -11.003  12.861  69.931  1.00  0.00     0.169 OA 
HETATM   16  N   UNL     1     -11.441  13.422  67.717  1.00  0.00    -0.297 N  
BRANCH   6  17
HETATM   17  N   UNL     1      -9.559   7.833  67.947  1.00  0.00    -0.144 NA 
HETATM   18  N   UNL     1     -11.884   6.537  69.711  1.00  0.00    -0.615 NA 
HETATM   19  C   UNL     1      -9.645   5.503  69.745  1.00  0.00    -0.215 C  
HETATM   20  C   UNL     1     -10.444   6.693  67.654  1.00  0.00    -0.227 C  
HETATM   21  C   UNL     1      -8.894   6.762  70.150  1.00  0.00    -0.141 C  
HETATM   22  C   UNL     1      -8.472   7.579  68.925  1.00  0.00    -0.129 C  
HETATM   23  C   UNL     1     -10.866   5.858  68.896  1.00  0.00    -0.303 C  
HETATM   24  H1  UNL     1     -12.698   6.774  69.145  1.00  0.00     0.000 HD 
HETATM   25  H2  UNL     1     -11.503   7.354  70.188  1.00  0.00     0.000 HD 
ENDBRANCH   6  17
BRANCH  16  26
HETATM   26  C   UNL     1     -11.812  14.825  68.027  1.00  0.00    -0.294 C  
BRANCH  26  27
HETATM   27  C   UNL     1     -10.699  15.895  67.920  1.00  0.00    -0.312 A  
HETATM   28  N   UNL     1     -11.070  17.200  67.886  1.00  0.00    -0.204 NA 
HETATM   29  C   UNL     1     -10.139  18.135  67.594  1.00  0.00    -0.359 A  
HETATM   30  C   UNL     1      -8.807  17.803  67.310  1.00  0.00    -0.240 A  
HETATM   31  C   UNL     1      -7.889  18.836  66.937  1.00  0.00    -0.252 A  
HETATM   32  C   UNL     1      -8.508  16.438  67.417  1.00  0.00    -0.178 A  
HETATM   33  C   UNL     1      -8.276  20.172  66.867  1.00  0.00    -0.363 A  
HETATM   34  C   UNL     1      -7.153  15.881  67.083  1.00  0.00    -0.240 C  
HETATM   35  N   UNL     1      -9.427  15.498  67.741  1.00  0.00    -0.204 NA 
HETATM   36  C   UNL     1      -9.584  20.502  67.180  1.00  0.00    -0.570 A  
HETATM   37  C   UNL     1     -10.489  19.488  67.536  1.00  0.00    -0.596 A  
ENDBRANCH  26  27
ENDBRANCH  16  26
ENDBRANCH   4   5
ENDBRANCH   3   4
TORSDOF 5
ENDMDL
MODEL       28
REMARK 921   NORMALIZED FREE ENERGY PREDICTED BY IDOCK:   -7.55 KCAL/MOL
REMARK 922        TOTAL FREE ENERGY PREDICTED BY IDOCK:  -10.26 KCAL/MOL
REMARK 923 INTER-LIGAND FREE ENERGY PREDICTED BY IDOCK:   -9.85 KCAL/MOL
REMARK 924 INTRA-LIGAND FREE ENERGY PREDICTED BY IDOCK:   -0.41 KCAL/MOL
REMARK 927      BINDING AFFINITY PREDICTED BY RF-SCORE:    0.00 PKD
ROOT
HETATM    1  C   UNL     1     -10.450  10.933  63.822  1.00  0.00    -0.329 C  
HETATM    2  C   UNL     1      -9.974  10.767  65.257  1.00  0.00    -0.342 C  
HETATM    3  C   UNL     1      -9.566  10.625  66.487  1.00  0.00    -0.218 C  
ENDROOT
BRANCH   3   4
HETATM    4  C   UNL     1      -9.089  10.459  67.920  1.00  0.00    -0.132 C  
BRANCH   4   5
HETATM    5  N   UNL     1     -10.196  10.991  68.805  1.00  0.00    -0.192 NA 
HETATM    6  C   UNL     1     -10.851  10.303  69.858  1.00  0.00    -0.302 A  
HETATM    7  N   UNL     1     -11.657  11.117  70.510  1.00  0.00    -0.272 NA 
HETATM    8  N   UNL     1     -12.281  13.435  70.268  1.00  0.00    -0.346 N  
HETATM    9  C   UNL     1     -11.613  12.297  69.859  1.00  0.00    -0.203 A  
HETATM   10  O   UNL     1     -12.315  15.713  70.118  1.00  0.00    -0.395 OA 
HETATM   11  C   UNL     1     -10.780  12.275  68.771  1.00  0.00    -0.214 A  
HETATM   12  C   UNL     1     -13.115  13.419  71.456  1.00  0.00    -0.342 C  
HETATM   13  C   UNL     1     -10.682  13.429  67.913  1.00  0.00    -0.247 C  
HETATM   14  C   UNL     1     -12.054  14.623  69.596  1.00  0.00    -0.311 C  
HETATM   15  O   UNL     1      -9.940  13.463  66.938  1.00  0.00    -0.241 OA 
HETATM   16  N   UNL     1     -11.481  14.523  68.319  1.00  0.00    -0.295 N  
BRANCH   6  17
HETATM   17  N   UNL     1     -10.635   9.013  70.258  1.00  0.00    -0.208 NA 
HETATM   18  N   UNL     1     -12.814   8.761  72.578  1.00  0.00    -0.516 NA 
HETATM   19  C   UNL     1     -10.841   7.282  72.630  1.00  0.00    -0.331 C  
HETATM   20  C   UNL     1     -11.758   8.071  70.402  1.00  0.00     0.007 C  
HETATM   21  C   UNL     1      -9.805   8.395  72.576  1.00  0.00    -0.359 C  
HETATM   22  C   UNL     1      -9.460   8.765  71.130  1.00  0.00    -0.240 C  
HETATM   23  C   UNL     1     -12.103   7.688  71.869  1.00  0.00    -0.298 C  
HETATM   24  H1  UNL     1     -13.656   9.032  72.070  1.00  0.00     0.000 HD 
HETATM   25  H2  UNL     1     -12.207   9.561  72.759  1.00  0.00     0.000 HD 
ENDBRANCH   6  17
BRANCH  16  26
HETATM   26  C   UNL     1     -11.484  15.784  67.537  1.00  0.00    -0.063 C  
BRANCH  26  27
HETATM   27  C   UNL     1     -10.300  16.757  67.752  1.00  0.00    -0.318 A  
HETATM   28  N   UNL     1      -9.154  16.258  68.279  1.00  0.00    -0.192 NA 
HETATM   29  C   UNL     1      -8.183  17.119  68.659  1.00  0.00    -0.255 A  
HETATM   30  C   UNL     1      -8.325  18.509  68.541  1.00  0.00    -0.359 A  
HETATM   31  C   UNL     1      -7.288  19.366  69.030  1.00  0.00    -0.395 A  
HETATM   32  C   UNL     1      -9.522  18.926  67.942  1.00  0.00    -0.305 A  
HETATM   33  C   UNL     1      -6.125  18.858  69.604  1.00  0.00    -0.285 A  
HETATM   34  C   UNL     1      -9.885  20.377  67.793  1.00  0.00    -0.494 C  
HETATM   35  N   UNL     1     -10.485  18.070  67.528  1.00  0.00    -0.387 NA 
HETATM   36  C   UNL     1      -5.972  17.484  69.690  1.00  0.00    -0.252 A  
HETATM   37  C   UNL     1      -6.993  16.642  69.220  1.00  0.00    -0.225 A  
ENDBRANCH  26  27
ENDBRANCH  16  26
ENDBRANCH   4   5
ENDBRANCH   3   4
TORSDOF 5
ENDMDL
MODEL       29
REMARK 921   NORMALIZED FREE ENERGY PREDICTED BY IDOCK:   -7.54 KCAL/MOL
REMARK 922        TOTAL FREE ENERGY PREDICTED BY IDOCK:  -10.25 KCAL/MOL
REMARK 923 INTER-LIGAND FREE ENERGY PREDICTED BY IDOCK:   -8.88 KCAL/MOL
REMARK 924 INTRA-LIGAND FREE ENERGY PREDICTED BY IDOCK:   -1.37 KCAL/MOL
REMARK 927      BINDING AFFINITY PREDICTED BY RF-SCORE:    0.00 PKD
ROOT
HETATM    1  C   UNL     1      -5.690  14.006  71.880  1.00  0.00    -0.169 C  
HETATM    2  C   UNL     1      -5.838  14.358  70.408  1.00  0.00    -0.158 C  
HETATM    3  C   UNL     1      -5.964  14.659  69.145  1.00  0.00    -0.100 C  
ENDROOT
BRANCH   3   4
HETATM    4  C   UNL     1      -6.112  15.011  67.674  1.00  0.00    -0.086 C  
BRANCH   4   5
HETATM    5  N   UNL     1      -7.598  15.085  67.397  1.00  0.00    -0.193 NA 
HETATM    6  C   UNL     1      -8.387  16.257  67.285  1.00  0.00    -0.180 A  
HETATM    7  N   UNL     1      -9.609  15.956  66.892  1.00  0.00    -0.224 NA 
HETATM    8  N   UNL     1     -10.770  13.899  66.398  1.00  0.00    -0.280 N  
HETATM    9  C   UNL     1      -9.666  14.609  66.829  1.00  0.00    -0.257 A  
HETATM   10  O   UNL     1     -11.460  11.900  65.538  1.00  0.00    -0.321 OA 
HETATM   11  C   UNL     1      -8.485  14.009  67.179  1.00  0.00    -0.190 A  
HETATM   12  C   UNL     1     -11.983  14.586  65.993  1.00  0.00    -0.311 C  
HETATM   13  C   UNL     1      -8.399  12.572  67.247  1.00  0.00    -0.185 C  
HETATM   14  C   UNL     1     -10.666  12.527  66.248  1.00  0.00    -0.260 C  
HETATM   15  O   UNL     1      -7.361  11.989  67.541  1.00  0.00    -0.116 OA 
HETATM   16  N   UNL     1      -9.596  11.902  66.909  1.00  0.00    -0.196 N  
BRANCH   6  17
HETATM   17  N   UNL     1      -7.967  17.550  67.437  1.00  0.00    -0.201 NA 
HETATM   18  N   UNL     1     -10.652  18.901  68.513  1.00  0.00    -0.365 NA 
HETATM   19  C   UNL     1      -8.979  20.314  67.379  1.00  0.00    -0.457 C  
HETATM   20  C   UNL     1      -8.221  18.281  68.691  1.00  0.00    -0.283 C  
HETATM   21  C   UNL     1      -8.913  19.489  66.102  1.00  0.00    -0.342 C  
HETATM   22  C   UNL     1      -7.867  18.376  66.210  1.00  0.00    -0.242 C  
HETATM   23  C   UNL     1      -9.277  19.417  68.580  1.00  0.00    -0.378 C  
HETATM   24  H1  UNL     1     -10.851  18.303  69.315  1.00  0.00     0.000 HD 
HETATM   25  H2  UNL     1     -10.835  18.425  67.630  1.00  0.00     0.000 HD 
ENDBRANCH   6  17
BRANCH  16  26
HETATM   26  C   UNL     1      -9.663  10.419  66.931  1.00  0.00    -0.181 C  
BRANCH  26  27
HETATM   27  C   UNL     1     -10.383   9.758  68.130  1.00  0.00    -0.202 A  
HETATM   28  N   UNL     1     -11.263  10.510  68.838  1.00  0.00    -0.258 NA 
HETATM   29  C   UNL     1     -11.750  10.021  70.001  1.00  0.00    -0.175 A  
HETATM   30  C   UNL     1     -11.368   8.771  70.507  1.00  0.00    -0.255 A  
HETATM   31  C   UNL     1     -11.866   8.345  71.780  1.00  0.00    -0.374 A  
HETATM   32  C   UNL     1     -10.494   8.048  69.683  1.00  0.00    -0.224 A  
HETATM   33  C   UNL     1     -12.742   9.131  72.525  1.00  0.00    -0.352 A  
HETATM   34  C   UNL     1      -9.919   6.720  70.087  1.00  0.00    -0.191 C  
HETATM   35  N   UNL     1     -10.027   8.516  68.502  1.00  0.00    -0.178 NA 
HETATM   36  C   UNL     1     -13.144  10.350  72.008  1.00  0.00    -0.521 A  
HETATM   37  C   UNL     1     -12.648  10.774  70.764  1.00  0.00    -0.476 A  
ENDBRANCH  26  27
ENDBRANCH  16  26
ENDBRANCH   4   5
ENDBRANCH   3   4
TORSDOF 5
ENDMDL
MODEL       30
REMARK 921   NORMALIZED FREE ENERGY PREDICTED BY IDOCK:   -7.49 KCAL/MOL
REMARK 922        TOTAL FREE ENERGY PREDICTED BY IDOCK:  -10.18 KCAL/MOL
REMARK 923 INTER-LIGAND FREE ENERGY PREDICTED BY IDOCK:   -9.06 KCAL/MOL
REMARK 924 INTRA-LIGAND FREE ENERGY PREDICTED BY IDOCK:   -1.13 KCAL/MOL
REMARK 927      BINDING AFFINITY PREDICTED BY RF-SCORE:    0.00 PKD
ROOT
HETATM    1  C   UNL     1     -12.826  14.218  71.984  1.00  0.00    -0.428 C  
HETATM    2  C   UNL     1     -12.505  14.559  70.537  1.00  0.00    -0.408 C  
HETATM    3  C   UNL     1     -12.230  14.852  69.297  1.00  0.00    -0.221 C  
ENDROOT
BRANCH   3   4
HETATM    4  C   UNL     1     -11.909  15.193  67.851  1.00  0.00    -0.170 C  
BRANCH   4   5
HETATM    5  N   UNL     1     -10.466  14.797  67.625  1.00  0.00    -0.252 NA 
HETATM    6  C   UNL     1      -9.328  15.638  67.709  1.00  0.00    -0.202 A  
HETATM    7  N   UNL     1      -8.221  14.929  67.600  1.00  0.00    -0.159 NA 
HETATM    8  N   UNL     1      -7.734  12.594  67.239  1.00  0.00    -0.161 N  
HETATM    9  C   UNL     1      -8.606  13.659  67.359  1.00  0.00    -0.209 A  
HETATM   10  O   UNL     1      -7.562  10.322  67.384  1.00  0.00    -0.094 OA 
HETATM   11  C   UNL     1      -9.968  13.516  67.306  1.00  0.00    -0.236 A  
HETATM   12  C   UNL     1      -6.301  12.792  67.350  1.00  0.00    -0.135 C  
HETATM   13  C   UNL     1     -10.546  12.238  66.973  1.00  0.00    -0.223 C  
HETATM   14  C   UNL     1      -8.251  11.316  67.126  1.00  0.00    -0.149 C  
HETATM   15  O   UNL     1     -11.758  12.057  66.927  1.00  0.00    -0.518 OA 
HETATM   16  N   UNL     1      -9.599  11.214  66.745  1.00  0.00    -0.189 N  
BRANCH   6  17
HETATM   17  N   UNL     1      -9.313  16.978  67.978  1.00  0.00    -0.240 NA 
HETATM   18  N   UNL     1      -7.441  18.017  65.610  1.00  0.00    -0.544 NA 
HETATM   19  C   UNL     1      -7.614  19.363  67.669  1.00  0.00    -0.292 C  
HETATM   20  C   UNL     1      -9.589  17.963  66.917  1.00  0.00    -0.300 C  
HETATM   21  C   UNL     1      -7.212  18.247  68.623  1.00  0.00    -0.293 C  
HETATM   22  C   UNL     1      -8.429  17.437  69.078  1.00  0.00    -0.056 C  
HETATM   23  C   UNL     1      -8.356  18.792  66.460  1.00  0.00    -0.297 C  
HETATM   24  H1  UNL     1      -7.936  17.636  64.803  1.00  0.00     0.000 HD 
HETATM   25  H2  UNL     1      -6.959  17.289  66.137  1.00  0.00     0.000 HD 
ENDBRANCH   6  17
BRANCH  16  26
HETATM   26  C   UNL     1     -10.042   9.842  66.394  1.00  0.00    -0.243 C  
BRANCH  26  27
HETATM   27  C   UNL     1     -10.443   8.905  67.559  1.00  0.00    -0.269 A  
HETATM   28  N   UNL     1     -10.672   9.463  68.775  1.00  0.00    -0.204 NA 
HETATM   29  C   UNL     1     -10.827   8.652  69.845  1.00  0.00    -0.208 A  
HETATM   30  C   UNL     1     -10.745   7.255  69.745  1.00  0.00    -0.253 A  
HETATM   31  C   UNL     1     -10.846   6.458  70.930  1.00  0.00    -0.316 A  
HETATM   32  C   UNL     1     -10.554   6.772  68.443  1.00  0.00    -0.227 A  
HETATM   33  C   UNL     1     -11.045   7.030  72.185  1.00  0.00    -0.279 A  
HETATM   34  C   UNL     1     -10.372   5.310  68.146  1.00  0.00    -0.181 C  
HETATM   35  N   UNL     1     -10.431   7.575  67.361  1.00  0.00    -0.273 NA 
HETATM   36  C   UNL     1     -11.159   8.407  72.277  1.00  0.00    -0.438 A  
HETATM   37  C   UNL     1     -11.050   9.191  71.116  1.00  0.00    -0.393 A  
ENDBRANCH  26  27
ENDBRANCH  16  26
ENDBRANCH   4   5
ENDBRANCH   3   4
TORSDOF 5
ENDMDL
MODEL       31
REMARK 921   NORMALIZED FREE ENERGY PREDICTED BY IDOCK:   -7.44 KCAL/MOL
REMARK 922        TOTAL FREE ENERGY PREDICTED BY IDOCK:  -10.12 KCAL/MOL
REMARK 923 INTER-LIGAND FREE ENERGY PREDICTED BY IDOCK:   -9.04 KCAL/MOL
REMARK 924 INTRA-LIGAND FREE ENERGY PREDICTED BY IDOCK:   -1.08 KCAL/MOL
REMARK 927      BINDING AFFINITY PREDICTED BY RF-SCORE:    0.00 PKD
ROOT
HETATM    1  C   UNL     1     -13.695  13.223  72.366  1.00  0.00    -0.678 C  
HETATM    2  C   UNL     1     -13.220  11.841  71.948  1.00  0.00    -0.468 C  
HETATM    3  C   UNL     1     -12.812  10.655  71.589  1.00  0.00    -0.570 C  
ENDROOT
BRANCH   3   4
HETATM    4  C   UNL     1     -12.336   9.274  71.171  1.00  0.00    -0.293 C  
BRANCH   4   5
HETATM    5  N   UNL     1     -10.917   9.441  70.671  1.00  0.00    -0.265 NA 
HETATM    6  C   UNL     1      -9.748   8.848  71.210  1.00  0.00    -0.289 A  
HETATM    7  N   UNL     1      -8.708   9.093  70.437  1.00  0.00    -0.194 NA 
HETATM    8  N   UNL     1      -8.369  10.340  68.400  1.00  0.00    -0.115 N  
HETATM    9  C   UNL     1      -9.149   9.902  69.452  1.00  0.00    -0.206 A  
HETATM   10  O   UNL     1      -8.430  11.153  66.267  1.00  0.00    -0.166 OA 
HETATM   11  C   UNL     1     -10.481  10.202  69.565  1.00  0.00    -0.241 A  
HETATM   12  C   UNL     1      -6.972   9.956  68.301  1.00  0.00    -0.072 C  
HETATM   13  C   UNL     1     -11.094  11.124  68.642  1.00  0.00    -0.239 C  
HETATM   14  C   UNL     1      -8.964  11.057  67.378  1.00  0.00    -0.141 C  
HETATM   15  O   UNL     1     -12.285  11.412  68.694  1.00  0.00    -0.532 OA 
HETATM   16  N   UNL     1     -10.215  11.630  67.658  1.00  0.00    -0.186 N  
BRANCH   6  17
HETATM   17  N   UNL     1      -9.668   8.036  72.307  1.00  0.00    -0.206 NA 
HETATM   18  N   UNL     1      -6.509   7.601  72.468  1.00  0.00    -0.058 NA 
HETATM   19  C   UNL     1      -7.997   5.909  73.470  1.00  0.00    -0.104 C  
HETATM   20  C   UNL     1      -8.727   8.336  73.400  1.00  0.00    -0.204 C  
HETATM   21  C   UNL     1      -8.812   5.648  72.212  1.00  0.00    -0.132 C  
HETATM   22  C   UNL     1     -10.005   6.604  72.112  1.00  0.00    -0.160 C  
HETATM   23  C   UNL     1      -7.520   7.361  73.507  1.00  0.00    -0.095 C  
HETATM   24  H1  UNL     1      -6.191   8.570  72.492  1.00  0.00     0.000 HD 
HETATM   25  H2  UNL     1      -6.847   7.337  71.543  1.00  0.00     0.000 HD 
ENDBRANCH   6  17
BRANCH  16  26
HETATM   26  C   UNL     1     -10.701  12.590  66.635  1.00  0.00    -0.236 C  
BRANCH  26  27
HETATM   27  C   UNL     1     -10.725  14.088  67.021  1.00  0.00    -0.284 A  
HETATM   28  N   UNL     1      -9.911  14.935  66.340  1.00  0.00    -0.262 NA 
HETATM   29  C   UNL     1      -9.767  16.202  66.788  1.00  0.00    -0.242 A  
HETATM   30  C   UNL     1     -10.418  16.668  67.939  1.00  0.00    -0.322 A  
HETATM   31  C   UNL     1     -10.165  18.000  68.400  1.00  0.00    -0.399 A  
HETATM   32  C   UNL     1     -11.273  15.738  68.546  1.00  0.00    -0.354 A  
HETATM   33  C   UNL     1      -9.303  18.859  67.722  1.00  0.00    -0.330 A  
HETATM   34  C   UNL     1     -12.002  16.030  69.827  1.00  0.00    -0.188 C  
HETATM   35  N   UNL     1     -11.448  14.477  68.086  1.00  0.00    -0.297 NA 
HETATM   36  C   UNL     1      -8.687  18.408  66.567  1.00  0.00    -0.291 A  
HETATM   37  C   UNL     1      -8.927  17.098  66.120  1.00  0.00    -0.217 A  
ENDBRANCH  26  27
ENDBRANCH  16  26
ENDBRANCH   4   5
ENDBRANCH   3   4
TORSDOF 5
ENDMDL
MODEL       32
REMARK 921   NORMALIZED FREE ENERGY PREDICTED BY IDOCK:   -7.43 KCAL/MOL
REMARK 922        TOTAL FREE ENERGY PREDICTED BY IDOCK:  -10.11 KCAL/MOL
REMARK 923 INTER-LIGAND FREE ENERGY PREDICTED BY IDOCK:   -9.08 KCAL/MOL
REMARK 924 INTRA-LIGAND FREE ENERGY PREDICTED BY IDOCK:   -1.03 KCAL/MOL
REMARK 927      BINDING AFFINITY PREDICTED BY RF-SCORE:    0.00 PKD
ROOT
HETATM    1  C   UNL     1     -13.146  11.882  63.346  1.00  0.00    -0.092 C  
HETATM    2  C   UNL     1     -11.938  11.994  64.263  1.00  0.00    -0.424 C  
HETATM    3  C   UNL     1     -10.902  12.091  65.049  1.00  0.00    -0.351 C  
ENDROOT
BRANCH   3   4
HETATM    4  C   UNL     1      -9.695  12.202  65.965  1.00  0.00    -0.244 C  
BRANCH   4   5
HETATM    5  N   UNL     1     -10.149  12.984  67.180  1.00  0.00    -0.241 NA 
HETATM    6  C   UNL     1     -10.035  14.382  67.385  1.00  0.00    -0.242 A  
HETATM    7  N   UNL     1     -10.667  14.740  68.486  1.00  0.00    -0.241 NA 
HETATM    8  N   UNL     1     -11.883  13.557  70.200  1.00  0.00    -0.302 N  
HETATM    9  C   UNL     1     -11.117  13.602  69.052  1.00  0.00    -0.255 A  
HETATM   10  O   UNL     1     -13.364  12.285  71.385  1.00  0.00    -0.189 OA 
HETATM   11  C   UNL     1     -10.786  12.482  68.334  1.00  0.00    -0.243 A  
HETATM   12  C   UNL     1     -12.246  14.777  70.899  1.00  0.00    -0.318 C  
HETATM   13  C   UNL     1     -11.117  11.175  68.844  1.00  0.00    -0.237 C  
HETATM   14  C   UNL     1     -12.400  12.342  70.614  1.00  0.00    -0.286 C  
HETATM   15  O   UNL     1     -10.856  10.145  68.231  1.00  0.00    -0.226 OA 
HETATM   16  N   UNL     1     -11.798  11.190  70.082  1.00  0.00    -0.336 N  
BRANCH   6  17
HETATM   17  N   UNL     1      -9.464  15.294  66.541  1.00  0.00    -0.263 NA 
HETATM   18  N   UNL     1      -8.387  17.433  68.652  1.00  0.00    -0.275 NA 
HETATM   19  C   UNL     1      -8.848  18.166  66.344  1.00  0.00    -0.255 C  
HETATM   20  C   UNL     1      -8.095  15.784  66.776  1.00  0.00    -0.262 C  
HETATM   21  C   UNL     1     -10.290  17.683  66.307  1.00  0.00    -0.342 C  
HETATM   22  C   UNL     1     -10.379  16.228  65.838  1.00  0.00    -0.365 C  
HETATM   23  C   UNL     1      -8.003  17.264  67.244  1.00  0.00    -0.187 C  
HETATM   24  H1  UNL     1      -7.824  16.831  69.254  1.00  0.00     0.000 HD 
HETATM   25  H2  UNL     1      -9.386  17.281  68.794  1.00  0.00     0.000 HD 
ENDBRANCH   6  17
BRANCH  16  26
HETATM   26  C   UNL     1     -12.207   9.920  70.733  1.00  0.00    -0.291 C  
BRANCH  26  27
HETATM   27  C   UNL     1     -11.114   8.845  70.943  1.00  0.00    -0.271 A  
HETATM   28  N   UNL     1     -11.233   7.675  70.265  1.00  0.00    -0.250 NA 
HETATM   29  C   UNL     1     -10.407   6.653  70.581  1.00  0.00    -0.202 A  
HETATM   30  C   UNL     1      -9.442   6.754  71.594  1.00  0.00    -0.155 A  
HETATM   31  C   UNL     1      -8.649   5.609  71.927  1.00  0.00    -0.131 A  
HETATM   32  C   UNL     1      -9.362   8.014  72.203  1.00  0.00    -0.190 A  
HETATM   33  C   UNL     1      -8.793   4.396  71.256  1.00  0.00    -0.152 A  
HETATM   34  C   UNL     1      -8.439   8.294  73.354  1.00  0.00    -0.267 C  
HETATM   35  N   UNL     1     -10.163   9.053  71.871  1.00  0.00    -0.335 NA 
HETATM   36  C   UNL     1      -9.723   4.309  70.234  1.00  0.00    -0.280 A  
HETATM   37  C   UNL     1     -10.509   5.428  69.913  1.00  0.00    -0.378 A  
ENDBRANCH  26  27
ENDBRANCH  16  26
ENDBRANCH   4   5
ENDBRANCH   3   4
TORSDOF 5
ENDMDL
MODEL       33
REMARK 921   NORMALIZED FREE ENERGY PREDICTED BY IDOCK:   -7.39 KCAL/MOL
REMARK 922        TOTAL FREE ENERGY PREDICTED BY IDOCK:  -10.05 KCAL/MOL
REMARK 923 INTER-LIGAND FREE ENERGY PREDICTED BY IDOCK:   -8.76 KCAL/MOL
REMARK 924 INTRA-LIGAND FREE ENERGY PREDICTED BY IDOCK:   -1.29 KCAL/MOL
REMARK 927      BINDING AFFINITY PREDICTED BY RF-SCORE:    0.00 PKD
ROOT
HETATM    1  C   UNL     1     -11.318   9.299  71.112  1.00  0.00    -0.412 C  
HETATM    2  C   UNL     1     -10.157   9.767  70.248  1.00  0.00    -0.323 C  
HETATM    3  C   UNL     1      -9.162  10.168  69.507  1.00  0.00    -0.223 C  
ENDROOT
BRANCH   3   4
HETATM    4  C   UNL     1      -8.002  10.635  68.643  1.00  0.00    -0.128 C  
BRANCH   4   5
HETATM    5  N   UNL     1      -8.584  10.976  67.288  1.00  0.00    -0.129 NA 
HETATM    6  C   UNL     1      -8.481  10.211  66.100  1.00  0.00    -0.130 A  
HETATM    7  N   UNL     1      -9.232  10.732  65.148  1.00  0.00    -0.201 NA 
HETATM    8  N   UNL     1     -10.649  12.677  64.985  1.00  0.00    -0.294 N  
HETATM    9  C   UNL     1      -9.755  11.867  65.657  1.00  0.00    -0.227 A  
HETATM   10  O   UNL     1     -12.269  14.263  65.257  1.00  0.00    -0.395 OA 
HETATM   11  C   UNL     1      -9.355  12.107  66.946  1.00  0.00    -0.203 A  
HETATM   12  C   UNL     1     -11.077  12.353  63.637  1.00  0.00    -0.473 C  
HETATM   13  C   UNL     1      -9.755  13.322  67.610  1.00  0.00    -0.219 C  
HETATM   14  C   UNL     1     -11.221  13.743  65.657  1.00  0.00    -0.302 C  
HETATM   15  O   UNL     1      -9.436  13.575  68.767  1.00  0.00    -0.104 OA 
HETATM   16  N   UNL     1     -10.574  14.168  66.828  1.00  0.00    -0.276 N  
BRANCH   6  17
HETATM   17  N   UNL     1      -7.808   9.032  65.935  1.00  0.00    -0.100 NA 
HETATM   18  N   UNL     1      -8.783   8.219  63.006  1.00  0.00    -0.406 NA 
HETATM   19  C   UNL     1      -8.012   6.448  64.539  1.00  0.00    -0.117 C  
HETATM   20  C   UNL     1      -7.024   8.776  64.715  1.00  0.00    -0.073 C  
HETATM   21  C   UNL     1      -8.968   6.790  65.672  1.00  0.00     0.019 C  
HETATM   22  C   UNL     1      -8.365   7.836  66.614  1.00  0.00    -0.126 C  
HETATM   23  C   UNL     1      -7.631   7.708  63.761  1.00  0.00    -0.118 C  
HETATM   24  H1  UNL     1      -8.529   9.060  62.487  1.00  0.00     0.000 HD 
HETATM   25  H2  UNL     1      -9.592   8.376  63.608  1.00  0.00     0.000 HD 
ENDBRANCH   6  17
BRANCH  16  26
HETATM   26  C   UNL     1     -11.068  15.456  67.377  1.00  0.00    -0.311 C  
BRANCH  26  27
HETATM   27  C   UNL     1     -10.132  16.683  67.261  1.00  0.00    -0.279 A  
HETATM   28  N   UNL     1      -9.010  16.703  68.024  1.00  0.00    -0.207 NA 
HETATM   29  C   UNL     1      -8.287  17.843  68.089  1.00  0.00    -0.267 A  
HETATM   30  C   UNL     1      -8.662  19.009  67.407  1.00  0.00    -0.301 A  
HETATM   31  C   UNL     1      -7.891  20.203  67.577  1.00  0.00    -0.344 A  
HETATM   32  C   UNL     1      -9.806  18.877  66.608  1.00  0.00    -0.358 A  
HETATM   33  C   UNL     1      -6.759  20.236  68.388  1.00  0.00    -0.316 A  
HETATM   34  C   UNL     1     -10.402  20.035  65.858  1.00  0.00    -0.529 C  
HETATM   35  N   UNL     1     -10.518  17.730  66.511  1.00  0.00    -0.330 NA 
HETATM   36  C   UNL     1      -6.371  19.075  69.035  1.00  0.00    -0.293 A  
HETATM   37  C   UNL     1      -7.132  17.905  68.877  1.00  0.00    -0.264 A  
ENDBRANCH  26  27
ENDBRANCH  16  26
ENDBRANCH   4   5
ENDBRANCH   3   4
TORSDOF 5
ENDMDL
MODEL       34
REMARK 921   NORMALIZED FREE ENERGY PREDICTED BY IDOCK:   -7.36 KCAL/MOL
REMARK 922        TOTAL FREE ENERGY PREDICTED BY IDOCK:  -10.02 KCAL/MOL
REMARK 923 INTER-LIGAND FREE ENERGY PREDICTED BY IDOCK:   -8.73 KCAL/MOL
REMARK 924 INTRA-LIGAND FREE ENERGY PREDICTED BY IDOCK:   -1.29 KCAL/MOL
REMARK 927      BINDING AFFINITY PREDICTED BY RF-SCORE:    0.00 PKD
ROOT
HETATM    1  C   UNL     1      -7.590   8.548  72.050  1.00  0.00    -0.132 C  
HETATM    2  C   UNL     1      -8.869   8.849  71.285  1.00  0.00    -0.298 C  
HETATM    3  C   UNL     1      -9.966   9.107  70.629  1.00  0.00    -0.307 C  
ENDROOT
BRANCH   3   4
HETATM    4  C   UNL     1     -11.245   9.407  69.863  1.00  0.00    -0.155 C  
BRANCH   4   5
HETATM    5  N   UNL     1     -10.836   9.664  68.429  1.00  0.00    -0.200 NA 
HETATM    6  C   UNL     1     -10.261   8.734  67.527  1.00  0.00    -0.246 A  
HETATM    7  N   UNL     1     -10.172   9.256  66.319  1.00  0.00    -0.249 NA 
HETATM    8  N   UNL     1     -10.705  11.405  65.360  1.00  0.00    -0.272 N  
HETATM    9  C   UNL     1     -10.593  10.533  66.426  1.00  0.00    -0.149 A  
HETATM   10  O   UNL     1     -11.735  13.307  64.630  1.00  0.00    -0.335 OA 
HETATM   11  C   UNL     1     -10.963  10.867  67.703  1.00  0.00    -0.293 A  
HETATM   12  C   UNL     1     -10.344  10.986  64.018  1.00  0.00    -0.371 C  
HETATM   13  C   UNL     1     -11.358  12.219  68.009  1.00  0.00    -0.293 C  
HETATM   14  C   UNL     1     -11.276  12.648  65.569  1.00  0.00    -0.302 C  
HETATM   15  O   UNL     1     -11.711  12.563  69.132  1.00  0.00    -0.289 OA 
HETATM   16  N   UNL     1     -11.340  13.094  66.899  1.00  0.00    -0.304 N  
BRANCH   6  17
HETATM   17  N   UNL     1      -9.931   7.432  67.786  1.00  0.00    -0.158 NA 
HETATM   18  N   UNL     1      -8.539   6.634  65.025  1.00  0.00    -0.346 NA 
HETATM   19  C   UNL     1      -9.519   4.855  66.423  1.00  0.00    -0.156 C  
HETATM   20  C   UNL     1      -8.570   6.933  67.522  1.00  0.00    -0.121 C  
HETATM   21  C   UNL     1     -10.909   5.468  66.511  1.00  0.00    -0.237 C  
HETATM   22  C   UNL     1     -11.021   6.430  67.697  1.00  0.00    -0.349 C  
HETATM   23  C   UNL     1      -8.457   5.950  66.323  1.00  0.00    -0.128 C  
HETATM   24  H1  UNL     1      -7.831   7.365  64.958  1.00  0.00     0.000 HD 
HETATM   25  H2  UNL     1      -9.476   6.998  64.848  1.00  0.00     0.000 HD 
ENDBRANCH   6  17
BRANCH  16  26
HETATM   26  C   UNL     1     -11.723  14.520  67.056  1.00  0.00    -0.393 C  
BRANCH  26  27
HETATM   27  C   UNL     1     -10.617  15.581  66.843  1.00  0.00    -0.307 A  
HETATM   28  N   UNL     1      -9.325  15.193  66.989  1.00  0.00    -0.220 NA 
HETATM   29  C   UNL     1      -8.359  16.138  67.004  1.00  0.00    -0.215 A  
HETATM   30  C   UNL     1      -8.646  17.505  66.890  1.00  0.00    -0.267 A  
HETATM   31  C   UNL     1      -7.581  18.458  66.987  1.00  0.00    -0.233 A  
HETATM   32  C   UNL     1     -10.001  17.805  66.694  1.00  0.00    -0.338 A  
HETATM   33  C   UNL     1      -6.258  18.064  67.172  1.00  0.00    -0.177 A  
HETATM   34  C   UNL     1     -10.511  19.216  66.619  1.00  0.00    -0.529 C  
HETATM   35  N   UNL     1     -10.972  16.863  66.645  1.00  0.00     0.038 NA 
HETATM   36  C   UNL     1      -5.973  16.711  67.252  1.00  0.00    -0.194 A  
HETATM   37  C   UNL     1      -7.017  15.776  67.167  1.00  0.00    -0.204 A  
ENDBRANCH  26  27
ENDBRANCH  16  26
ENDBRANCH   4   5
ENDBRANCH   3   4
TORSDOF 5
ENDMDL
MODEL       35
REMARK 921   NORMALIZED FREE ENERGY PREDICTED BY IDOCK:   -7.36 KCAL/MOL
REMARK 922        TOTAL FREE ENERGY PREDICTED BY IDOCK:  -10.01 KCAL/MOL
REMARK 923 INTER-LIGAND FREE ENERGY PREDICTED BY IDOCK:   -9.67 KCAL/MOL
REMARK 924 INTRA-LIGAND FREE ENERGY PREDICTED BY IDOCK:   -0.34 KCAL/MOL
REMARK 927      BINDING AFFINITY PREDICTED BY RF-SCORE:    0.00 PKD
ROOT
HETATM    1  C   UNL     1     -11.034   6.125  66.726  1.00  0.00    -0.322 C  
HETATM    2  C   UNL     1     -10.476   6.970  67.860  1.00  0.00    -0.267 C  
HETATM    3  C   UNL     1      -9.997   7.696  68.832  1.00  0.00    -0.178 C  
ENDROOT
BRANCH   3   4
HETATM    4  C   UNL     1      -9.441   8.541  69.965  1.00  0.00    -0.164 C  
BRANCH   4   5
HETATM    5  N   UNL     1     -10.608   9.316  70.537  1.00  0.00    -0.231 NA 
HETATM    6  C   UNL     1     -11.442   8.929  71.616  1.00  0.00    -0.339 A  
HETATM    7  N   UNL     1     -12.262   9.909  71.941  1.00  0.00    -0.331 NA 
HETATM    8  N   UNL     1     -12.674  12.126  71.083  1.00  0.00    -0.322 N  
HETATM    9  C   UNL     1     -12.047  10.896  71.047  1.00  0.00    -0.320 A  
HETATM   10  O   UNL     1     -12.517  14.301  70.407  1.00  0.00    -0.331 OA 
HETATM   11  C   UNL     1     -11.085  10.578  70.124  1.00  0.00    -0.298 A  
HETATM   12  C   UNL     1     -13.652  12.431  72.112  1.00  0.00    -0.306 C  
HETATM   13  C   UNL     1     -10.792  11.489  69.045  1.00  0.00    -0.212 C  
HETATM   14  C   UNL     1     -12.275  13.108  70.194  1.00  0.00    -0.290 C  
HETATM   15  O   UNL     1      -9.931  11.256  68.204  1.00  0.00    -0.170 OA 
HETATM   16  N   UNL     1     -11.552  12.680  69.069  1.00  0.00    -0.297 N  
BRANCH   6  17
HETATM   17  N   UNL     1     -11.377   7.765  72.330  1.00  0.00    -0.320 NA 
HETATM   18  N   UNL     1      -8.264   7.105  72.066  1.00  0.00    -0.100 NA 
HETATM   19  C   UNL     1      -9.840   5.259  72.498  1.00  0.00    -0.195 C  
HETATM   20  C   UNL     1     -10.357   7.580  73.377  1.00  0.00    -0.350 C  
HETATM   21  C   UNL     1     -10.740   5.533  71.302  1.00  0.00    -0.288 C  
HETATM   22  C   UNL     1     -11.848   6.531  71.655  1.00  0.00    -0.333 C  
HETATM   23  C   UNL     1      -9.237   6.561  73.024  1.00  0.00    -0.131 C  
HETATM   24  H1  UNL     1      -7.861   7.974  72.416  1.00  0.00     0.000 HD 
HETATM   25  H2  UNL     1      -8.672   7.224  71.138  1.00  0.00     0.000 HD 
ENDBRANCH   6  17
BRANCH  16  26
HETATM   26  C   UNL     1     -11.361  13.717  68.024  1.00  0.00    -0.285 C  
BRANCH  26  27
HETATM   27  C   UNL     1     -10.450  14.918  68.373  1.00  0.00    -0.243 A  
HETATM   28  N   UNL     1     -10.924  16.167  68.136  1.00  0.00    -0.334 NA 
HETATM   29  C   UNL     1     -10.079  17.217  68.244  1.00  0.00    -0.321 A  
HETATM   30  C   UNL     1      -8.727  17.059  68.578  1.00  0.00    -0.253 A  
HETATM   31  C   UNL     1      -7.870  18.206  68.604  1.00  0.00    -0.307 A  
HETATM   32  C   UNL     1      -8.342  15.739  68.851  1.00  0.00    -0.213 A  
HETATM   33  C   UNL     1      -8.347  19.485  68.327  1.00  0.00    -0.375 A  
HETATM   34  C   UNL     1      -6.920  15.362  69.157  1.00  0.00    -0.154 C  
HETATM   35  N   UNL     1      -9.189  14.686  68.777  1.00  0.00    -0.196 NA 
HETATM   36  C   UNL     1      -9.690  19.643  68.030  1.00  0.00    -0.501 A  
HETATM   37  C   UNL     1     -10.530  18.517  67.994  1.00  0.00    -0.395 A  
ENDBRANCH  26  27
ENDBRANCH  16  26
ENDBRANCH   4   5
ENDBRANCH   3   4
TORSDOF 5
ENDMDL
MODEL       36
REMARK 921   NORMALIZED FREE ENERGY PREDICTED BY IDOCK:   -7.28 KCAL/MOL
REMARK 922        TOTAL FREE ENERGY PREDICTED BY IDOCK:   -9.91 KCAL/MOL
REMARK 923 INTER-LIGAND FREE ENERGY PREDICTED BY IDOCK:   -8.76 KCAL/MOL
REMARK 924 INTRA-LIGAND FREE ENERGY PREDICTED BY IDOCK:   -1.15 KCAL/MOL
REMARK 927      BINDING AFFINITY PREDICTED BY RF-SCORE:    0.00 PKD
ROOT
HETATM    1  C   UNL     1      -7.319   9.099  71.409  1.00  0.00    -0.015 C  
HETATM    2  C   UNL     1      -8.484   8.885  70.456  1.00  0.00    -0.198 C  
HETATM    3  C   UNL     1      -9.483   8.702  69.638  1.00  0.00    -0.162 C  
ENDROOT
BRANCH   3   4
HETATM    4  C   UNL     1     -10.648   8.487  68.686  1.00  0.00    -0.118 C  
BRANCH   4   5
HETATM    5  N   UNL     1     -10.206   9.019  67.339  1.00  0.00    -0.226 NA 
HETATM    6  C   UNL     1      -9.317   8.397  66.427  1.00  0.00    -0.214 A  
HETATM    7  N   UNL     1      -9.274   9.070  65.293  1.00  0.00    -0.184 NA 
HETATM    8  N   UNL     1     -10.304  11.097  64.487  1.00  0.00    -0.315 N  
HETATM    9  C   UNL     1     -10.044  10.163  65.471  1.00  0.00    -0.268 A  
HETATM   10  O   UNL     1     -11.759  12.728  63.825  1.00  0.00    -0.416 OA 
HETATM   11  C   UNL     1     -10.602  10.225  66.721  1.00  0.00    -0.185 A  
HETATM   12  C   UNL     1      -9.726  10.960  63.162  1.00  0.00    -0.363 C  
HETATM   13  C   UNL     1     -11.385  11.372  67.106  1.00  0.00    -0.255 C  
HETATM   14  C   UNL     1     -11.216  12.105  64.745  1.00  0.00    -0.323 C  
HETATM   15  O   UNL     1     -11.916  11.467  68.207  1.00  0.00    -0.566 OA 
HETATM   16  N   UNL     1     -11.517  12.350  66.094  1.00  0.00    -0.359 N  
BRANCH   6  17
HETATM   17  N   UNL     1      -8.660   7.211  66.598  1.00  0.00    -0.119 NA 
HETATM   18  N   UNL     1      -8.327   6.297  63.557  1.00  0.00    -0.324 NA 
HETATM   19  C   UNL     1      -8.305   4.579  65.325  1.00  0.00    -0.121 C  
HETATM   20  C   UNL     1      -7.440   6.908  65.830  1.00  0.00    -0.084 C  
HETATM   21  C   UNL     1      -9.643   4.966  65.940  1.00  0.00    -0.185 C  
HETATM   22  C   UNL     1      -9.473   6.042  67.015  1.00  0.00    -0.127 C  
HETATM   23  C   UNL     1      -7.609   5.809  64.743  1.00  0.00    -0.086 C  
HETATM   24  H1  UNL     1      -7.862   7.118  63.167  1.00  0.00     0.000 HD 
HETATM   25  H2  UNL     1      -9.310   6.479  63.757  1.00  0.00     0.000 HD 
ENDBRANCH   6  17
BRANCH  16  26
HETATM   26  C   UNL     1     -12.296  13.589  66.340  1.00  0.00    -0.357 C  
BRANCH  26  27
HETATM   27  C   UNL     1     -11.550  14.783  66.981  1.00  0.00    -0.339 A  
HETATM   28  N   UNL     1     -10.576  15.389  66.255  1.00  0.00    -0.302 NA 
HETATM   29  C   UNL     1      -9.780  16.297  66.863  1.00  0.00    -0.238 A  
HETATM   30  C   UNL     1      -9.916  16.625  68.219  1.00  0.00    -0.261 A  
HETATM   31  C   UNL     1      -8.993  17.541  68.818  1.00  0.00    -0.211 A  
HETATM   32  C   UNL     1     -10.979  15.985  68.872  1.00  0.00    -0.309 A  
HETATM   33  C   UNL     1      -7.971  18.137  68.084  1.00  0.00    -0.290 A  
HETATM   34  C   UNL     1     -11.240  16.155  70.342  1.00  0.00    -0.394 C  
HETATM   35  N   UNL     1     -11.801  15.099  68.264  1.00  0.00    -0.306 NA 
HETATM   36  C   UNL     1      -7.858  17.838  66.737  1.00  0.00    -0.262 A  
HETATM   37  C   UNL     1      -8.757  16.931  66.150  1.00  0.00    -0.280 A  
ENDBRANCH  26  27
ENDBRANCH  16  26
ENDBRANCH   4   5
ENDBRANCH   3   4
TORSDOF 5
ENDMDL
MODEL       37
REMARK 921   NORMALIZED FREE ENERGY PREDICTED BY IDOCK:   -7.10 KCAL/MOL
REMARK 922        TOTAL FREE ENERGY PREDICTED BY IDOCK:   -9.67 KCAL/MOL
REMARK 923 INTER-LIGAND FREE ENERGY PREDICTED BY IDOCK:   -9.20 KCAL/MOL
REMARK 924 INTRA-LIGAND FREE ENERGY PREDICTED BY IDOCK:   -0.48 KCAL/MOL
REMARK 927      BINDING AFFINITY PREDICTED BY RF-SCORE:    0.00 PKD
ROOT
HETATM    1  C   UNL     1     -13.679   9.580  71.997  1.00  0.00    -0.435 C  
HETATM    2  C   UNL     1     -12.906  10.493  71.058  1.00  0.00    -0.502 C  
HETATM    3  C   UNL     1     -12.244  11.276  70.253  1.00  0.00    -0.428 C  
ENDROOT
BRANCH   3   4
HETATM    4  C   UNL     1     -11.471  12.189  69.315  1.00  0.00    -0.302 C  
BRANCH   4   5
HETATM    5  N   UNL     1     -10.973  11.319  68.182  1.00  0.00    -0.212 NA 
HETATM    6  C   UNL     1     -11.266  11.463  66.803  1.00  0.00    -0.252 A  
HETATM    7  N   UNL     1     -10.545  10.623  66.087  1.00  0.00    -0.187 NA 
HETATM    8  N   UNL     1      -8.930   8.908  66.608  1.00  0.00    -0.131 N  
HETATM    9  C   UNL     1      -9.851   9.872  66.967  1.00  0.00    -0.191 A  
HETATM   10  O   UNL     1      -7.119   7.721  67.332  1.00  0.00    -0.081 OA 
HETATM   11  C   UNL     1     -10.107  10.208  68.271  1.00  0.00    -0.156 A  
HETATM   12  C   UNL     1      -8.660   8.623  65.210  1.00  0.00    -0.180 C  
HETATM   13  C   UNL     1      -9.513   9.447  69.341  1.00  0.00    -0.173 C  
HETATM   14  C   UNL     1      -8.181   8.295  67.597  1.00  0.00    -0.127 C  
HETATM   15  O   UNL     1      -9.700   9.717  70.523  1.00  0.00    -0.259 OA 
HETATM   16  N   UNL     1      -8.671   8.397  68.909  1.00  0.00    -0.135 N  
BRANCH   6  17
HETATM   17  N   UNL     1     -12.084  12.397  66.229  1.00  0.00    -0.630 NA 
HETATM   18  N   UNL     1     -10.410  13.084  63.598  1.00  0.00    -0.623 NA 
HETATM   19  C   UNL     1     -11.991  14.760  64.475  1.00  0.00    -0.451 C  
HETATM   20  C   UNL     1     -12.467  12.293  64.811  1.00  0.00    -0.302 C  
HETATM   21  C   UNL     1     -11.403  14.817  65.878  1.00  0.00    -0.331 C  
HETATM   22  C   UNL     1     -12.042  13.769  66.793  1.00  0.00    -0.418 C  
HETATM   23  C   UNL     1     -11.825  13.361  63.881  1.00  0.00    -0.439 C  
HETATM   24  H1  UNL     1     -10.299  12.150  63.202  1.00  0.00     0.000 HD 
HETATM   25  H2  UNL     1      -9.826  13.216  64.424  1.00  0.00     0.000 HD 
ENDBRANCH   6  17
BRANCH  16  26
HETATM   26  C   UNL     1      -7.985   7.525  69.896  1.00  0.00    -0.123 C  
BRANCH  26  27
HETATM   27  C   UNL     1      -8.759   6.287  70.409  1.00  0.00    -0.146 A  
HETATM   28  N   UNL     1      -9.373   6.375  71.616  1.00  0.00    -0.145 NA 
HETATM   29  C   UNL     1      -9.882   5.252  72.171  1.00  0.00    -0.171 A  
HETATM   30  C   UNL     1      -9.784   3.999  71.551  1.00  0.00    -0.246 A  
HETATM   31  C   UNL     1     -10.280   2.838  72.228  1.00  0.00    -0.187 A  
HETATM   32  C   UNL     1      -9.177   4.016  70.288  1.00  0.00    -0.140 A  
HETATM   33  C   UNL     1     -10.879   2.921  73.483  1.00  0.00    -0.310 A  
HETATM   34  C   UNL     1      -8.920   2.762  69.501  1.00  0.00    -0.170 C  
HETATM   35  N   UNL     1      -8.694   5.140  69.709  1.00  0.00    -0.098 NA 
HETATM   36  C   UNL     1     -11.004   4.164  74.079  1.00  0.00    -0.248 A  
HETATM   37  C   UNL     1     -10.509   5.302  73.420  1.00  0.00    -0.270 A  
ENDBRANCH  26  27
ENDBRANCH  16  26
ENDBRANCH   4   5
ENDBRANCH   3   4
TORSDOF 5
ENDMDL
MODEL       38
REMARK 921   NORMALIZED FREE ENERGY PREDICTED BY IDOCK:   -7.06 KCAL/MOL
REMARK 922        TOTAL FREE ENERGY PREDICTED BY IDOCK:   -9.62 KCAL/MOL
REMARK 923 INTER-LIGAND FREE ENERGY PREDICTED BY IDOCK:   -8.82 KCAL/MOL
REMARK 924 INTRA-LIGAND FREE ENERGY PREDICTED BY IDOCK:   -0.80 KCAL/MOL
REMARK 927      BINDING AFFINITY PREDICTED BY RF-SCORE:    0.00 PKD
ROOT
HETATM    1  C   UNL     1      -7.073   6.539  67.405  1.00  0.00    -0.080 C  
HETATM    2  C   UNL     1      -7.499   6.647  68.861  1.00  0.00    -0.096 C  
HETATM    3  C   UNL     1      -7.865   6.740  70.109  1.00  0.00    -0.107 C  
ENDROOT
BRANCH   3   4
HETATM    4  C   UNL     1      -8.291   6.847  71.564  1.00  0.00    -0.114 C  
BRANCH   4   5
HETATM    5  N   UNL     1      -9.792   7.045  71.559  1.00  0.00    -0.173 NA 
HETATM    6  C   UNL     1     -10.775   6.125  72.001  1.00  0.00    -0.233 A  
HETATM    7  N   UNL     1     -11.969   6.684  71.990  1.00  0.00    -0.323 NA 
HETATM    8  N   UNL     1     -12.820   8.846  71.343  1.00  0.00    -0.313 N  
HETATM    9  C   UNL     1     -11.806   7.917  71.469  1.00  0.00    -0.289 A  
HETATM   10  O   UNL     1     -13.269  11.075  71.133  1.00  0.00    -0.280 OA 
HETATM   11  C   UNL     1     -10.505   8.185  71.131  1.00  0.00    -0.199 A  
HETATM   12  C   UNL     1     -14.174   8.529  71.760  1.00  0.00    -0.446 C  
HETATM   13  C   UNL     1     -10.170   9.428  70.482  1.00  0.00    -0.271 C  
HETATM   14  C   UNL     1     -12.508  10.126  70.918  1.00  0.00    -0.360 C  
HETATM   15  O   UNL     1      -9.020   9.719  70.173  1.00  0.00    -0.226 OA 
HETATM   16  N   UNL     1     -11.272  10.288  70.272  1.00  0.00    -0.303 N  
BRANCH   6  17
HETATM   17  N   UNL     1     -10.562   4.865  72.490  1.00  0.00    -0.211 NA 
HETATM   18  N   UNL     1      -7.938   5.363  74.238  1.00  0.00    -0.105 NA 
HETATM   19  C   UNL     1      -8.395   3.091  73.397  1.00  0.00    -0.073 C  
HETATM   20  C   UNL     1     -10.328   4.644  73.927  1.00  0.00    -0.228 C  
HETATM   21  C   UNL     1      -8.509   3.483  71.931  1.00  0.00    -0.095 C  
HETATM   22  C   UNL     1      -9.942   3.880  71.570  1.00  0.00    -0.139 C  
HETATM   23  C   UNL     1      -8.874   4.232  74.295  1.00  0.00    -0.094 C  
HETATM   24  H1  UNL     1      -8.257   6.125  74.837  1.00  0.00     0.000 HD 
HETATM   25  H2  UNL     1      -7.779   5.676  73.280  1.00  0.00     0.000 HD 
ENDBRANCH   6  17
BRANCH  16  26
HETATM   26  C   UNL     1     -11.084  11.607  69.617  1.00  0.00    -0.108 C  
BRANCH  26  27
HETATM   27  C   UNL     1     -11.254  11.666  68.080  1.00  0.00    -0.263 A  
HETATM   28  N   UNL     1     -10.524  10.808  67.324  1.00  0.00    -0.223 NA 
HETATM   29  C   UNL     1     -10.505  10.974  65.983  1.00  0.00    -0.245 A  
HETATM   30  C   UNL     1     -11.201  12.011  65.346  1.00  0.00    -0.374 A  
HETATM   31  C   UNL     1     -11.080  12.174  63.929  1.00  0.00    -0.470 A  
HETATM   32  C   UNL     1     -11.965  12.816  66.203  1.00  0.00    -0.414 A  
HETATM   33  C   UNL     1     -10.303  11.315  63.156  1.00  0.00    -0.338 A  
HETATM   34  C   UNL     1     -12.723  14.018  65.716  1.00  0.00    -0.487 C  
HETATM   35  N   UNL     1     -12.016  12.637  67.544  1.00  0.00    -0.429 NA 
HETATM   36  C   UNL     1      -9.642  10.271  63.782  1.00  0.00    -0.344 A  
HETATM   37  C   UNL     1      -9.752  10.116  65.174  1.00  0.00    -0.370 A  
ENDBRANCH  26  27
ENDBRANCH  16  26
ENDBRANCH   4   5
ENDBRANCH   3   4
TORSDOF 5
ENDMDL
MODEL       39
REMARK 921   NORMALIZED FREE ENERGY PREDICTED BY IDOCK:   -7.05 KCAL/MOL
REMARK 922        TOTAL FREE ENERGY PREDICTED BY IDOCK:   -9.62 KCAL/MOL
REMARK 923 INTER-LIGAND FREE ENERGY PREDICTED BY IDOCK:   -9.67 KCAL/MOL
REMARK 924 INTRA-LIGAND FREE ENERGY PREDICTED BY IDOCK:    0.05 KCAL/MOL
REMARK 927      BINDING AFFINITY PREDICTED BY RF-SCORE:    0.00 PKD
ROOT
HETATM    1  C   UNL     1     -13.778  15.348  71.489  1.00  0.00    -0.601 C  
HETATM    2  C   UNL     1     -12.472  15.539  70.736  1.00  0.00    -0.491 C  
HETATM    3  C   UNL     1     -11.351  15.703  70.090  1.00  0.00    -0.354 C  
ENDROOT
BRANCH   3   4
HETATM    4  C   UNL     1     -10.044  15.893  69.337  1.00  0.00    -0.267 C  
BRANCH   4   5
HETATM    5  N   UNL     1     -10.276  15.370  67.935  1.00  0.00    -0.237 NA 
HETATM    6  C   UNL     1     -10.197  16.106  66.727  1.00  0.00    -0.281 A  
HETATM    7  N   UNL     1     -10.312  15.301  65.688  1.00  0.00    -0.336 NA 
HETATM    8  N   UNL     1     -10.676  12.932  65.413  1.00  0.00    -0.280 N  
HETATM    9  C   UNL     1     -10.552  14.071  66.185  1.00  0.00    -0.290 A  
HETATM   10  O   UNL     1     -10.533  10.654  65.444  1.00  0.00    -0.258 OA 
HETATM   11  C   UNL     1     -10.599  14.050  67.555  1.00  0.00    -0.260 A  
HETATM   12  C   UNL     1     -10.571  13.001  63.967  1.00  0.00    -0.344 C  
HETATM   13  C   UNL     1     -10.930  12.829  68.246  1.00  0.00    -0.252 C  
HETATM   14  C   UNL     1     -10.787  11.705  66.042  1.00  0.00    -0.289 C  
HETATM   15  O   UNL     1     -10.970  12.756  69.470  1.00  0.00    -0.064 OA 
HETATM   16  N   UNL     1     -11.162  11.725  67.395  1.00  0.00    -0.276 N  
BRANCH   6  17
HETATM   17  N   UNL     1      -9.928  17.439  66.591  1.00  0.00    -0.294 NA 
HETATM   18  N   UNL     1      -7.310  17.682  68.404  1.00  0.00    -0.233 NA 
HETATM   19  C   UNL     1      -8.694  19.690  68.034  1.00  0.00    -0.366 C  
HETATM   20  C   UNL     1      -8.574  17.903  66.240  1.00  0.00    -0.177 C  
HETATM   21  C   UNL     1      -9.998  19.079  68.527  1.00  0.00    -0.486 C  
HETATM   22  C   UNL     1     -10.750  18.379  67.392  1.00  0.00    -0.361 C  
HETATM   23  C   UNL     1      -7.812  18.621  67.390  1.00  0.00    -0.232 C  
HETATM   24  H1  UNL     1      -6.722  16.969  67.974  1.00  0.00     0.000 HD 
HETATM   25  H2  UNL     1      -8.069  17.270  68.946  1.00  0.00     0.000 HD 
ENDBRANCH   6  17
BRANCH  16  26
HETATM   26  C   UNL     1     -11.512  10.398  67.961  1.00  0.00    -0.082 C  
BRANCH  26  27
HETATM   27  C   UNL     1     -10.797   9.970  69.265  1.00  0.00    -0.230 A  
HETATM   28  N   UNL     1      -9.440   9.939  69.267  1.00  0.00    -0.196 NA 
HETATM   29  C   UNL     1      -8.803   9.383  70.321  1.00  0.00    -0.236 A  
HETATM   30  C   UNL     1      -9.494   8.823  71.405  1.00  0.00    -0.330 A  
HETATM   31  C   UNL     1      -8.759   8.185  72.455  1.00  0.00    -0.251 A  
HETATM   32  C   UNL     1     -10.889   8.946  71.336  1.00  0.00    -0.307 A  
HETATM   33  C   UNL     1      -7.368   8.121  72.442  1.00  0.00    -0.130 A  
HETATM   34  C   UNL     1     -11.802   8.347  72.368  1.00  0.00    -0.452 C  
HETATM   35  N   UNL     1     -11.535   9.531  70.300  1.00  0.00    -0.237 NA 
HETATM   36  C   UNL     1      -6.685   8.703  71.387  1.00  0.00    -0.076 A  
HETATM   37  C   UNL     1      -7.406   9.321  70.352  1.00  0.00    -0.111 A  
ENDBRANCH  26  27
ENDBRANCH  16  26
ENDBRANCH   4   5
ENDBRANCH   3   4
TORSDOF 5
ENDMDL
MODEL       40
REMARK 921   NORMALIZED FREE ENERGY PREDICTED BY IDOCK:   -7.01 KCAL/MOL
REMARK 922        TOTAL FREE ENERGY PREDICTED BY IDOCK:   -9.56 KCAL/MOL
REMARK 923 INTER-LIGAND FREE ENERGY PREDICTED BY IDOCK:   -9.21 KCAL/MOL
REMARK 924 INTRA-LIGAND FREE ENERGY PREDICTED BY IDOCK:   -0.35 KCAL/MOL
REMARK 927      BINDING AFFINITY PREDICTED BY RF-SCORE:    0.00 PKD
ROOT
HETATM    1  C   UNL     1     -10.554  20.093  69.759  1.00  0.00     0.571 C  
HETATM    2  C   UNL     1     -10.012  19.607  68.425  1.00  0.00    -0.543 C  
HETATM    3  C   UNL     1      -9.546  19.190  67.280  1.00  0.00    -0.375 C  
ENDROOT
BRANCH   3   4
HETATM    4  C   UNL     1      -9.004  18.704  65.946  1.00  0.00     0.226 C  
BRANCH   4   5
HETATM    5  N   UNL     1      -8.158  17.485  66.244  1.00  0.00    -0.404 NA 
HETATM    6  C   UNL     1      -6.743  17.422  66.295  1.00  0.00    -0.260 A  
HETATM    7  N   UNL     1      -6.349  16.239  66.728  1.00  0.00    -0.289 NA 
HETATM    8  N   UNL     1      -7.481  14.209  67.371  1.00  0.00    -0.170 N  
HETATM    9  C   UNL     1      -7.467  15.499  66.877  1.00  0.00    -0.082 A  
HETATM   10  O   UNL     1      -8.792  12.628  68.369  1.00  0.00    -0.180 OA 
HETATM   11  C   UNL     1      -8.607  16.182  66.545  1.00  0.00    -0.306 A  
HETATM   12  C   UNL     1      -6.248  13.546  67.754  1.00  0.00    -0.154 C  
HETATM   13  C   UNL     1      -9.882  15.510  66.567  1.00  0.00    -0.264 C  
HETATM   14  C   UNL     1      -8.700  13.596  67.606  1.00  0.00    -0.182 C  
HETATM   15  O   UNL     1     -10.932  16.082  66.292  1.00  0.00    -0.218 OA 
HETATM   16  N   UNL     1      -9.818  14.156  66.968  1.00  0.00    -0.252 N  
BRANCH   6  17
HETATM   17  N   UNL     1      -5.864  18.441  66.054  1.00  0.00    -0.169 NA 
HETATM   18  N   UNL     1      -6.866  20.583  68.199  1.00  0.00    -0.272 NA 
HETATM   19  C   UNL     1      -5.653  21.374  66.203  1.00  0.00    -0.269 C  
HETATM   20  C   UNL     1      -5.134  19.084  67.160  1.00  0.00    -0.148 C  
HETATM   21  C   UNL     1      -6.574  20.717  65.185  1.00  0.00    -0.257 C  
HETATM   22  C   UNL     1      -6.124  19.289  64.865  1.00  0.00    -0.278 C  
HETATM   23  C   UNL     1      -5.585  20.537  67.481  1.00  0.00    -0.189 C  
HETATM   24  H1  UNL     1      -6.821  20.025  69.051  1.00  0.00     0.000 HD 
HETATM   25  H2  UNL     1      -7.645  20.301  67.603  1.00  0.00     0.000 HD 
ENDBRANCH   6  17
BRANCH  16  26
HETATM   26  C   UNL     1     -11.051  13.332  67.041  1.00  0.00    -0.282 C  
BRANCH  26  27
HETATM   27  C   UNL     1     -11.760  13.236  68.413  1.00  0.00    -0.354 A  
HETATM   28  N   UNL     1     -12.126  14.391  69.024  1.00  0.00    -0.297 NA 
HETATM   29  C   UNL     1     -12.563  14.343  70.302  1.00  0.00    -0.323 A  
HETATM   30  C   UNL     1     -12.637  13.143  71.024  1.00  0.00    -0.397 A  
HETATM   31  C   UNL     1     -13.040  13.173  72.398  1.00  0.00    -0.413 A  
HETATM   32  C   UNL     1     -12.285  11.999  70.295  1.00  0.00    -0.266 A  
HETATM   33  C   UNL     1     -13.383  14.362  73.037  1.00  0.00    -0.484 A  
HETATM   34  C   UNL     1     -12.235  10.632  70.917  1.00  0.00    -0.497 C  
HETATM   35  N   UNL     1     -11.878  12.034  69.005  1.00  0.00    -0.320 NA 
HETATM   36  C   UNL     1     -13.341  15.541  72.312  1.00  0.00    -0.567 A  
HETATM   37  C   UNL     1     -12.936  15.516  70.967  1.00  0.00    -0.550 A  
ENDBRANCH  26  27
ENDBRANCH  16  26
ENDBRANCH   4   5
ENDBRANCH   3   4
TORSDOF 5
ENDMDL
MODEL       41
REMARK 921   NORMALIZED FREE ENERGY PREDICTED BY IDOCK:   -6.98 KCAL/MOL
REMARK 922        TOTAL FREE ENERGY PREDICTED BY IDOCK:   -9.52 KCAL/MOL
REMARK 923 INTER-LIGAND FREE ENERGY PREDICTED BY IDOCK:   -8.14 KCAL/MOL
REMARK 924 INTRA-LIGAND FREE ENERGY PREDICTED BY IDOCK:   -1.38 KCAL/MOL
REMARK 927      BINDING AFFINITY PREDICTED BY RF-SCORE:    0.00 PKD
ROOT
HETATM    1  C   UNL     1     -11.594   6.709  70.196  1.00  0.00    -0.446 C  
HETATM    2  C   UNL     1     -10.447   7.501  69.589  1.00  0.00    -0.235 C  
HETATM    3  C   UNL     1      -9.464   8.181  69.068  1.00  0.00    -0.155 C  
ENDROOT
BRANCH   3   4
HETATM    4  C   UNL     1      -8.317   8.973  68.462  1.00  0.00    -0.124 C  
BRANCH   4   5
HETATM    5  N   UNL     1      -8.812   9.496  67.131  1.00  0.00    -0.131 NA 
HETATM    6  C   UNL     1      -8.649   8.886  65.862  1.00  0.00    -0.158 A  
HETATM    7  N   UNL     1      -9.334   9.540  64.944  1.00  0.00    -0.237 NA 
HETATM    8  N   UNL     1     -10.710  11.521  64.950  1.00  0.00    -0.297 N  
HETATM    9  C   UNL     1      -9.870  10.612  65.563  1.00  0.00    -0.258 A  
HETATM   10  O   UNL     1     -12.320  13.096  65.330  1.00  0.00    -0.430 OA 
HETATM   11  C   UNL     1      -9.545  10.678  66.892  1.00  0.00    -0.171 A  
HETATM   12  C   UNL     1     -11.062  11.381  63.549  1.00  0.00    -0.285 C  
HETATM   13  C   UNL     1      -9.966  11.807  67.683  1.00  0.00    -0.194 C  
HETATM   14  C   UNL     1     -11.307  12.505  65.719  1.00  0.00    -0.336 C  
HETATM   15  O   UNL     1      -9.712  11.904  68.879  1.00  0.00    -0.093 OA 
HETATM   16  N   UNL     1     -10.724  12.764  66.971  1.00  0.00    -0.250 N  
BRANCH   6  17
HETATM   17  N   UNL     1      -7.985   7.723  65.586  1.00  0.00    -0.110 NA 
HETATM   18  N   UNL     1      -8.667   7.394  62.485  1.00  0.00    -0.360 NA 
HETATM   19  C   UNL     1      -8.092   5.387  63.797  1.00  0.00    -0.121 C  
HETATM   20  C   UNL     1      -7.084   7.627  64.425  1.00  0.00    -0.066 C  
HETATM   21  C   UNL     1      -9.153   5.587  64.869  1.00  0.00     0.123 C  
HETATM   22  C   UNL     1      -8.631   6.458  66.015  1.00  0.00    -0.147 C  
HETATM   23  C   UNL     1      -7.609   6.736  63.264  1.00  0.00    -0.089 C  
HETATM   24  H1  UNL     1      -8.345   8.294  62.129  1.00  0.00     0.000 HD 
HETATM   25  H2  UNL     1      -9.530   7.486  63.021  1.00  0.00     0.000 HD 
ENDBRANCH   6  17
BRANCH  16  26
HETATM   26  C   UNL     1     -11.231  13.982  67.650  1.00  0.00    -0.297 C  
BRANCH  26  27
HETATM   27  C   UNL     1     -10.341  15.247  67.598  1.00  0.00    -0.250 A  
HETATM   28  N   UNL     1     -10.951  16.448  67.435  1.00  0.00    -0.211 NA 
HETATM   29  C   UNL     1     -10.190  17.538  67.188  1.00  0.00    -0.323 A  
HETATM   30  C   UNL     1      -8.794  17.467  67.080  1.00  0.00    -0.252 A  
HETATM   31  C   UNL     1      -8.054  18.646  66.745  1.00  0.00    -0.275 A  
HETATM   32  C   UNL     1      -8.252  16.195  67.311  1.00  0.00    -0.177 A  
HETATM   33  C   UNL     1      -8.681  19.873  66.542  1.00  0.00    -0.406 A  
HETATM   34  C   UNL     1      -6.784  15.907  67.172  1.00  0.00    -0.168 C  
HETATM   35  N   UNL     1      -9.004  15.105  67.592  1.00  0.00    -0.177 NA 
HETATM   36  C   UNL     1     -10.056  19.948  66.682  1.00  0.00    -0.598 A  
HETATM   37  C   UNL     1     -10.785  18.790  67.001  1.00  0.00    -0.435 A  
ENDBRANCH  26  27
ENDBRANCH  16  26
ENDBRANCH   4   5
ENDBRANCH   3   4
TORSDOF 5
ENDMDL
MODEL       42
REMARK 921   NORMALIZED FREE ENERGY PREDICTED BY IDOCK:   -6.97 KCAL/MOL
REMARK 922        TOTAL FREE ENERGY PREDICTED BY IDOCK:   -9.51 KCAL/MOL
REMARK 923 INTER-LIGAND FREE ENERGY PREDICTED BY IDOCK:   -8.17 KCAL/MOL
REMARK 924 INTRA-LIGAND FREE ENERGY PREDICTED BY IDOCK:   -1.34 KCAL/MOL
REMARK 927      BINDING AFFINITY PREDICTED BY RF-SCORE:    0.00 PKD
ROOT
HETATM    1  C   UNL     1     -11.786  16.070  72.733  1.00  0.00    -0.584 C  
HETATM    2  C   UNL     1     -12.212  14.968  71.776  1.00  0.00    -0.417 C  
HETATM    3  C   UNL     1     -12.576  14.022  70.956  1.00  0.00    -0.437 C  
ENDROOT
BRANCH   3   4
HETATM    4  C   UNL     1     -13.002  12.919  70.000  1.00  0.00     0.709 C  
BRANCH   4   5
HETATM    5  N   UNL     1     -11.751  12.473  69.274  1.00  0.00    -0.309 NA 
HETATM    6  C   UNL     1     -11.130  13.113  68.173  1.00  0.00    -0.255 A  
HETATM    7  N   UNL     1      -9.980  12.533  67.890  1.00  0.00    -0.206 NA 
HETATM    8  N   UNL     1      -8.774  10.643  68.779  1.00  0.00    -0.150 N  
HETATM    9  C   UNL     1      -9.873  11.477  68.722  1.00  0.00    -0.141 A  
HETATM   10  O   UNL     1      -7.646   9.160  70.099  1.00  0.00    -0.069 OA 
HETATM   11  C   UNL     1     -10.950  11.347  69.560  1.00  0.00    -0.166 A  
HETATM   12  C   UNL     1      -7.637  10.851  67.900  1.00  0.00    -0.095 C  
HETATM   13  C   UNL     1     -11.035  10.221  70.455  1.00  0.00    -0.296 C  
HETATM   14  C   UNL     1      -8.719   9.672  69.764  1.00  0.00    -0.208 C  
HETATM   15  O   UNL     1     -11.971  10.069  71.233  1.00  0.00    -0.347 OA 
HETATM   16  N   UNL     1      -9.934   9.337  70.383  1.00  0.00    -0.219 N  
BRANCH   6  17
HETATM   17  N   UNL     1     -11.557  14.241  67.528  1.00  0.00    -0.344 NA 
HETATM   18  N   UNL     1     -10.140  13.853  64.694  1.00  0.00    -0.633 NA 
HETATM   19  C   UNL     1     -10.739  16.131  65.424  1.00  0.00    -0.374 C  
HETATM   20  C   UNL     1     -12.145  14.161  66.180  1.00  0.00    -0.435 C  
HETATM   21  C   UNL     1      -9.989  16.077  66.747  1.00  0.00    -0.265 C  
HETATM   22  C   UNL     1     -10.870  15.512  67.865  1.00  0.00    -0.307 C  
HETATM   23  C   UNL     1     -11.255  14.743  65.045  1.00  0.00    -0.395 C  
HETATM   24  H1  UNL     1     -10.484  12.927  64.441  1.00  0.00     0.000 HD 
HETATM   25  H2  UNL     1      -9.443  13.808  65.438  1.00  0.00     0.000 HD 
ENDBRANCH   6  17
BRANCH  16  26
HETATM   26  C   UNL     1      -9.878   8.131  71.246  1.00  0.00    -0.164 C  
BRANCH  26  27
HETATM   27  C   UNL     1     -10.009   6.754  70.552  1.00  0.00    -0.183 A  
HETATM   28  N   UNL     1      -9.587   5.656  71.230  1.00  0.00    -0.158 NA 
HETATM   29  C   UNL     1      -9.506   4.477  70.574  1.00  0.00    -0.176 A  
HETATM   30  C   UNL     1      -9.828   4.351  69.216  1.00  0.00    -0.218 A  
HETATM   31  C   UNL     1      -9.650   3.088  68.564  1.00  0.00    -0.105 A  
HETATM   32  C   UNL     1     -10.298   5.526  68.614  1.00  0.00    -0.185 A  
HETATM   33  C   UNL     1      -9.184   1.968  69.250  1.00  0.00    -0.188 A  
HETATM   34  C   UNL     1     -10.626   5.606  67.150  1.00  0.00    -0.344 C  
HETATM   35  N   UNL     1     -10.414   6.704  69.271  1.00  0.00    -0.199 NA 
HETATM   36  C   UNL     1      -8.899   2.087  70.600  1.00  0.00    -0.126 A  
HETATM   37  C   UNL     1      -9.063   3.327  71.237  1.00  0.00    -0.178 A  
ENDBRANCH  26  27
ENDBRANCH  16  26
ENDBRANCH   4   5
ENDBRANCH   3   4
TORSDOF 5
ENDMDL
MODEL       43
REMARK 921   NORMALIZED FREE ENERGY PREDICTED BY IDOCK:   -6.96 KCAL/MOL
REMARK 922        TOTAL FREE ENERGY PREDICTED BY IDOCK:   -9.50 KCAL/MOL
REMARK 923 INTER-LIGAND FREE ENERGY PREDICTED BY IDOCK:   -8.33 KCAL/MOL
REMARK 924 INTRA-LIGAND FREE ENERGY PREDICTED BY IDOCK:   -1.17 KCAL/MOL
REMARK 927      BINDING AFFINITY PREDICTED BY RF-SCORE:    0.00 PKD
ROOT
HETATM    1  C   UNL     1     -12.275  12.113  63.804  1.00  0.00    -0.630 C  
HETATM    2  C   UNL     1     -11.353  11.879  64.990  1.00  0.00    -0.333 C  
HETATM    3  C   UNL     1     -10.562  11.678  66.007  1.00  0.00    -0.303 C  
ENDROOT
BRANCH   3   4
HETATM    4  C   UNL     1      -9.641  11.444  67.193  1.00  0.00    -0.179 C  
BRANCH   4   5
HETATM    5  N   UNL     1     -10.379  11.944  68.416  1.00  0.00    -0.204 NA 
HETATM    6  C   UNL     1     -10.549  13.293  68.817  1.00  0.00    -0.201 A  
HETATM    7  N   UNL     1     -11.370  13.369  69.847  1.00  0.00    -0.091 NA 
HETATM    8  N   UNL     1     -12.556  11.754  71.189  1.00  0.00    -0.361 N  
HETATM    9  C   UNL     1     -11.672  12.099  70.186  1.00  0.00    -0.218 A  
HETATM   10  O   UNL     1     -13.918  10.091  71.960  1.00  0.00    -0.142 OA 
HETATM   11  C   UNL     1     -11.055  11.173  69.386  1.00  0.00    -0.255 A  
HETATM   12  C   UNL     1     -13.221  12.775  71.977  1.00  0.00    -0.436 C  
HETATM   13  C   UNL     1     -11.203   9.767  69.665  1.00  0.00    -0.178 C  
HETATM   14  C   UNL     1     -12.890  10.421  71.357  1.00  0.00    -0.452 C  
HETATM   15  O   UNL     1     -10.683   8.900  68.970  1.00  0.00    -0.209 OA 
HETATM   16  N   UNL     1     -12.026   9.479  70.777  1.00  0.00    -0.273 N  
BRANCH   6  17
HETATM   17  N   UNL     1     -10.053  14.405  68.195  1.00  0.00    -0.221 NA 
HETATM   18  N   UNL     1     -11.147  16.687  70.142  1.00  0.00    -0.437 NA 
HETATM   19  C   UNL     1     -10.631  17.265  67.801  1.00  0.00    -0.367 C  
HETATM   20  C   UNL     1      -9.318  15.430  68.957  1.00  0.00    -0.232 C  
HETATM   21  C   UNL     1     -11.523  16.204  67.173  1.00  0.00     0.303 C  
HETATM   22  C   UNL     1     -10.772  14.882  66.988  1.00  0.00    -0.307 C  
HETATM   23  C   UNL     1     -10.076  16.775  69.139  1.00  0.00    -0.280 C  
HETATM   24  H1  UNL     1     -10.778  16.360  71.035  1.00  0.00     0.000 HD 
HETATM   25  H2  UNL     1     -11.922  16.108  69.818  1.00  0.00     0.000 HD 
ENDBRANCH   6  17
BRANCH  16  26
HETATM   26  C   UNL     1     -12.276   8.074  71.187  1.00  0.00    -0.245 C  
BRANCH  26  27
HETATM   27  C   UNL     1     -11.083   7.284  71.777  1.00  0.00    -0.235 A  
HETATM   28  N   UNL     1     -11.054   5.940  71.589  1.00  0.00    -0.270 NA 
HETATM   29  C   UNL     1     -10.136   5.208  72.259  1.00  0.00    -0.192 A  
HETATM   30  C   UNL     1      -9.223   5.787  73.152  1.00  0.00    -0.136 A  
HETATM   31  C   UNL     1      -8.326   4.945  73.884  1.00  0.00    -0.104 A  
HETATM   32  C   UNL     1      -9.298   7.183  73.243  1.00  0.00    -0.168 A  
HETATM   33  C   UNL     1      -8.318   3.562  73.719  1.00  0.00    -0.082 A  
HETATM   34  C   UNL     1      -8.450   7.975  74.199  1.00  0.00    -0.293 C  
HETATM   35  N   UNL     1     -10.192   7.928  72.552  1.00  0.00    -0.253 NA 
HETATM   36  C   UNL     1      -9.198   2.996  72.812  1.00  0.00    -0.123 A  
HETATM   37  C   UNL     1     -10.086   3.819  72.101  1.00  0.00    -0.220 A  
ENDBRANCH  26  27
ENDBRANCH  16  26
ENDBRANCH   4   5
ENDBRANCH   3   4
TORSDOF 5
ENDMDL
MODEL       44
REMARK 921   NORMALIZED FREE ENERGY PREDICTED BY IDOCK:   -6.95 KCAL/MOL
REMARK 922        TOTAL FREE ENERGY PREDICTED BY IDOCK:   -9.49 KCAL/MOL
REMARK 923 INTER-LIGAND FREE ENERGY PREDICTED BY IDOCK:   -8.25 KCAL/MOL
REMARK 924 INTRA-LIGAND FREE ENERGY PREDICTED BY IDOCK:   -1.24 KCAL/MOL
REMARK 927      BINDING AFFINITY PREDICTED BY RF-SCORE:    0.00 PKD
ROOT
HETATM    1  C   UNL     1      -5.863  14.322  71.232  1.00  0.00    -0.185 C  
HETATM    2  C   UNL     1      -5.783  14.601  69.739  1.00  0.00    -0.104 C  
HETATM    3  C   UNL     1      -5.714  14.840  68.460  1.00  0.00    -0.099 C  
ENDROOT
BRANCH   3   4
HETATM    4  C   UNL     1      -5.635  15.118  66.967  1.00  0.00     0.954 C  
BRANCH   4   5
HETATM    5  N   UNL     1      -6.914  15.836  66.595  1.00  0.00    -0.093 NA 
HETATM    6  C   UNL     1      -7.040  17.169  66.130  1.00  0.00    -0.188 A  
HETATM    7  N   UNL     1      -8.282  17.415  65.762  1.00  0.00    -0.506 NA 
HETATM    8  N   UNL     1     -10.332  16.143  65.766  1.00  0.00    -0.362 N  
HETATM    9  C   UNL     1      -8.991  16.305  66.056  1.00  0.00    -0.290 A  
HETATM   10  O   UNL     1     -11.975  14.593  65.430  1.00  0.00    -0.341 OA 
HETATM   11  C   UNL     1      -8.227  15.318  66.620  1.00  0.00    -0.105 A  
HETATM   12  C   UNL     1     -11.087  17.203  65.124  1.00  0.00     0.163 C  
HETATM   13  C   UNL     1      -8.845  14.097  67.073  1.00  0.00    -0.221 C  
HETATM   14  C   UNL     1     -10.921  14.911  65.993  1.00  0.00    -0.334 C  
HETATM   15  O   UNL     1      -8.201  13.180  67.571  1.00  0.00    -0.159 OA 
HETATM   16  N   UNL     1     -10.240  14.038  66.857  1.00  0.00    -0.257 N  
BRANCH   6  17
HETATM   17  N   UNL     1      -6.034  18.079  65.957  1.00  0.00    -0.189 NA 
HETATM   18  N   UNL     1      -7.642  20.802  66.394  1.00  0.00    -0.521 NA 
HETATM   19  C   UNL     1      -5.569  20.844  65.059  1.00  0.00    -0.262 C  
HETATM   20  C   UNL     1      -5.817  19.158  66.936  1.00  0.00    -0.155 C  
HETATM   21  C   UNL     1      -5.996  19.772  64.067  1.00  0.00    -0.280 C  
HETATM   22  C   UNL     1      -5.621  18.372  64.563  1.00  0.00    -0.004 C  
HETATM   23  C   UNL     1      -6.190  20.580  66.431  1.00  0.00    -0.210 C  
HETATM   24  H1  UNL     1      -8.057  20.626  67.309  1.00  0.00     0.000 HD 
HETATM   25  H2  UNL     1      -8.090  20.249  65.663  1.00  0.00     0.000 HD 
ENDBRANCH   6  17
BRANCH  16  26
HETATM   26  C   UNL     1     -11.017  12.843  67.268  1.00  0.00    -0.261 C  
BRANCH  26  27
HETATM   27  C   UNL     1     -11.764  12.911  68.622  1.00  0.00    -0.324 A  
HETATM   28  N   UNL     1     -11.979  14.135  69.169  1.00  0.00    -0.343 NA 
HETATM   29  C   UNL     1     -12.447  14.209  70.435  1.00  0.00    -0.357 A  
HETATM   30  C   UNL     1     -12.703  13.067  71.208  1.00  0.00    -0.385 A  
HETATM   31  C   UNL     1     -13.129  13.218  72.567  1.00  0.00    -0.385 A  
HETATM   32  C   UNL     1     -12.497  11.851  70.542  1.00  0.00    -0.215 A  
HETATM   33  C   UNL     1     -13.317  14.473  73.141  1.00  0.00    -0.378 A  
HETATM   34  C   UNL     1     -12.651  10.522  71.226  1.00  0.00    -0.531 C  
HETATM   35  N   UNL     1     -12.060  11.767  69.263  1.00  0.00    -0.269 NA 
HETATM   36  C   UNL     1     -13.095  15.599  72.367  1.00  0.00    -0.544 A  
HETATM   37  C   UNL     1     -12.668  15.453  71.036  1.00  0.00    -0.510 A  
ENDBRANCH  26  27
ENDBRANCH  16  26
ENDBRANCH   4   5
ENDBRANCH   3   4
TORSDOF 5
ENDMDL
MODEL       45
REMARK 921   NORMALIZED FREE ENERGY PREDICTED BY IDOCK:   -6.95 KCAL/MOL
REMARK 922        TOTAL FREE ENERGY PREDICTED BY IDOCK:   -9.48 KCAL/MOL
REMARK 923 INTER-LIGAND FREE ENERGY PREDICTED BY IDOCK:   -9.03 KCAL/MOL
REMARK 924 INTRA-LIGAND FREE ENERGY PREDICTED BY IDOCK:   -0.45 KCAL/MOL
REMARK 927      BINDING AFFINITY PREDICTED BY RF-SCORE:    0.00 PKD
ROOT
HETATM    1  C   UNL     1     -10.758  15.448  65.257  1.00  0.00    -0.439 C  
HETATM    2  C   UNL     1     -10.618  14.067  64.637  1.00  0.00    -0.416 C  
HETATM    3  C   UNL     1     -10.497  12.882  64.106  1.00  0.00    -0.429 C  
ENDROOT
BRANCH   3   4
HETATM    4  C   UNL     1     -10.357  11.501  63.487  1.00  0.00    -0.433 C  
BRANCH   4   5
HETATM    5  N   UNL     1      -9.786  10.604  64.564  1.00  0.00    -0.299 NA 
HETATM    6  C   UNL     1      -8.713   9.688  64.430  1.00  0.00    -0.205 A  
HETATM    7  N   UNL     1      -8.385   9.185  65.605  1.00  0.00    -0.119 NA 
HETATM    8  N   UNL     1      -9.233   9.435  67.849  1.00  0.00    -0.130 N  
HETATM    9  C   UNL     1      -9.273   9.681  66.491  1.00  0.00    -0.158 A  
HETATM   10  O   UNL     1      -9.898  10.217  69.889  1.00  0.00    -0.233 OA 
HETATM   11  C   UNL     1     -10.195  10.514  65.912  1.00  0.00    -0.245 A  
HETATM   12  C   UNL     1      -8.207   8.581  68.419  1.00  0.00    -0.123 C  
HETATM   13  C   UNL     1     -11.267  11.063  66.703  1.00  0.00    -0.050 C  
HETATM   14  C   UNL     1     -10.116  10.105  68.677  1.00  0.00    -0.172 C  
HETATM   15  O   UNL     1     -12.107  11.824  66.235  1.00  0.00    -0.446 OA 
HETATM   16  N   UNL     1     -11.240  10.680  68.063  1.00  0.00    -0.300 N  
BRANCH   6  17
HETATM   17  N   UNL     1      -8.004   9.411  63.294  1.00  0.00    -0.133 NA 
HETATM   18  N   UNL     1      -6.528   6.722  64.180  1.00  0.00    -0.038 NA 
HETATM   19  C   UNL     1      -5.525   8.100  62.398  1.00  0.00    -0.066 C  
HETATM   20  C   UNL     1      -8.043   8.068  62.690  1.00  0.00    -0.152 C  
HETATM   21  C   UNL     1      -5.468   9.389  63.205  1.00  0.00    -0.075 C  
HETATM   22  C   UNL     1      -6.764  10.192  63.065  1.00  0.00    -0.133 C  
HETATM   23  C   UNL     1      -6.725   7.254  62.825  1.00  0.00    -0.053 C  
HETATM   24  H1  UNL     1      -7.328   6.158  64.466  1.00  0.00     0.000 HD 
HETATM   25  H2  UNL     1      -6.329   7.463  64.853  1.00  0.00     0.000 HD 
ENDBRANCH   6  17
BRANCH  16  26
HETATM   26  C   UNL     1     -12.279  11.167  69.005  1.00  0.00    -0.125 C  
BRANCH  26  27
HETATM   27  C   UNL     1     -11.982  12.476  69.775  1.00  0.00    -0.289 A  
HETATM   28  N   UNL     1     -12.497  12.611  71.024  1.00  0.00    -0.335 NA 
HETATM   29  C   UNL     1     -12.420  13.815  71.634  1.00  0.00    -0.217 A  
HETATM   30  C   UNL     1     -11.841  14.932  71.016  1.00  0.00    -0.380 A  
HETATM   31  C   UNL     1     -11.858  16.196  71.689  1.00  0.00    -0.557 A  
HETATM   32  C   UNL     1     -11.295  14.683  69.749  1.00  0.00    -0.275 A  
HETATM   33  C   UNL     1     -12.417  16.345  72.956  1.00  0.00    -0.420 A  
HETATM   34  C   UNL     1     -10.694  15.771  68.903  1.00  0.00    -0.248 C  
HETATM   35  N   UNL     1     -11.338  13.473  69.144  1.00  0.00    -0.271 NA 
HETATM   36  C   UNL     1     -12.959  15.233  73.578  1.00  0.00    -0.634 A  
HETATM   37  C   UNL     1     -12.952  13.995  72.915  1.00  0.00    -0.437 A  
ENDBRANCH  26  27
ENDBRANCH  16  26
ENDBRANCH   4   5
ENDBRANCH   3   4
TORSDOF 5
ENDMDL
MODEL       46
REMARK 921   NORMALIZED FREE ENERGY PREDICTED BY IDOCK:   -6.94 KCAL/MOL
REMARK 922        TOTAL FREE ENERGY PREDICTED BY IDOCK:   -9.47 KCAL/MOL
REMARK 923 INTER-LIGAND FREE ENERGY PREDICTED BY IDOCK:   -8.55 KCAL/MOL
REMARK 924 INTRA-LIGAND FREE ENERGY PREDICTED BY IDOCK:   -0.92 KCAL/MOL
REMARK 927      BINDING AFFINITY PREDICTED BY RF-SCORE:    0.00 PKD
ROOT
HETATM    1  C   UNL     1      -9.326   9.609  63.033  1.00  0.00    -0.015 C  
HETATM    2  C   UNL     1      -8.786   9.896  64.425  1.00  0.00    -0.223 C  
HETATM    3  C   UNL     1      -8.323  10.142  65.619  1.00  0.00    -0.153 C  
ENDROOT
BRANCH   3   4
HETATM    4  C   UNL     1      -7.782  10.428  67.010  1.00  0.00    -0.105 C  
BRANCH   4   5
HETATM    5  N   UNL     1      -8.984  10.700  67.890  1.00  0.00    -0.136 NA 
HETATM    6  C   UNL     1      -9.470   9.886  68.944  1.00  0.00    -0.170 A  
HETATM    7  N   UNL     1     -10.442  10.500  69.591  1.00  0.00    -0.236 NA 
HETATM    8  N   UNL     1     -11.572  12.616  69.337  1.00  0.00    -0.303 N  
HETATM    9  C   UNL     1     -10.663  11.657  68.934  1.00  0.00    -0.207 A  
HETATM   10  O   UNL     1     -12.118  14.827  69.176  1.00  0.00    -0.298 OA 
HETATM   11  C   UNL     1      -9.842  11.818  67.848  1.00  0.00    -0.183 A  
HETATM   12  C   UNL     1     -12.385  12.416  70.523  1.00  0.00    -0.262 C  
HETATM   13  C   UNL     1     -10.005  12.962  66.986  1.00  0.00    -0.244 C  
HETATM   14  C   UNL     1     -11.617  13.822  68.660  1.00  0.00    -0.334 C  
HETATM   15  O   UNL     1      -9.286  13.158  66.011  1.00  0.00    -0.153 OA 
HETATM   16  N   UNL     1     -11.031  13.848  67.384  1.00  0.00    -0.284 N  
BRANCH   6  17
HETATM   17  N   UNL     1      -8.969   8.680  69.351  1.00  0.00    -0.144 NA 
HETATM   18  N   UNL     1     -11.680   7.048  69.776  1.00  0.00    -0.580 NA 
HETATM   19  C   UNL     1      -9.664   6.349  71.011  1.00  0.00    -0.192 C  
HETATM   20  C   UNL     1      -9.425   7.426  68.728  1.00  0.00    -0.143 C  
HETATM   21  C   UNL     1      -9.393   7.702  71.654  1.00  0.00    -0.165 C  
HETATM   22  C   UNL     1      -8.514   8.579  70.759  1.00  0.00    -0.149 C  
HETATM   23  C   UNL     1     -10.312   6.530  69.638  1.00  0.00    -0.196 C  
HETATM   24  H1  UNL     1     -12.114   7.169  68.860  1.00  0.00     0.000 HD 
HETATM   25  H2  UNL     1     -11.706   7.909  70.323  1.00  0.00     0.000 HD 
ENDBRANCH   6  17
BRANCH  16  26
HETATM   26  C   UNL     1     -11.317  15.073  66.596  1.00  0.00    -0.289 C  
BRANCH  26  27
HETATM   27  C   UNL     1     -10.347  16.267  66.761  1.00  0.00    -0.296 A  
HETATM   28  N   UNL     1      -9.301  16.125  67.615  1.00  0.00    -0.214 NA 
HETATM   29  C   UNL     1      -8.561  17.212  67.925  1.00  0.00    -0.214 A  
HETATM   30  C   UNL     1      -8.844  18.484  67.408  1.00  0.00    -0.276 A  
HETATM   31  C   UNL     1      -8.064  19.607  67.834  1.00  0.00    -0.339 A  
HETATM   32  C   UNL     1      -9.910  18.523  66.499  1.00  0.00    -0.363 A  
HETATM   33  C   UNL     1      -7.013  19.469  68.738  1.00  0.00    -0.371 A  
HETATM   34  C   UNL     1     -10.406  19.805  65.893  1.00  0.00    -0.582 C  
HETATM   35  N   UNL     1     -10.637  17.433  66.157  1.00  0.00    -0.267 NA 
HETATM   36  C   UNL     1      -6.714  18.207  69.222  1.00  0.00    -0.217 A  
HETATM   37  C   UNL     1      -7.484  17.106  68.812  1.00  0.00    -0.250 A  
ENDBRANCH  26  27
ENDBRANCH  16  26
ENDBRANCH   4   5
ENDBRANCH   3   4
TORSDOF 5
ENDMDL
MODEL       47
REMARK 921   NORMALIZED FREE ENERGY PREDICTED BY IDOCK:   -6.91 KCAL/MOL
REMARK 922        TOTAL FREE ENERGY PREDICTED BY IDOCK:   -9.43 KCAL/MOL
REMARK 923 INTER-LIGAND FREE ENERGY PREDICTED BY IDOCK:   -8.75 KCAL/MOL
REMARK 924 INTRA-LIGAND FREE ENERGY PREDICTED BY IDOCK:   -0.68 KCAL/MOL
REMARK 927      BINDING AFFINITY PREDICTED BY RF-SCORE:    0.00 PKD
ROOT
HETATM    1  C   UNL     1     -12.528  12.512  63.512  1.00  0.00    -0.561 C  
HETATM    2  C   UNL     1     -12.240  13.183  64.845  1.00  0.00    -0.477 C  
HETATM    3  C   UNL     1     -11.993  13.760  65.989  1.00  0.00    -0.443 C  
ENDROOT
BRANCH   3   4
HETATM    4  C   UNL     1     -11.705  14.430  67.322  1.00  0.00    -0.404 C  
BRANCH   4   5
HETATM    5  N   UNL     1     -10.232  14.779  67.318  1.00  0.00    -0.240 NA 
HETATM    6  C   UNL     1      -9.661  16.069  67.457  1.00  0.00    -0.222 A  
HETATM    7  N   UNL     1      -8.348  15.985  67.557  1.00  0.00    -0.156 NA 
HETATM    8  N   UNL     1      -6.759  14.171  67.496  1.00  0.00    -0.167 N  
HETATM    9  C   UNL     1      -8.039  14.681  67.400  1.00  0.00    -0.196 A  
HETATM   10  O   UNL     1      -5.551  12.274  67.889  1.00  0.00    -0.058 OA 
HETATM   11  C   UNL     1      -9.141  13.893  67.193  1.00  0.00    -0.239 A  
HETATM   12  C   UNL     1      -5.630  15.043  67.764  1.00  0.00    -0.071 C  
HETATM   13  C   UNL     1      -8.981  12.487  66.921  1.00  0.00    -0.212 C  
HETATM   14  C   UNL     1      -6.580  12.800  67.450  1.00  0.00    -0.136 C  
HETATM   15  O   UNL     1      -9.936  11.738  66.745  1.00  0.00    -0.198 OA 
HETATM   16  N   UNL     1      -7.638  12.046  66.917  1.00  0.00    -0.105 N  
BRANCH   6  17
HETATM   17  N   UNL     1     -10.329  17.255  67.590  1.00  0.00    -0.337 NA 
HETATM   18  N   UNL     1      -8.463  19.162  65.835  1.00  0.00    -0.433 NA 
HETATM   19  C   UNL     1      -9.863  20.162  67.602  1.00  0.00    -0.567 C  
HETATM   20  C   UNL     1     -10.656  18.071  66.408  1.00  0.00    -0.250 C  
HETATM   21  C   UNL     1      -9.337  19.292  68.734  1.00  0.00    -0.437 C  
HETATM   22  C   UNL     1     -10.143  17.996  68.861  1.00  0.00    -0.344 C  
HETATM   23  C   UNL     1      -9.844  19.391  66.282  1.00  0.00    -0.403 C  
HETATM   24  H1  UNL     1      -8.450  18.647  64.954  1.00  0.00     0.000 HD 
HETATM   25  H2  UNL     1      -7.906  18.698  66.552  1.00  0.00     0.000 HD 
ENDBRANCH   6  17
BRANCH  16  26
HETATM   26  C   UNL     1      -7.313  10.622  66.653  1.00  0.00    -0.129 C  
BRANCH  26  27
HETATM   27  C   UNL     1      -7.914   9.566  67.612  1.00  0.00    -0.106 A  
HETATM   28  N   UNL     1      -8.885   8.749  67.132  1.00  0.00    -0.126 NA 
HETATM   29  C   UNL     1      -9.560   7.960  67.997  1.00  0.00    -0.151 A  
HETATM   30  C   UNL     1      -9.304   7.969  69.375  1.00  0.00    -0.155 A  
HETATM   31  C   UNL     1     -10.106   7.162  70.245  1.00  0.00    -0.195 A  
HETATM   32  C   UNL     1      -8.253   8.808  69.770  1.00  0.00    -0.117 A  
HETATM   33  C   UNL     1     -11.126   6.349  69.758  1.00  0.00    -0.459 A  
HETATM   34  C   UNL     1      -7.877   9.004  71.212  1.00  0.00    -0.128 C  
HETATM   35  N   UNL     1      -7.549   9.577  68.907  1.00  0.00    -0.074 NA 
HETATM   36  C   UNL     1     -11.356   6.316  68.393  1.00  0.00    -0.101 A  
HETATM   37  C   UNL     1     -10.576   7.115  67.539  1.00  0.00    -0.348 A  
ENDBRANCH  26  27
ENDBRANCH  16  26
ENDBRANCH   4   5
ENDBRANCH   3   4
TORSDOF 5
ENDMDL
MODEL       48
REMARK 921   NORMALIZED FREE ENERGY PREDICTED BY IDOCK:   -6.88 KCAL/MOL
REMARK 922        TOTAL FREE ENERGY PREDICTED BY IDOCK:   -9.39 KCAL/MOL
REMARK 923 INTER-LIGAND FREE ENERGY PREDICTED BY IDOCK:   -7.96 KCAL/MOL
REMARK 924 INTRA-LIGAND FREE ENERGY PREDICTED BY IDOCK:   -1.43 KCAL/MOL
REMARK 927      BINDING AFFINITY PREDICTED BY RF-SCORE:    0.00 PKD
ROOT
HETATM    1  C   UNL     1     -14.315   7.280  71.352  1.00  0.00    -0.484 C  
HETATM    2  C   UNL     1     -12.953   7.910  71.595  1.00  0.00    -0.359 C  
HETATM    3  C   UNL     1     -11.784   8.450  71.804  1.00  0.00    -0.371 C  
ENDROOT
BRANCH   3   4
HETATM    4  C   UNL     1     -10.422   9.080  72.046  1.00  0.00    -0.239 C  
BRANCH   4   5
HETATM    5  N   UNL     1      -9.749   9.181  70.695  1.00  0.00    -0.235 NA 
HETATM    6  C   UNL     1      -8.598   8.477  70.260  1.00  0.00    -0.137 A  
HETATM    7  N   UNL     1      -8.378   8.699  68.979  1.00  0.00    -0.118 NA 
HETATM    8  N   UNL     1      -9.444  10.047  67.286  1.00  0.00    -0.152 N  
HETATM    9  C   UNL     1      -9.303   9.597  68.584  1.00  0.00    -0.143 A  
HETATM   10  O   UNL     1     -10.901  10.995  65.806  1.00  0.00    -0.201 OA 
HETATM   11  C   UNL     1     -10.142   9.979  69.599  1.00  0.00    -0.236 A  
HETATM   12  C   UNL     1      -8.558   9.575  66.237  1.00  0.00    -0.130 C  
HETATM   13  C   UNL     1     -11.135  10.997  69.368  1.00  0.00    -0.262 C  
HETATM   14  C   UNL     1     -10.514  10.866  66.973  1.00  0.00    -0.244 C  
HETATM   15  O   UNL     1     -11.918  11.362  70.239  1.00  0.00    -0.327 OA 
HETATM   16  N   UNL     1     -11.152  11.504  68.049  1.00  0.00    -0.234 N  
BRANCH   6  17
HETATM   17  N   UNL     1      -7.851   7.594  70.988  1.00  0.00    -0.088 NA 
HETATM   18  N   UNL     1      -5.666   6.764  68.812  1.00  0.00    -0.017 NA 
HETATM   19  C   UNL     1      -6.156   5.208  70.661  1.00  0.00    -0.022 C  
HETATM   20  C   UNL     1      -6.382   7.706  71.032  1.00  0.00    -0.035 C  
HETATM   21  C   UNL     1      -7.655   5.130  70.412  1.00  0.00    -0.070 C  
HETATM   22  C   UNL     1      -8.405   6.229  71.169  1.00  0.00    -0.124 C  
HETATM   23  C   UNL     1      -5.620   6.585  70.270  1.00  0.00    -0.018 C  
HETATM   24  H1  UNL     1      -5.308   7.682  68.550  1.00  0.00     0.000 HD 
HETATM   25  H2  UNL     1      -6.602   6.602  68.441  1.00  0.00     0.000 HD 
ENDBRANCH   6  17
BRANCH  16  26
HETATM   26  C   UNL     1     -12.122  12.557  67.658  1.00  0.00    -0.056 C  
BRANCH  26  27
HETATM   27  C   UNL     1     -11.711  14.029  67.906  1.00  0.00    -0.362 A  
HETATM   28  N   UNL     1     -11.042  14.678  66.919  1.00  0.00    -0.325 NA 
HETATM   29  C   UNL     1     -10.502  15.888  67.186  1.00  0.00    -0.313 A  
HETATM   30  C   UNL     1     -10.596  16.489  68.449  1.00  0.00    -0.323 A  
HETATM   31  C   UNL     1      -9.939  17.739  68.684  1.00  0.00    -0.379 A  
HETATM   32  C   UNL     1     -11.346  15.766  69.387  1.00  0.00    -0.348 A  
HETATM   33  C   UNL     1      -9.222  18.391  67.683  1.00  0.00    -0.274 A  
HETATM   34  C   UNL     1     -11.500  16.214  70.813  1.00  0.00    -0.408 C  
HETATM   35  N   UNL     1     -11.918  14.569  69.119  1.00  0.00    -0.319 NA 
HETATM   36  C   UNL     1      -9.158  17.812  66.427  1.00  0.00    -0.254 A  
HETATM   37  C   UNL     1      -9.794  16.581  66.198  1.00  0.00    -0.355 A  
ENDBRANCH  26  27
ENDBRANCH  16  26
ENDBRANCH   4   5
ENDBRANCH   3   4
TORSDOF 5
ENDMDL
MODEL       49
REMARK 921   NORMALIZED FREE ENERGY PREDICTED BY IDOCK:   -6.86 KCAL/MOL
REMARK 922        TOTAL FREE ENERGY PREDICTED BY IDOCK:   -9.36 KCAL/MOL
REMARK 923 INTER-LIGAND FREE ENERGY PREDICTED BY IDOCK:   -8.02 KCAL/MOL
REMARK 924 INTRA-LIGAND FREE ENERGY PREDICTED BY IDOCK:   -1.35 KCAL/MOL
REMARK 927      BINDING AFFINITY PREDICTED BY RF-SCORE:    0.00 PKD
ROOT
HETATM    1  C   UNL     1     -10.628   5.402  66.691  1.00  0.00    -0.359 C  
HETATM    2  C   UNL     1     -10.759   6.230  67.959  1.00  0.00    -0.369 C  
HETATM    3  C   UNL     1     -10.872   6.940  69.047  1.00  0.00    -0.247 C  
ENDROOT
BRANCH   3   4
HETATM    4  C   UNL     1     -11.003   7.767  70.316  1.00  0.00    -0.247 C  
BRANCH   4   5
HETATM    5  N   UNL     1      -9.773   8.646  70.384  1.00  0.00    -0.171 NA 
HETATM    6  C   UNL     1      -8.687   8.525  71.287  1.00  0.00    -0.181 A  
HETATM    7  N   UNL     1      -7.723   9.365  70.965  1.00  0.00    -0.323 NA 
HETATM    8  N   UNL     1      -7.443  11.049  69.262  1.00  0.00    -0.120 N  
HETATM    9  C   UNL     1      -8.184  10.093  69.928  1.00  0.00    -0.109 A  
HETATM   10  O   UNL     1      -7.251  12.201  67.299  1.00  0.00    -0.135 OA 
HETATM   11  C   UNL     1      -9.456   9.744  69.556  1.00  0.00    -0.212 A  
HETATM   12  C   UNL     1      -6.082  11.350  69.667  1.00  0.00    -0.110 C  
HETATM   13  C   UNL     1     -10.132  10.481  68.518  1.00  0.00    -0.173 C  
HETATM   14  C   UNL     1      -7.975  11.638  68.128  1.00  0.00    -0.141 C  
HETATM   15  O   UNL     1     -11.263  10.198  68.140  1.00  0.00    -0.258 OA 
HETATM   16  N   UNL     1      -9.364  11.526  67.954  1.00  0.00    -0.166 N  
BRANCH   6  17
HETATM   17  N   UNL     1      -8.553   7.610  72.295  1.00  0.00    -0.117 NA 
HETATM   18  N   UNL     1      -6.622   9.212  74.269  1.00  0.00    -0.358 NA 
HETATM   19  C   UNL     1      -6.656   6.749  74.375  1.00  0.00    -0.083 C  
HETATM   20  C   UNL     1      -8.753   8.004  73.701  1.00  0.00    -0.268 C  
HETATM   21  C   UNL     1      -6.343   6.521  72.903  1.00  0.00    -0.059 C  
HETATM   22  C   UNL     1      -7.621   6.480  72.061  1.00  0.00    -0.093 C  
HETATM   23  C   UNL     1      -7.457   8.038  74.559  1.00  0.00    -0.198 C  
HETATM   24  H1  UNL     1      -7.156  10.073  74.391  1.00  0.00     0.000 HD 
HETATM   25  H2  UNL     1      -6.200   9.158  73.342  1.00  0.00     0.000 HD 
ENDBRANCH   6  17
BRANCH  16  26
HETATM   26  C   UNL     1      -9.924  12.374  66.873  1.00  0.00    -0.215 C  
BRANCH  26  27
HETATM   27  C   UNL     1     -10.278  13.838  67.228  1.00  0.00    -0.253 A  
HETATM   28  N   UNL     1     -10.241  14.762  66.235  1.00  0.00    -0.286 NA 
HETATM   29  C   UNL     1     -10.350  16.070  66.557  1.00  0.00    -0.299 A  
HETATM   30  C   UNL     1     -10.485  16.506  67.883  1.00  0.00    -0.313 A  
HETATM   31  C   UNL     1     -10.522  17.910  68.161  1.00  0.00    -0.380 A  
HETATM   32  C   UNL     1     -10.562  15.478  68.833  1.00  0.00    -0.240 A  
HETATM   33  C   UNL     1     -10.449  18.862  67.146  1.00  0.00    -0.509 A  
HETATM   34  C   UNL     1     -10.639  15.750  70.309  1.00  0.00    -0.297 C  
HETATM   35  N   UNL     1     -10.487  14.165  68.516  1.00  0.00    -0.246 NA 
HETATM   36  C   UNL     1     -10.348  18.428  65.835  1.00  0.00    -0.322 A  
HETATM   37  C   UNL     1     -10.302  17.051  65.561  1.00  0.00    -0.161 A  
ENDBRANCH  26  27
ENDBRANCH  16  26
ENDBRANCH   4   5
ENDBRANCH   3   4
TORSDOF 5
ENDMDL
MODEL       50
REMARK 921   NORMALIZED FREE ENERGY PREDICTED BY IDOCK:   -6.83 KCAL/MOL
REMARK 922        TOTAL FREE ENERGY PREDICTED BY IDOCK:   -9.33 KCAL/MOL
REMARK 923 INTER-LIGAND FREE ENERGY PREDICTED BY IDOCK:   -8.93 KCAL/MOL
REMARK 924 INTRA-LIGAND FREE ENERGY PREDICTED BY IDOCK:   -0.40 KCAL/MOL
REMARK 927      BINDING AFFINITY PREDICTED BY RF-SCORE:    0.00 PKD
ROOT
HETATM    1  C   UNL     1     -12.603  12.475  64.896  1.00  0.00    -0.469 C  
HETATM    2  C   UNL     1     -11.905  12.635  66.237  1.00  0.00    -0.471 C  
HETATM    3  C   UNL     1     -11.307  12.773  67.388  1.00  0.00    -0.363 C  
ENDROOT
BRANCH   3   4
HETATM    4  C   UNL     1     -10.611  12.933  68.729  1.00  0.00    -0.190 C  
BRANCH   4   5
HETATM    5  N   UNL     1     -11.243  11.925  69.665  1.00  0.00    -0.167 NA 
HETATM    6  C   UNL     1     -12.328  12.146  70.549  1.00  0.00    -0.272 A  
HETATM    7  N   UNL     1     -12.713  11.012  71.101  1.00  0.00    -0.402 NA 
HETATM    8  N   UNL     1     -11.953   8.726  70.978  1.00  0.00    -0.280 N  
HETATM    9  C   UNL     1     -11.853  10.068  70.668  1.00  0.00    -0.325 A  
HETATM   10  O   UNL     1     -11.358   6.625  70.309  1.00  0.00    -0.318 OA 
HETATM   11  C   UNL     1     -10.892  10.568  69.828  1.00  0.00    -0.281 A  
HETATM   12  C   UNL     1     -13.019   8.240  71.836  1.00  0.00    -0.347 C  
HETATM   13  C   UNL     1      -9.842   9.709  69.341  1.00  0.00    -0.193 C  
HETATM   14  C   UNL     1     -11.092   7.831  70.367  1.00  0.00    -0.251 C  
HETATM   15  O   UNL     1      -8.970  10.105  68.576  1.00  0.00    -0.120 OA 
HETATM   16  N   UNL     1      -9.933   8.371  69.788  1.00  0.00    -0.188 N  
BRANCH   6  17
HETATM   17  N   UNL     1     -12.995  13.322  70.756  1.00  0.00    -0.100 NA 
HETATM   18  N   UNL     1     -10.548  15.256  71.439  1.00  0.00    -0.284 NA 
HETATM   19  C   UNL     1     -12.795  15.838  72.272  1.00  0.00    -0.525 C  
HETATM   20  C   UNL     1     -12.557  14.563  70.094  1.00  0.00    -0.288 C  
HETATM   21  C   UNL     1     -13.045  14.521  72.992  1.00  0.00    -0.611 C  
HETATM   22  C   UNL     1     -13.683  13.488  72.060  1.00  0.00    -0.478 C  
HETATM   23  C   UNL     1     -11.916  15.616  71.041  1.00  0.00    -0.400 C  
HETATM   24  H1  UNL     1      -9.961  15.108  70.618  1.00  0.00     0.000 HD 
HETATM   25  H2  UNL     1     -10.536  14.450  72.064  1.00  0.00     0.000 HD 
ENDBRANCH   6  17
BRANCH  16  26
HETATM   26  C   UNL     1      -8.924   7.366  69.369  1.00  0.00    -0.139 C  
BRANCH  26  27
HETATM   27  C   UNL     1      -8.910   6.952  67.878  1.00  0.00    -0.123 A  
HETATM   28  N   UNL     1      -9.774   5.986  67.477  1.00  0.00    -0.112 NA 
HETATM   29  C   UNL     1      -9.645   5.470  66.234  1.00  0.00    -0.156 A  
HETATM   30  C   UNL     1      -8.640   5.888  65.351  1.00  0.00    -0.138 A  
HETATM   31  C   UNL     1      -8.514   5.249  64.076  1.00  0.00    -0.102 A  
HETATM   32  C   UNL     1      -7.827   6.923  65.835  1.00  0.00    -0.106 A  
HETATM   33  C   UNL     1      -9.378   4.233  63.676  1.00  0.00    -0.131 A  
HETATM   34  C   UNL     1      -6.654   7.455  65.061  1.00  0.00    -0.044 C  
HETATM   35  N   UNL     1      -7.970   7.467  67.066  1.00  0.00    -0.115 NA 
HETATM   36  C   UNL     1     -10.390   3.844  64.537  1.00  0.00    -0.231 A  
HETATM   37  C   UNL     1     -10.509   4.463  65.792  1.00  0.00    -0.211 A  
ENDBRANCH  26  27
ENDBRANCH  16  26
ENDBRANCH   4   5
ENDBRANCH   3   4
TORSDOF 5
ENDMDL
MODEL       51
REMARK 921   NORMALIZED FREE ENERGY PREDICTED BY IDOCK:   -6.81 KCAL/MOL
REMARK 922        TOTAL FREE ENERGY PREDICTED BY IDOCK:   -9.30 KCAL/MOL
REMARK 923 INTER-LIGAND FREE ENERGY PREDICTED BY IDOCK:   -8.67 KCAL/MOL
REMARK 924 INTRA-LIGAND FREE ENERGY PREDICTED BY IDOCK:   -0.64 KCAL/MOL
REMARK 927      BINDING AFFINITY PREDICTED BY RF-SCORE:    0.00 PKD
ROOT
HETATM    1  C   UNL     1     -12.597  14.558  73.036  1.00  0.00    -0.419 C  
HETATM    2  C   UNL     1     -12.441  14.787  71.541  1.00  0.00    -0.403 C  
HETATM    3  C   UNL     1     -12.306  14.984  70.259  1.00  0.00    -0.392 C  
ENDROOT
BRANCH   3   4
HETATM    4  C   UNL     1     -12.150  15.213  68.765  1.00  0.00    -0.165 C  
BRANCH   4   5
HETATM    5  N   UNL     1     -10.726  14.833  68.419  1.00  0.00    -0.237 NA 
HETATM    6  C   UNL     1      -9.637  15.715  68.205  1.00  0.00    -0.200 A  
HETATM    7  N   UNL     1      -8.514  15.037  68.070  1.00  0.00    -0.145 NA 
HETATM    8  N   UNL     1      -7.943  12.693  68.050  1.00  0.00    -0.143 N  
HETATM    9  C   UNL     1      -8.852  13.731  68.103  1.00  0.00    -0.185 A  
HETATM   10  O   UNL     1      -7.624  10.489  68.555  1.00  0.00    -0.088 OA 
HETATM   11  C   UNL     1     -10.199  13.534  68.258  1.00  0.00    -0.250 A  
HETATM   12  C   UNL     1      -6.521  12.957  67.933  1.00  0.00    -0.127 C  
HETATM   13  C   UNL     1     -10.741  12.199  68.228  1.00  0.00    -0.223 C  
HETATM   14  C   UNL     1      -8.396  11.397  68.227  1.00  0.00    -0.152 C  
HETATM   15  O   UNL     1     -11.937  11.970  68.377  1.00  0.00    -0.377 OA 
HETATM   16  N   UNL     1      -9.773  11.184  68.053  1.00  0.00    -0.171 N  
BRANCH   6  17
HETATM   17  N   UNL     1      -9.665  17.081  68.238  1.00  0.00    -0.264 NA 
HETATM   18  N   UNL     1     -10.641  17.705  65.262  1.00  0.00    -0.601 NA 
HETATM   19  C   UNL     1      -9.363  19.426  66.482  1.00  0.00    -0.414 C  
HETATM   20  C   UNL     1     -10.849  17.822  67.766  1.00  0.00    -0.228 C  
HETATM   21  C   UNL     1      -8.167  18.541  66.800  1.00  0.00    -0.268 C  
HETATM   22  C   UNL     1      -8.366  17.787  68.118  1.00  0.00    -0.264 C  
HETATM   23  C   UNL     1     -10.645  18.594  66.432  1.00  0.00    -0.349 C  
HETATM   24  H1  UNL     1     -11.496  17.150  65.229  1.00  0.00     0.000 HD 
HETATM   25  H2  UNL     1      -9.808  17.117  65.237  1.00  0.00     0.000 HD 
ENDBRANCH   6  17
BRANCH  16  26
HETATM   26  C   UNL     1     -10.177   9.756  68.003  1.00  0.00    -0.190 C  
BRANCH  26  27
HETATM   27  C   UNL     1     -10.387   9.030  69.353  1.00  0.00    -0.213 A  
HETATM   28  N   UNL     1      -9.493   8.073  69.708  1.00  0.00    -0.160 NA 
HETATM   29  C   UNL     1      -9.763   7.292  70.777  1.00  0.00    -0.171 A  
HETATM   30  C   UNL     1     -10.942   7.427  71.524  1.00  0.00    -0.255 A  
HETATM   31  C   UNL     1     -11.201   6.519  72.601  1.00  0.00    -0.284 A  
HETATM   32  C   UNL     1     -11.780   8.472  71.112  1.00  0.00    -0.281 A  
HETATM   33  C   UNL     1     -10.300   5.513  72.944  1.00  0.00    -0.227 A  
HETATM   34  C   UNL     1     -13.119   8.728  71.745  1.00  0.00    -0.406 C  
HETATM   35  N   UNL     1     -11.502   9.280  70.063  1.00  0.00    -0.122 NA 
HETATM   36  C   UNL     1      -9.121   5.403  72.227  1.00  0.00    -0.151 A  
HETATM   37  C   UNL     1      -8.871   6.286  71.163  1.00  0.00    -0.142 A  
ENDBRANCH  26  27
ENDBRANCH  16  26
ENDBRANCH   4   5
ENDBRANCH   3   4
TORSDOF 5
ENDMDL
MODEL       52
REMARK 921   NORMALIZED FREE ENERGY PREDICTED BY IDOCK:   -6.75 KCAL/MOL
REMARK 922        TOTAL FREE ENERGY PREDICTED BY IDOCK:   -9.22 KCAL/MOL
REMARK 923 INTER-LIGAND FREE ENERGY PREDICTED BY IDOCK:   -8.66 KCAL/MOL
REMARK 924 INTRA-LIGAND FREE ENERGY PREDICTED BY IDOCK:   -0.56 KCAL/MOL
REMARK 927      BINDING AFFINITY PREDICTED BY RF-SCORE:    0.00 PKD
ROOT
HETATM    1  C   UNL     1     -12.285  12.686  63.333  1.00  0.00    -0.610 C  
HETATM    2  C   UNL     1     -11.959  13.062  64.770  1.00  0.00    -0.443 C  
HETATM    3  C   UNL     1     -11.679  13.385  66.002  1.00  0.00    -0.398 C  
ENDROOT
BRANCH   3   4
HETATM    4  C   UNL     1     -11.354  13.762  67.438  1.00  0.00    -0.324 C  
BRANCH   4   5
HETATM    5  N   UNL     1      -9.924  13.330  67.682  1.00  0.00    -0.225 NA 
HETATM    6  C   UNL     1      -8.780  14.165  67.744  1.00  0.00    -0.182 A  
HETATM    7  N   UNL     1      -7.723  13.472  68.120  1.00  0.00    -0.126 NA 
HETATM    8  N   UNL     1      -7.319  11.153  68.650  1.00  0.00    -0.102 N  
HETATM    9  C   UNL     1      -8.126  12.189  68.221  1.00  0.00    -0.166 A  
HETATM   10  O   UNL     1      -7.326   9.056  69.553  1.00  0.00    -0.067 OA 
HETATM   11  C   UNL     1      -9.451  12.021  67.913  1.00  0.00    -0.196 A  
HETATM   12  C   UNL     1      -5.933  11.392  69.010  1.00  0.00    -0.051 C  
HETATM   13  C   UNL     1     -10.024  10.698  67.888  1.00  0.00    -0.166 C  
HETATM   14  C   UNL     1      -7.879   9.903  68.841  1.00  0.00    -0.091 C  
HETATM   15  O   UNL     1     -11.206  10.498  67.633  1.00  0.00    -0.326 OA 
HETATM   16  N   UNL     1      -9.116   9.667  68.221  1.00  0.00    -0.123 N  
BRANCH   6  17
HETATM   17  N   UNL     1      -8.739  15.519  67.563  1.00  0.00    -0.167 NA 
HETATM   18  N   UNL     1     -11.506  16.363  68.915  1.00  0.00    -0.276 NA 
HETATM   19  C   UNL     1     -10.513  17.843  67.210  1.00  0.00    -0.373 C  
HETATM   20  C   UNL     1      -9.002  16.438  68.685  1.00  0.00    -0.233 C  
HETATM   21  C   UNL     1     -10.403  16.784  66.123  1.00  0.00    -0.338 C  
HETATM   22  C   UNL     1      -9.073  16.030  66.211  1.00  0.00    -0.344 C  
HETATM   23  C   UNL     1     -10.349  17.210  68.592  1.00  0.00    -0.359 C  
HETATM   24  H1  UNL     1     -11.397  15.940  69.837  1.00  0.00     0.000 HD 
HETATM   25  H2  UNL     1     -11.673  15.661  68.194  1.00  0.00     0.000 HD 
ENDBRANCH   6  17
BRANCH  16  26
HETATM   26  C   UNL     1      -9.560   8.250  68.241  1.00  0.00    -0.147 C  
BRANCH  26  27
HETATM   27  C   UNL     1      -9.977   7.655  69.607  1.00  0.00    -0.185 A  
HETATM   28  N   UNL     1      -9.507   6.426  69.937  1.00  0.00    -0.154 NA 
HETATM   29  C   UNL     1     -10.013   5.805  71.026  1.00  0.00    -0.190 A  
HETATM   30  C   UNL     1     -11.017   6.381  71.817  1.00  0.00    -0.298 A  
HETATM   31  C   UNL     1     -11.561   5.638  72.915  1.00  0.00    -0.252 A  
HETATM   32  C   UNL     1     -11.404   7.670  71.426  1.00  0.00    -0.258 A  
HETATM   33  C   UNL     1     -11.104   4.362  73.234  1.00  0.00    -0.368 A  
HETATM   34  C   UNL     1     -12.514   8.419  72.108  1.00  0.00    -0.422 C  
HETATM   35  N   UNL     1     -10.880   8.313  70.357  1.00  0.00    -0.234 NA 
HETATM   36  C   UNL     1     -10.089   3.809  72.472  1.00  0.00    -0.235 A  
HETATM   37  C   UNL     1      -9.562   4.532  71.389  1.00  0.00    -0.232 A  
ENDBRANCH  26  27
ENDBRANCH  16  26
ENDBRANCH   4   5
ENDBRANCH   3   4
TORSDOF 5
ENDMDL
MODEL       53
REMARK 921   NORMALIZED FREE ENERGY PREDICTED BY IDOCK:   -6.70 KCAL/MOL
REMARK 922        TOTAL FREE ENERGY PREDICTED BY IDOCK:   -9.16 KCAL/MOL
REMARK 923 INTER-LIGAND FREE ENERGY PREDICTED BY IDOCK:   -8.40 KCAL/MOL
REMARK 924 INTRA-LIGAND FREE ENERGY PREDICTED BY IDOCK:   -0.76 KCAL/MOL
REMARK 927      BINDING AFFINITY PREDICTED BY RF-SCORE:    0.00 PKD
ROOT
HETATM    1  C   UNL     1      -6.065   7.433  68.956  1.00  0.00    -0.034 C  
HETATM    2  C   UNL     1      -6.793   7.355  70.289  1.00  0.00    -0.052 C  
HETATM    3  C   UNL     1      -7.417   7.288  71.432  1.00  0.00    -0.082 C  
ENDROOT
BRANCH   3   4
HETATM    4  C   UNL     1      -8.144   7.210  72.765  1.00  0.00    -0.106 C  
BRANCH   4   5
HETATM    5  N   UNL     1      -9.603   6.963  72.444  1.00  0.00    -0.153 NA 
HETATM    6  C   UNL     1     -10.345   5.783  72.704  1.00  0.00    -0.198 A  
HETATM    7  N   UNL     1     -11.621   5.971  72.429  1.00  0.00    -0.311 NA 
HETATM    8  N   UNL     1     -12.911   7.811  71.552  1.00  0.00    -0.335 N  
HETATM    9  C   UNL     1     -11.720   7.214  71.914  1.00  0.00    -0.292 A  
HETATM   10  O   UNL     1     -13.936   9.818  71.185  1.00  0.00    -0.155 OA 
HETATM   11  C   UNL     1     -10.513   7.858  71.843  1.00  0.00    -0.228 A  
HETATM   12  C   UNL     1     -14.170   7.101  71.692  1.00  0.00    -0.349 C  
HETATM   13  C   UNL     1     -10.427   9.164  71.238  1.00  0.00    -0.328 C  
HETATM   14  C   UNL     1     -12.904   9.138  71.161  1.00  0.00    -0.195 C  
HETATM   15  O   UNL     1      -9.373   9.786  71.163  1.00  0.00    -0.057 OA 
HETATM   16  N   UNL     1     -11.663   9.673  70.779  1.00  0.00    -0.297 N  
BRANCH   6  17
HETATM   17  N   UNL     1      -9.881   4.626  73.265  1.00  0.00    -0.142 NA 
HETATM   18  N   UNL     1      -9.577   2.807  70.659  1.00  0.00    -0.139 NA 
HETATM   19  C   UNL     1      -9.882   1.711  72.846  1.00  0.00    -0.146 C  
HETATM   20  C   UNL     1      -8.693   3.947  72.719  1.00  0.00    -0.099 C  
HETATM   21  C   UNL     1     -11.168   2.439  73.212  1.00  0.00    -0.234 C  
HETATM   22  C   UNL     1     -10.877   3.755  73.938  1.00  0.00    -0.223 C  
HETATM   23  C   UNL     1      -8.986   2.606  71.989  1.00  0.00    -0.080 C  
HETATM   24  H1  UNL     1      -8.980   3.404  70.086  1.00  0.00     0.000 HD 
HETATM   25  H2  UNL     1     -10.529   3.170  70.718  1.00  0.00     0.000 HD 
ENDBRANCH   6  17
BRANCH  16  26
HETATM   26  C   UNL     1     -11.736  11.008  70.135  1.00  0.00    -0.356 C  
BRANCH  26  27
HETATM   27  C   UNL     1     -11.322  11.102  68.646  1.00  0.00    -0.277 A  
HETATM   28  N   UNL     1     -11.803  12.140  67.916  1.00  0.00    -0.490 NA 
HETATM   29  C   UNL     1     -11.620  12.135  66.577  1.00  0.00    -0.359 A  
HETATM   30  C   UNL     1     -10.965  11.088  65.914  1.00  0.00    -0.115 A  
HETATM   31  C   UNL     1     -10.870  11.109  64.486  1.00  0.00    -0.320 A  
HETATM   32  C   UNL     1     -10.462  10.086  66.756  1.00  0.00    -0.198 A  
HETATM   33  C   UNL     1     -11.393  12.157  63.731  1.00  0.00    -0.529 A  
HETATM   34  C   UNL     1      -9.792   8.850  66.226  1.00  0.00    -0.355 C  
HETATM   35  N   UNL     1     -10.612  10.099  68.101  1.00  0.00    -0.207 NA 
HETATM   36  C   UNL     1     -12.010  13.206  64.390  1.00  0.00    -0.454 A  
HETATM   37  C   UNL     1     -12.114  13.182  65.791  1.00  0.00    -0.502 A  
ENDBRANCH  26  27
ENDBRANCH  16  26
ENDBRANCH   4   5
ENDBRANCH   3   4
TORSDOF 5
ENDMDL
MODEL       54
REMARK 921   NORMALIZED FREE ENERGY PREDICTED BY IDOCK:   -6.66 KCAL/MOL
REMARK 922        TOTAL FREE ENERGY PREDICTED BY IDOCK:   -9.12 KCAL/MOL
REMARK 923 INTER-LIGAND FREE ENERGY PREDICTED BY IDOCK:   -7.69 KCAL/MOL
REMARK 924 INTRA-LIGAND FREE ENERGY PREDICTED BY IDOCK:   -1.42 KCAL/MOL
REMARK 927      BINDING AFFINITY PREDICTED BY RF-SCORE:    0.00 PKD
ROOT
HETATM    1  C   UNL     1     -13.015  14.808  72.266  1.00  0.00    -0.423 C  
HETATM    2  C   UNL     1     -12.993  13.498  71.495  1.00  0.00    -0.440 C  
HETATM    3  C   UNL     1     -12.975  12.373  70.834  1.00  0.00    -0.061 C  
ENDROOT
BRANCH   3   4
HETATM    4  C   UNL     1     -12.954  11.064  70.064  1.00  0.00     0.134 C  
BRANCH   4   5
HETATM    5  N   UNL     1     -11.545  10.898  69.537  1.00  0.00    -0.284 NA 
HETATM    6  C   UNL     1     -11.010  11.446  68.344  1.00  0.00    -0.215 A  
HETATM    7  N   UNL     1      -9.712  11.222  68.274  1.00  0.00    -0.191 NA 
HETATM    8  N   UNL     1      -8.116  10.066  69.665  1.00  0.00    -0.159 N  
HETATM    9  C   UNL     1      -9.399  10.467  69.347  1.00  0.00    -0.167 A  
HETATM   10  O   UNL     1      -6.772   9.356  71.369  1.00  0.00    -0.250 OA 
HETATM   11  C   UNL     1     -10.484  10.183  70.134  1.00  0.00    -0.255 A  
HETATM   12  C   UNL     1      -6.993  10.433  68.822  1.00  0.00    -0.068 C  
HETATM   13  C   UNL     1     -10.340   9.315  71.275  1.00  0.00    -0.327 C  
HETATM   14  C   UNL     1      -7.898   9.407  70.863  1.00  0.00    -0.057 C  
HETATM   15  O   UNL     1     -11.278   9.044  72.018  1.00  0.00    -0.361 OA 
HETATM   16  N   UNL     1      -9.024   8.842  71.482  1.00  0.00    -0.225 N  
BRANCH   6  17
HETATM   17  N   UNL     1     -11.671  12.205  67.418  1.00  0.00    -0.509 NA 
HETATM   18  N   UNL     1      -9.290  12.835  65.387  1.00  0.00    -0.397 NA 
HETATM   19  C   UNL     1     -11.215  14.373  65.480  1.00  0.00    -0.330 C  
HETATM   20  C   UNL     1     -11.553  11.910  65.980  1.00  0.00    -0.227 C  
HETATM   21  C   UNL     1     -11.131  14.644  66.975  1.00  0.00    -0.333 C  
HETATM   22  C   UNL     1     -11.941  13.619  67.774  1.00  0.00    -0.352 C  
HETATM   23  C   UNL     1     -10.738  12.955  65.166  1.00  0.00    -0.305 C  
HETATM   24  H1  UNL     1      -8.971  11.888  65.178  1.00  0.00     0.000 HD 
HETATM   25  H2  UNL     1      -9.026  13.123  66.329  1.00  0.00     0.000 HD 
ENDBRANCH   6  17
BRANCH  16  26
HETATM   26  C   UNL     1      -8.718   7.939  72.620  1.00  0.00    -0.167 C  
BRANCH  26  27
HETATM   27  C   UNL     1      -8.858   6.417  72.377  1.00  0.00    -0.134 A  
HETATM   28  N   UNL     1      -8.337   5.904  71.233  1.00  0.00    -0.123 NA 
HETATM   29  C   UNL     1      -8.619   4.623  70.906  1.00  0.00    -0.105 A  
HETATM   30  C   UNL     1      -9.442   3.811  71.699  1.00  0.00    -0.213 A  
HETATM   31  C   UNL     1      -9.760   2.486  71.258  1.00  0.00    -0.201 A  
HETATM   32  C   UNL     1      -9.892   4.412  72.883  1.00  0.00    -0.142 A  
HETATM   33  C   UNL     1      -9.255   1.970  70.067  1.00  0.00    -0.179 A  
HETATM   34  C   UNL     1     -10.839   3.725  73.826  1.00  0.00    -0.320 C  
HETATM   35  N   UNL     1      -9.588   5.683  73.235  1.00  0.00    -0.146 NA 
HETATM   36  C   UNL     1      -8.416   2.761  69.301  1.00  0.00    -0.099 A  
HETATM   37  C   UNL     1      -8.112   4.065  69.728  1.00  0.00    -0.060 A  
ENDBRANCH  26  27
ENDBRANCH  16  26
ENDBRANCH   4   5
ENDBRANCH   3   4
TORSDOF 5
ENDMDL
MODEL       55
REMARK 921   NORMALIZED FREE ENERGY PREDICTED BY IDOCK:   -6.65 KCAL/MOL
REMARK 922        TOTAL FREE ENERGY PREDICTED BY IDOCK:   -9.10 KCAL/MOL
REMARK 923 INTER-LIGAND FREE ENERGY PREDICTED BY IDOCK:   -8.28 KCAL/MOL
REMARK 924 INTRA-LIGAND FREE ENERGY PREDICTED BY IDOCK:   -0.83 KCAL/MOL
REMARK 927      BINDING AFFINITY PREDICTED BY RF-SCORE:    0.00 PKD
ROOT
HETATM    1  C   UNL     1     -13.240  10.023  71.715  1.00  0.00    -0.540 C  
HETATM    2  C   UNL     1     -11.992   9.228  72.063  1.00  0.00    -0.391 C  
HETATM    3  C   UNL     1     -10.921   8.546  72.361  1.00  0.00    -0.390 C  
ENDROOT
BRANCH   3   4
HETATM    4  C   UNL     1      -9.673   7.751  72.709  1.00  0.00    -0.232 C  
BRANCH   4   5
HETATM    5  N   UNL     1      -9.543   6.673  71.655  1.00  0.00    -0.163 NA 
HETATM    6  C   UNL     1      -9.652   5.273  71.849  1.00  0.00    -0.152 A  
HETATM    7  N   UNL     1      -9.633   4.643  70.690  1.00  0.00    -0.175 NA 
HETATM    8  N   UNL     1      -9.400   5.335  68.391  1.00  0.00    -0.114 N  
HETATM    9  C   UNL     1      -9.427   5.587  69.749  1.00  0.00    -0.149 A  
HETATM   10  O   UNL     1      -9.652   6.285  66.330  1.00  0.00    -0.162 OA 
HETATM   11  C   UNL     1      -9.307   6.847  70.275  1.00  0.00    -0.162 A  
HETATM   12  C   UNL     1      -9.579   3.987  67.882  1.00  0.00    -0.143 C  
HETATM   13  C   UNL     1      -8.999   7.961  69.414  1.00  0.00    -0.145 C  
HETATM   14  C   UNL     1      -9.315   6.402  67.514  1.00  0.00    -0.118 C  
HETATM   15  O   UNL     1      -8.896   9.108  69.835  1.00  0.00    -0.143 OA 
HETATM   16  N   UNL     1      -8.867   7.620  68.048  1.00  0.00    -0.128 N  
BRANCH   6  17
HETATM   17  N   UNL     1      -9.863   4.620  73.031  1.00  0.00    -0.140 NA 
HETATM   18  N   UNL     1      -9.064   1.644  72.193  1.00  0.00    -0.068 NA 
HETATM   19  C   UNL     1     -10.602   1.975  74.093  1.00  0.00    -0.205 C  
HETATM   20  C   UNL     1      -8.836   3.723  73.591  1.00  0.00    -0.089 C  
HETATM   21  C   UNL     1     -11.619   2.812  73.331  1.00  0.00    -0.114 C  
HETATM   22  C   UNL     1     -11.268   4.302  73.386  1.00  0.00    -0.268 C  
HETATM   23  C   UNL     1      -9.195   2.211  73.543  1.00  0.00    -0.075 C  
HETATM   24  H1  UNL     1      -8.126   1.802  71.826  1.00  0.00     0.000 HD 
HETATM   25  H2  UNL     1      -9.782   2.000  71.562  1.00  0.00     0.000 HD 
ENDBRANCH   6  17
BRANCH  16  26
HETATM   26  C   UNL     1      -8.553   8.662  67.038  1.00  0.00    -0.117 C  
BRANCH  26  27
HETATM   27  C   UNL     1      -9.672   9.670  66.686  1.00  0.00    -0.209 A  
HETATM   28  N   UNL     1      -9.768  10.090  65.399  1.00  0.00    -0.282 NA 
HETATM   29  C   UNL     1     -10.603  11.113  65.108  1.00  0.00    -0.253 A  
HETATM   30  C   UNL     1     -11.361  11.765  66.091  1.00  0.00    -0.342 A  
HETATM   31  C   UNL     1     -12.170  12.889  65.726  1.00  0.00    -0.498 A  
HETATM   32  C   UNL     1     -11.231  11.230  67.380  1.00  0.00    -0.303 A  
HETATM   33  C   UNL     1     -12.243  13.344  64.412  1.00  0.00    -0.444 A  
HETATM   34  C   UNL     1     -11.910  11.837  68.576  1.00  0.00    -0.365 C  
HETATM   35  N   UNL     1     -10.423  10.185  67.675  1.00  0.00    -0.226 NA 
HETATM   36  C   UNL     1     -11.519  12.678  63.437  1.00  0.00    -0.499 A  
HETATM   37  C   UNL     1     -10.718  11.582  63.795  1.00  0.00    -0.474 A  
ENDBRANCH  26  27
ENDBRANCH  16  26
ENDBRANCH   4   5
ENDBRANCH   3   4
TORSDOF 5
ENDMDL
MODEL       56
REMARK 921   NORMALIZED FREE ENERGY PREDICTED BY IDOCK:   -6.63 KCAL/MOL
REMARK 922        TOTAL FREE ENERGY PREDICTED BY IDOCK:   -9.07 KCAL/MOL
REMARK 923 INTER-LIGAND FREE ENERGY PREDICTED BY IDOCK:   -7.70 KCAL/MOL
REMARK 924 INTRA-LIGAND FREE ENERGY PREDICTED BY IDOCK:   -1.37 KCAL/MOL
REMARK 927      BINDING AFFINITY PREDICTED BY RF-SCORE:    0.00 PKD
ROOT
HETATM    1  C   UNL     1     -12.619  12.149  63.425  1.00  0.00    -0.584 C  
HETATM    2  C   UNL     1     -12.392  12.797  64.782  1.00  0.00    -0.540 C  
HETATM    3  C   UNL     1     -12.198  13.353  65.946  1.00  0.00    -0.502 C  
ENDROOT
BRANCH   3   4
HETATM    4  C   UNL     1     -11.972  14.001  67.302  1.00  0.00    -0.413 C  
BRANCH   4   5
HETATM    5  N   UNL     1     -10.475  14.016  67.526  1.00  0.00    -0.251 NA 
HETATM    6  C   UNL     1      -9.598  15.117  67.359  1.00  0.00    -0.208 A  
HETATM    7  N   UNL     1      -8.388  14.812  67.784  1.00  0.00    -0.150 NA 
HETATM    8  N   UNL     1      -7.364  12.830  68.702  1.00  0.00    -0.110 N  
HETATM    9  C   UNL     1      -8.428  13.513  68.145  1.00  0.00    -0.172 A  
HETATM   10  O   UNL     1      -6.792  11.021  69.973  1.00  0.00    -0.145 OA 
HETATM   11  C   UNL     1      -9.662  12.947  67.961  1.00  0.00    -0.224 A  
HETATM   12  C   UNL     1      -6.090  13.490  68.920  1.00  0.00    -0.089 C  
HETATM   13  C   UNL     1      -9.856  11.542  68.217  1.00  0.00    -0.203 C  
HETATM   14  C   UNL     1      -7.563  11.538  69.156  1.00  0.00    -0.003 C  
HETATM   15  O   UNL     1     -10.944  10.993  68.081  1.00  0.00    -0.208 OA 
HETATM   16  N   UNL     1      -8.699  10.870  68.673  1.00  0.00    -0.149 N  
BRANCH   6  17
HETATM   17  N   UNL     1      -9.927  16.373  66.930  1.00  0.00    -0.262 NA 
HETATM   18  N   UNL     1      -7.167  17.894  67.440  1.00  0.00    -0.183 NA 
HETATM   19  C   UNL     1      -9.256  19.203  67.387  1.00  0.00    -0.344 C  
HETATM   20  C   UNL     1      -9.059  17.098  65.987  1.00  0.00    -0.105 C  
HETATM   21  C   UNL     1      -9.976  18.398  68.458  1.00  0.00    -0.415 C  
HETATM   22  C   UNL     1     -10.731  17.212  67.852  1.00  0.00    -0.355 C  
HETATM   23  C   UNL     1      -8.298  18.308  66.599  1.00  0.00    -0.264 C  
HETATM   24  H1  UNL     1      -6.528  17.297  66.915  1.00  0.00     0.000 HD 
HETATM   25  H2  UNL     1      -7.480  17.447  68.302  1.00  0.00     0.000 HD 
ENDBRANCH   6  17
BRANCH  16  26
HETATM   26  C   UNL     1      -8.743   9.418  68.981  1.00  0.00    -0.136 C  
BRANCH  26  27
HETATM   27  C   UNL     1      -8.728   8.437  67.784  1.00  0.00    -0.137 A  
HETATM   28  N   UNL     1      -9.747   7.547  67.678  1.00  0.00    -0.142 NA 
HETATM   29  C   UNL     1      -9.655   6.557  66.762  1.00  0.00    -0.161 A  
HETATM   30  C   UNL     1      -8.536   6.408  65.930  1.00  0.00    -0.151 A  
HETATM   31  C   UNL     1      -8.470   5.294  65.033  1.00  0.00    -0.150 A  
HETATM   32  C   UNL     1      -7.559   7.401  66.080  1.00  0.00    -0.088 A  
HETATM   33  C   UNL     1      -9.499   4.359  64.947  1.00  0.00    -0.164 A  
HETATM   34  C   UNL     1      -6.259   7.372  65.326  1.00  0.00    -0.038 C  
HETATM   35  N   UNL     1      -7.658   8.416  66.970  1.00  0.00    -0.091 NA 
HETATM   36  C   UNL     1     -10.618   4.527  65.746  1.00  0.00    -0.226 A  
HETATM   37  C   UNL     1     -10.680   5.614  66.634  1.00  0.00    -0.339 A  
ENDBRANCH  26  27
ENDBRANCH  16  26
ENDBRANCH   4   5
ENDBRANCH   3   4
TORSDOF 5
ENDMDL
MODEL       57
REMARK 921   NORMALIZED FREE ENERGY PREDICTED BY IDOCK:   -6.62 KCAL/MOL
REMARK 922        TOTAL FREE ENERGY PREDICTED BY IDOCK:   -9.05 KCAL/MOL
REMARK 923 INTER-LIGAND FREE ENERGY PREDICTED BY IDOCK:   -7.56 KCAL/MOL
REMARK 924 INTRA-LIGAND FREE ENERGY PREDICTED BY IDOCK:   -1.50 KCAL/MOL
REMARK 927      BINDING AFFINITY PREDICTED BY RF-SCORE:    0.00 PKD
ROOT
HETATM    1  C   UNL     1     -13.348   8.764  72.287  1.00  0.00    -0.460 C  
HETATM    2  C   UNL     1     -12.584   7.788  71.406  1.00  0.00    -0.339 C  
HETATM    3  C   UNL     1     -11.930   6.951  70.650  1.00  0.00    -0.400 C  
ENDROOT
BRANCH   3   4
HETATM    4  C   UNL     1     -11.166   5.977  69.769  1.00  0.00    -0.369 C  
BRANCH   4   5
HETATM    5  N   UNL     1      -9.754   6.512  69.660  1.00  0.00    -0.156 NA 
HETATM    6  C   UNL     1      -8.711   6.365  70.608  1.00  0.00    -0.144 A  
HETATM    7  N   UNL     1      -7.576   6.827  70.121  1.00  0.00    -0.097 NA 
HETATM    8  N   UNL     1      -6.928   7.890  68.054  1.00  0.00    -0.071 N  
HETATM    9  C   UNL     1      -7.867   7.353  68.913  1.00  0.00    -0.117 A  
HETATM   10  O   UNL     1      -6.504   8.409  65.871  1.00  0.00    -0.052 OA 
HETATM   11  C   UNL     1      -9.195   7.244  68.591  1.00  0.00    -0.136 A  
HETATM   12  C   UNL     1      -5.526   7.939  68.424  1.00  0.00    -0.032 C  
HETATM   13  C   UNL     1      -9.691   7.830  67.372  1.00  0.00    -0.163 C  
HETATM   14  C   UNL     1      -7.325   8.277  66.786  1.00  0.00    -0.083 C  
HETATM   15  O   UNL     1     -10.867   7.746  67.032  1.00  0.00    -0.316 OA 
HETATM   16  N   UNL     1      -8.702   8.469  66.590  1.00  0.00    -0.121 N  
BRANCH   6  17
HETATM   17  N   UNL     1      -8.784   5.739  71.822  1.00  0.00    -0.135 NA 
HETATM   18  N   UNL     1      -6.122   6.844  73.196  1.00  0.00    -0.057 NA 
HETATM   19  C   UNL     1      -7.065   4.703  73.976  1.00  0.00    -0.076 C  
HETATM   20  C   UNL     1      -8.610   6.499  73.072  1.00  0.00    -0.118 C  
HETATM   21  C   UNL     1      -7.083   4.029  72.612  1.00  0.00    -0.053 C  
HETATM   22  C   UNL     1      -8.392   4.309  71.869  1.00  0.00    -0.101 C  
HETATM   23  C   UNL     1      -7.285   6.209  73.832  1.00  0.00    -0.087 C  
HETATM   24  H1  UNL     1      -6.268   7.849  73.100  1.00  0.00     0.000 HD 
HETATM   25  H2  UNL     1      -5.894   6.407  72.303  1.00  0.00     0.000 HD 
ENDBRANCH   6  17
BRANCH  16  26
HETATM   26  C   UNL     1      -9.060   9.119  65.304  1.00  0.00    -0.195 C  
BRANCH  26  27
HETATM   27  C   UNL     1      -9.763  10.495  65.375  1.00  0.00    -0.257 A  
HETATM   28  N   UNL     1      -9.694  11.187  66.541  1.00  0.00    -0.194 NA 
HETATM   29  C   UNL     1     -10.461  12.290  66.691  1.00  0.00    -0.222 A  
HETATM   30  C   UNL     1     -11.337  12.735  65.691  1.00  0.00    -0.354 A  
HETATM   31  C   UNL     1     -12.175  13.869  65.943  1.00  0.00    -0.497 A  
HETATM   32  C   UNL     1     -11.303  11.986  64.507  1.00  0.00    -0.330 A  
HETATM   33  C   UNL     1     -12.131  14.559  67.152  1.00  0.00    -0.301 A  
HETATM   34  C   UNL     1     -12.220  12.267  63.350  1.00  0.00    -0.630 C  
HETATM   35  N   UNL     1     -10.514  10.899  64.336  1.00  0.00    -0.361 NA 
HETATM   36  C   UNL     1     -11.241  14.138  68.126  1.00  0.00    -0.299 A  
HETATM   37  C   UNL     1     -10.426  13.020  67.884  1.00  0.00    -0.234 A  
ENDBRANCH  26  27
ENDBRANCH  16  26
ENDBRANCH   4   5
ENDBRANCH   3   4
TORSDOF 5
ENDMDL
MODEL       58
REMARK 921   NORMALIZED FREE ENERGY PREDICTED BY IDOCK:   -6.57 KCAL/MOL
REMARK 922        TOTAL FREE ENERGY PREDICTED BY IDOCK:   -8.99 KCAL/MOL
REMARK 923 INTER-LIGAND FREE ENERGY PREDICTED BY IDOCK:   -8.80 KCAL/MOL
REMARK 924 INTRA-LIGAND FREE ENERGY PREDICTED BY IDOCK:   -0.19 KCAL/MOL
REMARK 927      BINDING AFFINITY PREDICTED BY RF-SCORE:    0.00 PKD
ROOT
HETATM    1  C   UNL     1     -12.701  15.168  71.867  1.00  0.00    -0.414 C  
HETATM    2  C   UNL     1     -12.499  14.661  70.447  1.00  0.00    -0.410 C  
HETATM    3  C   UNL     1     -12.325  14.225  69.231  1.00  0.00    -0.197 C  
ENDROOT
BRANCH   3   4
HETATM    4  C   UNL     1     -12.123  13.717  67.813  1.00  0.00    -0.290 C  
BRANCH   4   5
HETATM    5  N   UNL     1     -10.846  12.905  67.824  1.00  0.00    -0.224 NA 
HETATM    6  C   UNL     1      -9.676  13.145  67.062  1.00  0.00    -0.241 A  
HETATM    7  N   UNL     1      -8.707  12.330  67.433  1.00  0.00    -0.171 NA 
HETATM    8  N   UNL     1      -8.525  10.537  69.036  1.00  0.00    -0.151 N  
HETATM    9  C   UNL     1      -9.240  11.505  68.357  1.00  0.00    -0.190 A  
HETATM   10  O   UNL     1      -8.487   9.252  70.923  1.00  0.00    -0.197 OA 
HETATM   11  C   UNL     1     -10.562  11.765  68.605  1.00  0.00    -0.223 A  
HETATM   12  C   UNL     1      -7.113  10.333  68.770  1.00  0.00    -0.072 C  
HETATM   13  C   UNL     1     -11.306  10.920  69.505  1.00  0.00    -0.283 C  
HETATM   14  C   UNL     1      -9.145   9.841  70.059  1.00  0.00    -0.223 C  
HETATM   15  O   UNL     1     -12.487  11.121  69.771  1.00  0.00    -0.263 OA 
HETATM   16  N   UNL     1     -10.549   9.874  70.080  1.00  0.00    -0.268 N  
BRANCH   6  17
HETATM   17  N   UNL     1      -9.482  14.138  66.142  1.00  0.00    -0.246 NA 
HETATM   18  N   UNL     1     -10.779  16.613  67.687  1.00  0.00    -0.328 NA 
HETATM   19  C   UNL     1     -10.655  16.678  65.225  1.00  0.00    -0.224 C  
HETATM   20  C   UNL     1      -8.884  15.425  66.536  1.00  0.00    -0.312 C  
HETATM   21  C   UNL     1     -11.385  15.363  64.993  1.00  0.00    -0.334 C  
HETATM   22  C   UNL     1     -10.414  14.179  64.987  1.00  0.00    -0.425 C  
HETATM   23  C   UNL     1      -9.867  16.629  66.534  1.00  0.00    -0.281 C  
HETATM   24  H1  UNL     1     -10.254  16.580  68.561  1.00  0.00     0.000 HD 
HETATM   25  H2  UNL     1     -11.456  15.852  67.623  1.00  0.00     0.000 HD 
ENDBRANCH   6  17
BRANCH  16  26
HETATM   26  C   UNL     1     -11.177   8.921  71.029  1.00  0.00    -0.281 C  
BRANCH  26  27
HETATM   27  C   UNL     1     -10.951   7.412  70.775  1.00  0.00    -0.255 A  
HETATM   28  N   UNL     1     -10.705   6.615  71.846  1.00  0.00    -0.219 NA 
HETATM   29  C   UNL     1     -10.310   5.340  71.632  1.00  0.00    -0.216 A  
HETATM   30  C   UNL     1     -10.132   4.816  70.344  1.00  0.00    -0.301 A  
HETATM   31  C   UNL     1      -9.642   3.480  70.189  1.00  0.00    -0.225 A  
HETATM   32  C   UNL     1     -10.457   5.698  69.304  1.00  0.00    -0.286 A  
HETATM   33  C   UNL     1      -9.355   2.672  71.287  1.00  0.00    -0.207 A  
HETATM   34  C   UNL     1     -10.265   5.341  67.857  1.00  0.00    -0.203 C  
HETATM   35  N   UNL     1     -10.885   6.966  69.508  1.00  0.00    -0.244 NA 
HETATM   36  C   UNL     1      -9.562   3.180  72.558  1.00  0.00    -0.190 A  
HETATM   37  C   UNL     1     -10.034   4.495  72.712  1.00  0.00    -0.209 A  
ENDBRANCH  26  27
ENDBRANCH  16  26
ENDBRANCH   4   5
ENDBRANCH   3   4
TORSDOF 5
ENDMDL
MODEL       59
REMARK 921   NORMALIZED FREE ENERGY PREDICTED BY IDOCK:   -6.56 KCAL/MOL
REMARK 922        TOTAL FREE ENERGY PREDICTED BY IDOCK:   -8.98 KCAL/MOL
REMARK 923 INTER-LIGAND FREE ENERGY PREDICTED BY IDOCK:   -8.62 KCAL/MOL
REMARK 924 INTRA-LIGAND FREE ENERGY PREDICTED BY IDOCK:   -0.36 KCAL/MOL
REMARK 927      BINDING AFFINITY PREDICTED BY RF-SCORE:    0.00 PKD
ROOT
HETATM    1  C   UNL     1      -8.515   7.089  68.432  1.00  0.00    -0.123 C  
HETATM    2  C   UNL     1      -7.990   8.166  67.496  1.00  0.00    -0.122 C  
HETATM    3  C   UNL     1      -7.540   9.090  66.693  1.00  0.00    -0.089 C  
ENDROOT
BRANCH   3   4
HETATM    4  C   UNL     1      -7.017  10.167  65.758  1.00  0.00    -0.123 C  
BRANCH   4   5
HETATM    5  N   UNL     1      -8.189  10.604  64.906  1.00  0.00    -0.111 NA 
HETATM    6  C   UNL     1      -8.498  10.168  63.594  1.00  0.00    -0.184 A  
HETATM    7  N   UNL     1      -9.670  10.641  63.214  1.00  0.00    -0.329 NA 
HETATM    8  N   UNL     1     -11.317  12.089  64.218  1.00  0.00    -0.346 N  
HETATM    9  C   UNL     1     -10.095  11.446  64.210  1.00  0.00    -0.297 A  
HETATM   10  O   UNL     1     -12.888  13.053  65.566  1.00  0.00    -0.509 OA 
HETATM   11  C   UNL     1      -9.210  11.513  65.254  1.00  0.00    -0.080 A  
HETATM   12  C   UNL     1     -12.239  11.947  63.106  1.00  0.00    -0.226 C  
HETATM   13  C   UNL     1      -9.471  12.396  66.364  1.00  0.00    -0.240 C  
HETATM   14  C   UNL     1     -11.701  12.781  65.353  1.00  0.00    -0.387 C  
HETATM   15  O   UNL     1      -8.718  12.480  67.328  1.00  0.00    -0.177 OA 
HETATM   16  N   UNL     1     -10.682  13.118  66.259  1.00  0.00    -0.282 N  
BRANCH   6  17
HETATM   17  N   UNL     1      -7.781   9.293  62.827  1.00  0.00    -0.116 NA 
HETATM   18  N   UNL     1      -8.391   6.557  64.356  1.00  0.00    -0.326 NA 
HETATM   19  C   UNL     1      -6.334   6.735  63.008  1.00  0.00    -0.043 C  
HETATM   20  C   UNL     1      -8.394   8.048  62.330  1.00  0.00    -0.122 C  
HETATM   21  C   UNL     1      -5.795   7.977  63.702  1.00  0.00    -0.062 C  
HETATM   22  C   UNL     1      -6.313   9.256  63.038  1.00  0.00    -0.090 C  
HETATM   23  C   UNL     1      -7.863   6.749  62.998  1.00  0.00    -0.105 C  
HETATM   24  H1  UNL     1      -9.411   6.566  64.350  1.00  0.00     0.000 HD 
HETATM   25  H2  UNL     1      -8.011   7.241  65.010  1.00  0.00     0.000 HD 
ENDBRANCH   6  17
BRANCH  16  26
HETATM   26  C   UNL     1     -11.089  14.066  67.326  1.00  0.00    -0.302 C  
BRANCH  26  27
HETATM   27  C   UNL     1     -11.497  13.465  68.693  1.00  0.00    -0.310 A  
HETATM   28  N   UNL     1     -11.514  12.113  68.815  1.00  0.00    -0.281 NA 
HETATM   29  C   UNL     1     -12.054  11.566  69.927  1.00  0.00    -0.316 A  
HETATM   30  C   UNL     1     -12.610  12.345  70.951  1.00  0.00    -0.337 A  
HETATM   31  C   UNL     1     -13.231  11.700  72.068  1.00  0.00    -0.443 A  
HETATM   32  C   UNL     1     -12.502  13.730  70.758  1.00  0.00    -0.370 A  
HETATM   33  C   UNL     1     -13.281  10.312  72.179  1.00  0.00    -0.443 A  
HETATM   34  C   UNL     1     -13.100  14.725  71.712  1.00  0.00    -0.421 C  
HETATM   35  N   UNL     1     -11.934  14.286  69.663  1.00  0.00    -0.317 NA 
HETATM   36  C   UNL     1     -12.703   9.545  71.182  1.00  0.00    -0.371 A  
HETATM   37  C   UNL     1     -12.102  10.176  70.081  1.00  0.00    -0.224 A  
ENDBRANCH  26  27
ENDBRANCH  16  26
ENDBRANCH   4   5
ENDBRANCH   3   4
TORSDOF 5
ENDMDL
MODEL       60
REMARK 921   NORMALIZED FREE ENERGY PREDICTED BY IDOCK:   -6.55 KCAL/MOL
REMARK 922        TOTAL FREE ENERGY PREDICTED BY IDOCK:   -8.97 KCAL/MOL
REMARK 923 INTER-LIGAND FREE ENERGY PREDICTED BY IDOCK:   -8.30 KCAL/MOL
REMARK 924 INTRA-LIGAND FREE ENERGY PREDICTED BY IDOCK:   -0.67 KCAL/MOL
REMARK 927      BINDING AFFINITY PREDICTED BY RF-SCORE:    0.00 PKD
ROOT
HETATM    1  C   UNL     1      -6.133  14.137  71.246  1.00  0.00    -0.057 C  
HETATM    2  C   UNL     1      -6.559  14.809  69.950  1.00  0.00    -0.175 C  
HETATM    3  C   UNL     1      -6.924  15.386  68.839  1.00  0.00    -0.127 C  
ENDROOT
BRANCH   3   4
HETATM    4  C   UNL     1      -7.350  16.058  67.544  1.00  0.00    -0.163 C  
BRANCH   4   5
HETATM    5  N   UNL     1      -8.712  15.498  67.197  1.00  0.00    -0.196 NA 
HETATM    6  C   UNL     1      -9.935  16.212  67.128  1.00  0.00    -0.251 A  
HETATM    7  N   UNL     1     -10.893  15.440  66.652  1.00  0.00    -0.311 NA 
HETATM    8  N   UNL     1     -11.021  13.135  65.953  1.00  0.00    -0.270 N  
HETATM    9  C   UNL     1     -10.350  14.216  66.490  1.00  0.00    -0.284 A  
HETATM   10  O   UNL     1     -10.746  11.119  64.917  1.00  0.00    -0.302 OA 
HETATM   11  C   UNL     1      -9.031  14.166  66.857  1.00  0.00    -0.230 A  
HETATM   12  C   UNL     1     -12.406  13.253  65.535  1.00  0.00    -0.480 C  
HETATM   13  C   UNL     1      -8.321  12.912  66.826  1.00  0.00     0.045 C  
HETATM   14  C   UNL     1     -10.321  11.966  65.711  1.00  0.00    -0.248 C  
HETATM   15  O   UNL     1      -7.137  12.819  67.131  1.00  0.00    -0.116 OA 
HETATM   16  N   UNL     1      -9.096  11.817  66.380  1.00  0.00    -0.212 N  
BRANCH   6  17
HETATM   17  N   UNL     1     -10.130  17.538  67.394  1.00  0.00    -0.313 NA 
HETATM   18  N   UNL     1      -7.747  18.819  65.698  1.00  0.00    -0.453 NA 
HETATM   19  C   UNL     1      -8.653  20.076  67.617  1.00  0.00    -0.385 C  
HETATM   20  C   UNL     1     -10.171  18.527  66.303  1.00  0.00    -0.418 C  
HETATM   21  C   UNL     1      -8.448  18.971  68.643  1.00  0.00    -0.394 C  
HETATM   22  C   UNL     1      -9.662  18.039  68.709  1.00  0.00    -0.328 C  
HETATM   23  C   UNL     1      -8.943  19.479  66.239  1.00  0.00    -0.364 C  
HETATM   24  H1  UNL     1      -7.940  18.421  64.779  1.00  0.00     0.000 HD 
HETATM   25  H2  UNL     1      -7.376  18.121  66.343  1.00  0.00     0.000 HD 
ENDBRANCH   6  17
BRANCH  16  26
HETATM   26  C   UNL     1      -8.502  10.460  66.292  1.00  0.00    -0.144 C  
BRANCH  26  27
HETATM   27  C   UNL     1      -8.928   9.428  67.364  1.00  0.00    -0.124 A  
HETATM   28  N   UNL     1      -8.859   8.111  67.043  1.00  0.00    -0.129 NA 
HETATM   29  C   UNL     1      -9.409   7.206  67.883  1.00  0.00    -0.128 A  
HETATM   30  C   UNL     1     -10.060   7.581  69.066  1.00  0.00    -0.192 A  
HETATM   31  C   UNL     1     -10.685   6.577  69.874  1.00  0.00    -0.310 A  
HETATM   32  C   UNL     1     -10.038   8.956  69.336  1.00  0.00    -0.202 A  
HETATM   33  C   UNL     1     -10.646   5.228  69.529  1.00  0.00    -0.244 A  
HETATM   34  C   UNL     1     -10.744   9.556  70.520  1.00  0.00    -0.359 C  
HETATM   35  N   UNL     1      -9.462   9.866  68.517  1.00  0.00    -0.144 NA 
HETATM   36  C   UNL     1      -9.973   4.856  68.377  1.00  0.00    -0.183 A  
HETATM   37  C   UNL     1      -9.369   5.841  67.578  1.00  0.00    -0.111 A  
ENDBRANCH  26  27
ENDBRANCH  16  26
ENDBRANCH   4   5
ENDBRANCH   3   4
TORSDOF 5
ENDMDL
MODEL       61
REMARK 921   NORMALIZED FREE ENERGY PREDICTED BY IDOCK:   -6.53 KCAL/MOL
REMARK 922        TOTAL FREE ENERGY PREDICTED BY IDOCK:   -8.94 KCAL/MOL
REMARK 923 INTER-LIGAND FREE ENERGY PREDICTED BY IDOCK:   -8.31 KCAL/MOL
REMARK 924 INTRA-LIGAND FREE ENERGY PREDICTED BY IDOCK:   -0.63 KCAL/MOL
REMARK 927      BINDING AFFINITY PREDICTED BY RF-SCORE:    0.00 PKD
ROOT
HETATM    1  C   UNL     1     -13.041  10.218  70.982  1.00  0.00    -0.458 C  
HETATM    2  C   UNL     1     -11.680   9.626  71.315  1.00  0.00    -0.458 C  
HETATM    3  C   UNL     1     -10.514   9.119  71.601  1.00  0.00    -0.403 C  
ENDROOT
BRANCH   3   4
HETATM    4  C   UNL     1      -9.154   8.527  71.933  1.00  0.00    -0.244 C  
BRANCH   4   5
HETATM    5  N   UNL     1      -8.774   7.641  70.766  1.00  0.00    -0.138 NA 
HETATM    6  C   UNL     1      -8.738   6.224  70.749  1.00  0.00    -0.136 A  
HETATM    7  N   UNL     1      -8.509   5.783  69.527  1.00  0.00    -0.111 NA 
HETATM    8  N   UNL     1      -8.093   6.837  67.397  1.00  0.00    -0.117 N  
HETATM    9  C   UNL     1      -8.308   6.875  68.761  1.00  0.00    -0.121 A  
HETATM   10  O   UNL     1      -8.213   8.060  65.473  1.00  0.00    -0.123 OA 
HETATM   11  C   UNL     1      -8.400   8.046  69.467  1.00  0.00    -0.127 A  
HETATM   12  C   UNL     1      -8.050   5.571  66.687  1.00  0.00    -0.105 C  
HETATM   13  C   UNL     1      -8.128   9.303  68.818  1.00  0.00    -0.104 C  
HETATM   14  C   UNL     1      -8.033   8.028  66.695  1.00  0.00    -0.102 C  
HETATM   15  O   UNL     1      -8.213  10.378  69.403  1.00  0.00    -0.157 OA 
HETATM   16  N   UNL     1      -7.798   9.190  67.448  1.00  0.00    -0.099 N  
BRANCH   6  17
HETATM   17  N   UNL     1      -9.007   5.380  71.791  1.00  0.00    -0.135 NA 
HETATM   18  N   UNL     1     -12.003   6.246  72.471  1.00  0.00    -0.521 NA 
HETATM   19  C   UNL     1     -10.636   5.201  74.237  1.00  0.00    -0.290 C  
HETATM   20  C   UNL     1     -10.241   4.577  71.811  1.00  0.00    -0.156 C  
HETATM   21  C   UNL     1      -9.481   6.188  74.150  1.00  0.00    -0.173 C  
HETATM   22  C   UNL     1      -8.444   5.743  73.115  1.00  0.00    -0.117 C  
HETATM   23  C   UNL     1     -11.292   5.023  72.867  1.00  0.00    -0.253 C  
HETATM   24  H1  UNL     1     -12.441   6.128  71.557  1.00  0.00     0.000 HD 
HETATM   25  H2  UNL     1     -11.394   7.064  72.495  1.00  0.00     0.000 HD 
ENDBRANCH   6  17
BRANCH  16  26
HETATM   26  C   UNL     1      -7.494  10.399  66.643  1.00  0.00    -0.114 C  
BRANCH  26  27
HETATM   27  C   UNL     1      -8.659  11.378  66.364  1.00  0.00    -0.174 A  
HETATM   28  N   UNL     1      -9.527  11.068  65.367  1.00  0.00    -0.213 NA 
HETATM   29  C   UNL     1     -10.427  11.997  64.975  1.00  0.00    -0.287 A  
HETATM   30  C   UNL     1     -10.486  13.274  65.551  1.00  0.00    -0.295 A  
HETATM   31  C   UNL     1     -11.416  14.234  65.038  1.00  0.00    -0.364 A  
HETATM   32  C   UNL     1      -9.584  13.484  66.603  1.00  0.00    -0.278 A  
HETATM   33  C   UNL     1     -12.284  13.930  63.992  1.00  0.00    -0.413 A  
HETATM   34  C   UNL     1      -9.451  14.810  67.296  1.00  0.00    -0.217 C  
HETATM   35  N   UNL     1      -8.701  12.549  67.024  1.00  0.00    -0.205 NA 
HETATM   36  C   UNL     1     -12.247  12.657  63.447  1.00  0.00    -0.610 A  
HETATM   37  C   UNL     1     -11.328  11.717  63.942  1.00  0.00    -0.494 A  
ENDBRANCH  26  27
ENDBRANCH  16  26
ENDBRANCH   4   5
ENDBRANCH   3   4
TORSDOF 5
ENDMDL
MODEL       62
REMARK 921   NORMALIZED FREE ENERGY PREDICTED BY IDOCK:   -6.53 KCAL/MOL
REMARK 922        TOTAL FREE ENERGY PREDICTED BY IDOCK:   -8.94 KCAL/MOL
REMARK 923 INTER-LIGAND FREE ENERGY PREDICTED BY IDOCK:   -7.52 KCAL/MOL
REMARK 924 INTRA-LIGAND FREE ENERGY PREDICTED BY IDOCK:   -1.42 KCAL/MOL
REMARK 927      BINDING AFFINITY PREDICTED BY RF-SCORE:    0.00 PKD
ROOT
HETATM    1  C   UNL     1      -7.589   4.563  63.607  1.00  0.00    -0.063 C  
HETATM    2  C   UNL     1      -8.600   4.879  64.698  1.00  0.00    -0.149 C  
HETATM    3  C   UNL     1      -9.467   5.150  65.634  1.00  0.00    -0.129 C  
ENDROOT
BRANCH   3   4
HETATM    4  C   UNL     1     -10.476   5.466  66.725  1.00  0.00    -0.289 C  
BRANCH   4   5
HETATM    5  N   UNL     1      -9.687   6.013  67.895  1.00  0.00    -0.116 NA 
HETATM    6  C   UNL     1      -8.891   5.274  68.807  1.00  0.00    -0.096 A  
HETATM    7  N   UNL     1      -8.230   6.088  69.607  1.00  0.00    -0.113 NA 
HETATM    8  N   UNL     1      -8.134   8.483  69.884  1.00  0.00    -0.115 N  
HETATM    9  C   UNL     1      -8.640   7.337  69.301  1.00  0.00    -0.137 A  
HETATM   10  O   UNL     1      -7.867  10.733  69.605  1.00  0.00    -0.099 OA 
HETATM   11  C   UNL     1      -9.573   7.360  68.299  1.00  0.00    -0.150 A  
HETATM   12  C   UNL     1      -7.111   8.405  70.910  1.00  0.00    -0.057 C  
HETATM   13  C   UNL     1     -10.179   8.608  67.907  1.00  0.00    -0.219 C  
HETATM   14  C   UNL     1      -8.534   9.714  69.395  1.00  0.00    -0.156 C  
HETATM   15  O   UNL     1     -11.008   8.683  67.006  1.00  0.00    -0.085 OA 
HETATM   16  N   UNL     1      -9.706   9.733  68.622  1.00  0.00    -0.152 N  
BRANCH   6  17
HETATM   17  N   UNL     1      -8.706   3.920  68.828  1.00  0.00    -0.093 NA 
HETATM   18  N   UNL     1      -7.779   3.515  71.856  1.00  0.00    -0.057 NA 
HETATM   19  C   UNL     1      -7.111   1.842  70.172  1.00  0.00    -0.033 C  
HETATM   20  C   UNL     1      -9.298   3.095  69.895  1.00  0.00    -0.158 C  
HETATM   21  C   UNL     1      -6.449   2.828  69.221  1.00  0.00    -0.029 C  
HETATM   22  C   UNL     1      -7.457   3.400  68.219  1.00  0.00    -0.053 C  
HETATM   23  C   UNL     1      -8.275   2.507  70.908  1.00  0.00    -0.049 C  
HETATM   24  H1  UNL     1      -8.555   3.959  72.347  1.00  0.00     0.000 HD 
HETATM   25  H2  UNL     1      -7.178   4.201  71.399  1.00  0.00     0.000 HD 
ENDBRANCH   6  17
BRANCH  16  26
HETATM   26  C   UNL     1     -10.234  11.089  68.330  1.00  0.00    -0.176 C  
BRANCH  26  27
HETATM   27  C   UNL     1     -11.309  11.654  69.289  1.00  0.00    -0.290 A  
HETATM   28  N   UNL     1     -11.463  13.001  69.350  1.00  0.00    -0.275 NA 
HETATM   29  C   UNL     1     -12.249  13.525  70.317  1.00  0.00    -0.347 A  
HETATM   30  C   UNL     1     -12.898  12.726  71.269  1.00  0.00    -0.355 A  
HETATM   31  C   UNL     1     -13.657  13.349  72.311  1.00  0.00    -0.703 A  
HETATM   32  C   UNL     1     -12.718  11.346  71.096  1.00  0.00    -0.377 A  
HETATM   33  C   UNL     1     -13.787  14.733  72.396  1.00  0.00    -0.578 A  
HETATM   34  C   UNL     1     -13.278  10.335  72.056  1.00  0.00    -0.516 C  
HETATM   35  N   UNL     1     -11.960  10.812  70.110  1.00  0.00    -0.319 NA 
HETATM   36  C   UNL     1     -13.172  15.519  71.436  1.00  0.00    -0.587 A  
HETATM   37  C   UNL     1     -12.419  14.909  70.419  1.00  0.00    -0.403 A  
ENDBRANCH  26  27
ENDBRANCH  16  26
ENDBRANCH   4   5
ENDBRANCH   3   4
TORSDOF 5
ENDMDL
MODEL       63
REMARK 921   NORMALIZED FREE ENERGY PREDICTED BY IDOCK:   -6.53 KCAL/MOL
REMARK 922        TOTAL FREE ENERGY PREDICTED BY IDOCK:   -8.94 KCAL/MOL
REMARK 923 INTER-LIGAND FREE ENERGY PREDICTED BY IDOCK:   -7.49 KCAL/MOL
REMARK 924 INTRA-LIGAND FREE ENERGY PREDICTED BY IDOCK:   -1.45 KCAL/MOL
REMARK 927      BINDING AFFINITY PREDICTED BY RF-SCORE:    0.00 PKD
ROOT
HETATM    1  C   UNL     1     -12.779  14.724  72.136  1.00  0.00    -0.401 C  
HETATM    2  C   UNL     1     -12.691  13.497  71.244  1.00  0.00    -0.432 C  
HETATM    3  C   UNL     1     -12.616  12.443  70.478  1.00  0.00    -0.169 C  
ENDROOT
BRANCH   3   4
HETATM    4  C   UNL     1     -12.528  11.216  69.586  1.00  0.00    -0.128 C  
BRANCH   4   5
HETATM    5  N   UNL     1     -11.162  11.254  68.936  1.00  0.00    -0.229 NA 
HETATM    6  C   UNL     1     -10.769  12.035  67.820  1.00  0.00    -0.210 A  
HETATM    7  N   UNL     1      -9.470  11.931  67.617  1.00  0.00    -0.178 NA 
HETATM    8  N   UNL     1      -7.687  10.691  68.667  1.00  0.00    -0.102 N  
HETATM    9  C   UNL     1      -9.016  11.034  68.517  1.00  0.00    -0.163 A  
HETATM   10  O   UNL     1      -6.157   9.816  70.118  1.00  0.00    -0.045 OA 
HETATM   11  C   UNL     1     -10.009  10.537  69.321  1.00  0.00    -0.213 A  
HETATM   12  C   UNL     1      -6.667  11.282  67.820  1.00  0.00    -0.069 C  
HETATM   13  C   UNL     1      -9.709   9.505  70.282  1.00  0.00    -0.263 C  
HETATM   14  C   UNL     1      -7.324   9.861  69.713  1.00  0.00    -0.129 C  
HETATM   15  O   UNL     1     -10.559   9.039  71.033  1.00  0.00    -0.226 OA 
HETATM   16  N   UNL     1      -8.352   9.111  70.306  1.00  0.00    -0.153 N  
BRANCH   6  17
HETATM   17  N   UNL     1     -11.557  12.882  67.091  1.00  0.00    -0.343 NA 
HETATM   18  N   UNL     1      -9.924  12.963  64.348  1.00  0.00    -0.612 NA 
HETATM   19  C   UNL     1     -11.400  14.856  64.912  1.00  0.00    -0.415 C  
HETATM   20  C   UNL     1     -11.983  12.527  65.726  1.00  0.00    -0.420 C  
HETATM   21  C   UNL     1     -10.772  15.150  66.267  1.00  0.00    -0.320 C  
HETATM   22  C   UNL     1     -11.435  14.332  67.378  1.00  0.00    -0.347 C  
HETATM   23  C   UNL     1     -11.316  13.363  64.597  1.00  0.00    -0.350 C  
HETATM   24  H1  UNL     1      -9.868  11.966  64.138  1.00  0.00     0.000 HD 
HETATM   25  H2  UNL     1      -9.312  13.221  65.122  1.00  0.00     0.000 HD 
ENDBRANCH   6  17
BRANCH  16  26
HETATM   26  C   UNL     1      -7.889   8.058  71.245  1.00  0.00    -0.091 C  
BRANCH  26  27
HETATM   27  C   UNL     1      -7.984   6.589  70.768  1.00  0.00    -0.115 A  
HETATM   28  N   UNL     1      -8.372   6.359  69.488  1.00  0.00    -0.124 NA 
HETATM   29  C   UNL     1      -8.654   5.092  69.111  1.00  0.00    -0.091 A  
HETATM   30  C   UNL     1      -8.572   4.010  69.999  1.00  0.00    -0.102 A  
HETATM   31  C   UNL     1      -8.954   2.703  69.553  1.00  0.00    -0.169 A  
HETATM   32  C   UNL     1      -8.117   4.339  71.283  1.00  0.00    -0.081 A  
HETATM   33  C   UNL     1      -9.387   2.470  68.250  1.00  0.00    -0.262 A  
HETATM   34  C   UNL     1      -8.031   3.327  72.391  1.00  0.00    -0.063 C  
HETATM   35  N   UNL     1      -7.802   5.600  71.660  1.00  0.00    -0.107 NA 
HETATM   36  C   UNL     1      -9.435   3.534  67.365  1.00  0.00    -0.234 A  
HETATM   37  C   UNL     1      -9.070   4.818  67.804  1.00  0.00    -0.130 A  
ENDBRANCH  26  27
ENDBRANCH  16  26
ENDBRANCH   4   5
ENDBRANCH   3   4
TORSDOF 5
ENDMDL
MODEL       64
REMARK 921   NORMALIZED FREE ENERGY PREDICTED BY IDOCK:   -6.51 KCAL/MOL
REMARK 922        TOTAL FREE ENERGY PREDICTED BY IDOCK:   -8.92 KCAL/MOL
REMARK 923 INTER-LIGAND FREE ENERGY PREDICTED BY IDOCK:   -7.53 KCAL/MOL
REMARK 924 INTRA-LIGAND FREE ENERGY PREDICTED BY IDOCK:   -1.39 KCAL/MOL
REMARK 927      BINDING AFFINITY PREDICTED BY RF-SCORE:    0.00 PKD
ROOT
HETATM    1  C   UNL     1     -12.405  15.653  72.885  1.00  0.00    -0.552 C  
HETATM    2  C   UNL     1     -12.399  15.236  71.423  1.00  0.00    -0.424 C  
HETATM    3  C   UNL     1     -12.392  14.878  70.169  1.00  0.00    -0.376 C  
ENDROOT
BRANCH   3   4
HETATM    4  C   UNL     1     -12.386  14.461  68.708  1.00  0.00    -0.045 C  
BRANCH   4   5
HETATM    5  N   UNL     1     -10.933  14.380  68.290  1.00  0.00    -0.241 NA 
HETATM    6  C   UNL     1     -10.126  15.439  67.803  1.00  0.00    -0.227 A  
HETATM    7  N   UNL     1      -8.873  15.046  67.679  1.00  0.00    -0.174 NA 
HETATM    8  N   UNL     1      -7.710  12.963  68.036  1.00  0.00    -0.129 N  
HETATM    9  C   UNL     1      -8.855  13.733  67.990  1.00  0.00    -0.182 A  
HETATM   10  O   UNL     1      -6.797  11.059  68.906  1.00  0.00    -0.066 OA 
HETATM   11  C   UNL     1     -10.093  13.247  68.320  1.00  0.00    -0.250 A  
HETATM   12  C   UNL     1      -6.415  13.539  67.722  1.00  0.00    -0.170 C  
HETATM   13  C   UNL     1     -10.266  11.843  68.596  1.00  0.00    -0.191 C  
HETATM   14  C   UNL     1      -7.797  11.661  68.497  1.00  0.00    -0.140 C  
HETATM   15  O   UNL     1     -11.350  11.363  68.910  1.00  0.00    -0.219 OA 
HETATM   16  N   UNL     1      -9.077  11.084  68.512  1.00  0.00    -0.168 N  
BRANCH   6  17
HETATM   17  N   UNL     1     -10.510  16.733  67.583  1.00  0.00    -0.320 NA 
HETATM   18  N   UNL     1      -7.951  17.834  66.024  1.00  0.00    -0.520 NA 
HETATM   19  C   UNL     1      -9.388  19.432  67.232  1.00  0.00    -0.386 C  
HETATM   20  C   UNL     1     -10.406  17.332  66.241  1.00  0.00    -0.322 C  
HETATM   21  C   UNL     1      -9.307  18.732  68.581  1.00  0.00    -0.392 C  
HETATM   22  C   UNL     1     -10.403  17.672  68.726  1.00  0.00    -0.348 C  
HETATM   23  C   UNL     1      -9.299  18.414  66.095  1.00  0.00    -0.137 C  
HETATM   24  H1  UNL     1      -7.891  17.154  65.265  1.00  0.00     0.000 HD 
HETATM   25  H2  UNL     1      -7.665  17.431  66.916  1.00  0.00     0.000 HD 
ENDBRANCH   6  17
BRANCH  16  26
HETATM   26  C   UNL     1      -9.094   9.623  68.772  1.00  0.00    -0.134 C  
BRANCH  26  27
HETATM   27  C   UNL     1      -9.029   8.682  67.545  1.00  0.00    -0.134 A  
HETATM   28  N   UNL     1      -9.185   7.350  67.755  1.00  0.00    -0.131 NA 
HETATM   29  C   UNL     1      -8.935   6.496  66.737  1.00  0.00    -0.131 A  
HETATM   30  C   UNL     1      -8.507   6.938  65.477  1.00  0.00    -0.122 A  
HETATM   31  C   UNL     1      -8.190   5.976  64.464  1.00  0.00    -0.095 A  
HETATM   32  C   UNL     1      -8.422   8.331  65.342  1.00  0.00    -0.172 A  
HETATM   33  C   UNL     1      -8.315   4.607  64.688  1.00  0.00    -0.125 A  
HETATM   34  C   UNL     1      -7.916   8.989  64.090  1.00  0.00    -0.144 C  
HETATM   35  N   UNL     1      -8.702   9.194  66.346  1.00  0.00    -0.127 NA 
HETATM   36  C   UNL     1      -8.770   4.174  65.923  1.00  0.00    -0.115 A  
HETATM   37  C   UNL     1      -9.072   5.116  66.920  1.00  0.00    -0.116 A  
ENDBRANCH  26  27
ENDBRANCH  16  26
ENDBRANCH   4   5
ENDBRANCH   3   4
TORSDOF 5
ENDMDL
MODEL       65
REMARK 921   NORMALIZED FREE ENERGY PREDICTED BY IDOCK:   -6.44 KCAL/MOL
REMARK 922        TOTAL FREE ENERGY PREDICTED BY IDOCK:   -8.83 KCAL/MOL
REMARK 923 INTER-LIGAND FREE ENERGY PREDICTED BY IDOCK:   -7.97 KCAL/MOL
REMARK 924 INTRA-LIGAND FREE ENERGY PREDICTED BY IDOCK:   -0.86 KCAL/MOL
REMARK 927      BINDING AFFINITY PREDICTED BY RF-SCORE:    0.00 PKD
ROOT
HETATM    1  C   UNL     1     -14.121   9.578  72.408  1.00  0.00    -0.177 C  
HETATM    2  C   UNL     1     -12.962   8.848  71.747  1.00  0.00    -0.418 C  
HETATM    3  C   UNL     1     -11.968   8.223  71.180  1.00  0.00    -0.290 C  
ENDROOT
BRANCH   3   4
HETATM    4  C   UNL     1     -10.809   7.494  70.519  1.00  0.00    -0.240 C  
BRANCH   4   5
HETATM    5  N   UNL     1      -9.601   8.396  70.657  1.00  0.00    -0.167 NA 
HETATM    6  C   UNL     1      -8.567   8.294  71.621  1.00  0.00    -0.155 A  
HETATM    7  N   UNL     1      -7.600   9.151  71.353  1.00  0.00    -0.330 NA 
HETATM    8  N   UNL     1      -7.254  10.840  69.667  1.00  0.00    -0.144 N  
HETATM    9  C   UNL     1      -8.015   9.871  70.291  1.00  0.00    -0.109 A  
HETATM   10  O   UNL     1      -6.970  11.995  67.717  1.00  0.00    -0.086 OA 
HETATM   11  C   UNL     1      -9.257   9.499  69.847  1.00  0.00    -0.220 A  
HETATM   12  C   UNL     1      -5.924  11.165  70.148  1.00  0.00    -0.136 C  
HETATM   13  C   UNL     1      -9.885  10.224  68.771  1.00  0.00    -0.180 C  
HETATM   14  C   UNL     1      -7.731  11.419  68.503  1.00  0.00    -0.133 C  
HETATM   15  O   UNL     1     -10.988   9.920  68.329  1.00  0.00    -0.240 OA 
HETATM   16  N   UNL     1      -9.105  11.282  68.251  1.00  0.00    -0.166 N  
BRANCH   6  17
HETATM   17  N   UNL     1      -8.474   7.382  72.635  1.00  0.00    -0.109 NA 
HETATM   18  N   UNL     1      -9.758   4.822  71.225  1.00  0.00    -0.168 NA 
HETATM   19  C   UNL     1      -9.804   4.974  73.685  1.00  0.00    -0.171 C  
HETATM   20  C   UNL     1      -7.901   6.046  72.398  1.00  0.00    -0.102 C  
HETATM   21  C   UNL     1     -10.496   6.327  73.749  1.00  0.00    -0.304 C  
HETATM   22  C   UNL     1      -9.483   7.475  73.720  1.00  0.00    -0.276 C  
HETATM   23  C   UNL     1      -8.928   4.880  72.436  1.00  0.00    -0.129 C  
HETATM   24  H1  UNL     1      -9.174   4.759  70.391  1.00  0.00     0.000 HD 
HETATM   25  H2  UNL     1     -10.407   5.606  71.173  1.00  0.00     0.000 HD 
ENDBRANCH   6  17
BRANCH  16  26
HETATM   26  C   UNL     1      -9.617  12.119  67.138  1.00  0.00    -0.194 C  
BRANCH  26  27
HETATM   27  C   UNL     1     -10.107  13.545  67.488  1.00  0.00    -0.234 A  
HETATM   28  N   UNL     1     -10.044  14.496  66.522  1.00  0.00    -0.266 NA 
HETATM   29  C   UNL     1     -10.276  15.784  66.860  1.00  0.00    -0.280 A  
HETATM   30  C   UNL     1     -10.566  16.174  68.175  1.00  0.00    -0.290 A  
HETATM   31  C   UNL     1     -10.729  17.564  68.477  1.00  0.00    -0.237 A  
HETATM   32  C   UNL     1     -10.657  15.117  69.092  1.00  0.00    -0.256 A  
HETATM   33  C   UNL     1     -10.630  18.545  67.494  1.00  0.00    -0.461 A  
HETATM   34  C   UNL     1     -10.890  15.343  70.559  1.00  0.00    -0.327 C  
HETATM   35  N   UNL     1     -10.458  13.821  68.757  1.00  0.00    -0.237 NA 
HETATM   36  C   UNL     1     -10.377  18.155  66.189  1.00  0.00    -0.394 A  
HETATM   37  C   UNL     1     -10.206  16.793  65.893  1.00  0.00    -0.345 A  
ENDBRANCH  26  27
ENDBRANCH  16  26
ENDBRANCH   4   5
ENDBRANCH   3   4
TORSDOF 5
ENDMDL
MODEL       66
REMARK 921   NORMALIZED FREE ENERGY PREDICTED BY IDOCK:   -6.43 KCAL/MOL
REMARK 922        TOTAL FREE ENERGY PREDICTED BY IDOCK:   -8.82 KCAL/MOL
REMARK 923 INTER-LIGAND FREE ENERGY PREDICTED BY IDOCK:   -8.33 KCAL/MOL
REMARK 924 INTRA-LIGAND FREE ENERGY PREDICTED BY IDOCK:   -0.49 KCAL/MOL
REMARK 927      BINDING AFFINITY PREDICTED BY RF-SCORE:    0.00 PKD
ROOT
HETATM    1  C   UNL     1     -13.509  14.555  71.185  1.00  0.00    -0.396 C  
HETATM    2  C   UNL     1     -12.195  14.761  70.448  1.00  0.00    -0.395 C  
HETATM    3  C   UNL     1     -11.068  14.937  69.817  1.00  0.00    -0.300 C  
ENDROOT
BRANCH   3   4
HETATM    4  C   UNL     1      -9.755  15.143  69.080  1.00  0.00    -0.234 C  
BRANCH   4   5
HETATM    5  N   UNL     1      -9.975  14.655  67.664  1.00  0.00    -0.226 NA 
HETATM    6  C   UNL     1      -9.944  15.432  66.479  1.00  0.00    -0.268 A  
HETATM    7  N   UNL     1     -10.030  14.657  65.416  1.00  0.00    -0.361 NA 
HETATM    8  N   UNL     1     -10.280  12.283  65.068  1.00  0.00    -0.283 N  
HETATM    9  C   UNL     1     -10.204  13.400  65.876  1.00  0.00    -0.299 A  
HETATM   10  O   UNL     1     -10.026  10.014  65.023  1.00  0.00    -0.326 OA 
HETATM   11  C   UNL     1     -10.236  13.333  67.244  1.00  0.00    -0.240 A  
HETATM   12  C   UNL     1     -10.194  12.403  63.624  1.00  0.00    -0.354 C  
HETATM   13  C   UNL     1     -10.500  12.076  67.898  1.00  0.00    -0.202 C  
HETATM   14  C   UNL     1     -10.325  11.032  65.658  1.00  0.00    -0.251 C  
HETATM   15  O   UNL     1     -10.524  11.963  69.119  1.00  0.00    -0.133 OA 
HETATM   16  N   UNL     1     -10.687  10.990  67.014  1.00  0.00    -0.257 N  
BRANCH   6  17
HETATM   17  N   UNL     1      -9.741  16.781  66.385  1.00  0.00    -0.275 NA 
HETATM   18  N   UNL     1      -7.442  17.170  68.566  1.00  0.00    -0.227 NA 
HETATM   19  C   UNL     1      -8.879  19.091  67.995  1.00  0.00    -0.346 C  
HETATM   20  C   UNL     1      -8.382  17.330  66.239  1.00  0.00    -0.254 C  
HETATM   21  C   UNL     1     -10.200  18.395  68.289  1.00  0.00    -0.412 C  
HETATM   22  C   UNL     1     -10.731  17.661  67.054  1.00  0.00    -0.174 C  
HETATM   23  C   UNL     1      -7.846  18.084  67.489  1.00  0.00    -0.214 C  
HETATM   24  H1  UNL     1      -6.753  16.497  68.229  1.00  0.00     0.000 HD 
HETATM   25  H2  UNL     1      -8.246  16.706  68.990  1.00  0.00     0.000 HD 
ENDBRANCH   6  17
BRANCH  16  26
HETATM   26  C   UNL     1     -10.965   9.630  67.539  1.00  0.00    -0.096 C  
BRANCH  26  27
HETATM   27  C   UNL     1      -9.986   9.060  68.593  1.00  0.00    -0.172 A  
HETATM   28  N   UNL     1     -10.492   8.684  69.795  1.00  0.00    -0.217 NA 
HETATM   29  C   UNL     1      -9.636   8.373  70.794  1.00  0.00    -0.173 A  
HETATM   30  C   UNL     1      -8.244   8.442  70.637  1.00  0.00    -0.117 A  
HETATM   31  C   UNL     1      -7.395   8.170  71.757  1.00  0.00    -0.094 A  
HETATM   32  C   UNL     1      -7.817   8.793  69.349  1.00  0.00    -0.095 A  
HETATM   33  C   UNL     1      -7.913   7.817  73.001  1.00  0.00    -0.167 A  
HETATM   34  C   UNL     1      -6.367   8.985  69.006  1.00  0.00    -0.043 C  
HETATM   35  N   UNL     1      -8.667   9.073  68.333  1.00  0.00    -0.130 NA 
HETATM   36  C   UNL     1      -9.287   7.718  73.146  1.00  0.00    -0.315 A  
HETATM   37  C   UNL     1     -10.121   7.994  72.050  1.00  0.00    -0.280 A  
ENDBRANCH  26  27
ENDBRANCH  16  26
ENDBRANCH   4   5
ENDBRANCH   3   4
TORSDOF 5
ENDMDL
MODEL       67
REMARK 921   NORMALIZED FREE ENERGY PREDICTED BY IDOCK:   -6.43 KCAL/MOL
REMARK 922        TOTAL FREE ENERGY PREDICTED BY IDOCK:   -8.82 KCAL/MOL
REMARK 923 INTER-LIGAND FREE ENERGY PREDICTED BY IDOCK:   -8.63 KCAL/MOL
REMARK 924 INTRA-LIGAND FREE ENERGY PREDICTED BY IDOCK:   -0.18 KCAL/MOL
REMARK 927      BINDING AFFINITY PREDICTED BY RF-SCORE:    0.00 PKD
ROOT
HETATM    1  C   UNL     1     -12.985  15.024  70.501  1.00  0.00    -0.344 C  
HETATM    2  C   UNL     1     -12.273  15.121  69.160  1.00  0.00    -0.185 C  
HETATM    3  C   UNL     1     -11.663  15.204  68.011  1.00  0.00    -0.304 C  
ENDROOT
BRANCH   3   4
HETATM    4  C   UNL     1     -10.952  15.300  66.671  1.00  0.00    -0.297 C  
BRANCH   4   5
HETATM    5  N   UNL     1      -9.514  14.901  66.918  1.00  0.00    -0.227 NA 
HETATM    6  C   UNL     1      -8.390  15.763  66.993  1.00  0.00    -0.226 A  
HETATM    7  N   UNL     1      -7.318  15.092  67.367  1.00  0.00    -0.202 NA 
HETATM    8  N   UNL     1      -6.861  12.779  67.878  1.00  0.00    -0.098 N  
HETATM    9  C   UNL     1      -7.691  13.799  67.455  1.00  0.00    -0.176 A  
HETATM   10  O   UNL     1      -6.821  10.675  68.763  1.00  0.00    -0.056 OA 
HETATM   11  C   UNL     1      -9.010  13.602  67.139  1.00  0.00    -0.231 A  
HETATM   12  C   UNL     1      -5.483  13.049  68.247  1.00  0.00    -0.078 C  
HETATM   13  C   UNL     1      -9.550  12.266  67.100  1.00  0.00    -0.200 C  
HETATM   14  C   UNL     1      -7.391  11.514  68.057  1.00  0.00    -0.091 C  
HETATM   15  O   UNL     1     -10.727  12.040  66.838  1.00  0.00    -0.229 OA 
HETATM   16  N   UNL     1      -8.620  11.254  67.428  1.00  0.00    -0.134 N  
BRANCH   6  17
HETATM   17  N   UNL     1      -8.381  17.119  66.824  1.00  0.00    -0.217 NA 
HETATM   18  N   UNL     1      -6.360  17.972  69.144  1.00  0.00    -0.238 NA 
HETATM   19  C   UNL     1      -8.009  19.618  68.336  1.00  0.00    -0.357 C  
HETATM   20  C   UNL     1      -7.110  17.860  66.746  1.00  0.00    -0.197 C  
HETATM   21  C   UNL     1      -9.234  18.747  68.574  1.00  0.00    -0.386 C  
HETATM   22  C   UNL     1      -9.543  17.874  67.354  1.00  0.00    -0.271 C  
HETATM   23  C   UNL     1      -6.800  18.754  67.979  1.00  0.00    -0.229 C  
HETATM   24  H1  UNL     1      -5.553  17.395  68.907  1.00  0.00     0.000 HD 
HETATM   25  H2  UNL     1      -7.121  17.416  69.535  1.00  0.00     0.000 HD 
ENDBRANCH   6  17
BRANCH  16  26
HETATM   26  C   UNL     1      -9.029   9.827  67.434  1.00  0.00    -0.135 C  
BRANCH  26  27
HETATM   27  C   UNL     1     -10.086   9.394  68.478  1.00  0.00    -0.187 A  
HETATM   28  N   UNL     1     -10.813  10.365  69.087  1.00  0.00    -0.220 NA 
HETATM   29  C   UNL     1     -11.595  10.030  70.138  1.00  0.00    -0.252 A  
HETATM   30  C   UNL     1     -11.670   8.719  70.629  1.00  0.00    -0.194 A  
HETATM   31  C   UNL     1     -12.461   8.447  71.791  1.00  0.00    -0.375 A  
HETATM   32  C   UNL     1     -10.922   7.779  69.906  1.00  0.00    -0.190 A  
HETATM   33  C   UNL     1     -13.181   9.448  72.439  1.00  0.00    -0.483 A  
HETATM   34  C   UNL     1     -10.821   6.339  70.321  1.00  0.00    -0.366 C  
HETATM   35  N   UNL     1     -10.162   8.100  68.833  1.00  0.00    -0.207 NA 
HETATM   36  C   UNL     1     -13.132  10.735  71.933  1.00  0.00    -0.557 A  
HETATM   37  C   UNL     1     -12.348  11.006  70.799  1.00  0.00    -0.496 A  
ENDBRANCH  26  27
ENDBRANCH  16  26
ENDBRANCH   4   5
ENDBRANCH   3   4
TORSDOF 5
ENDMDL
MODEL       68
REMARK 921   NORMALIZED FREE ENERGY PREDICTED BY IDOCK:   -6.41 KCAL/MOL
REMARK 922        TOTAL FREE ENERGY PREDICTED BY IDOCK:   -8.79 KCAL/MOL
REMARK 923 INTER-LIGAND FREE ENERGY PREDICTED BY IDOCK:   -8.10 KCAL/MOL
REMARK 924 INTRA-LIGAND FREE ENERGY PREDICTED BY IDOCK:   -0.69 KCAL/MOL
REMARK 927      BINDING AFFINITY PREDICTED BY RF-SCORE:    0.00 PKD
ROOT
HETATM    1  C   UNL     1     -10.628   5.321  66.481  1.00  0.00    -0.348 C  
HETATM    2  C   UNL     1     -10.870   6.057  67.789  1.00  0.00    -0.380 C  
HETATM    3  C   UNL     1     -11.079   6.688  68.911  1.00  0.00    -0.312 C  
ENDROOT
BRANCH   3   4
HETATM    4  C   UNL     1     -11.322   7.423  70.219  1.00  0.00    -0.221 C  
BRANCH   4   5
HETATM    5  N   UNL     1     -10.075   8.235  70.493  1.00  0.00    -0.194 NA 
HETATM    6  C   UNL     1      -9.163   8.062  71.565  1.00  0.00    -0.147 A  
HETATM    7  N   UNL     1      -8.114   8.847  71.410  1.00  0.00    -0.265 NA 
HETATM    8  N   UNL     1      -7.464  10.503  69.780  1.00  0.00    -0.148 N  
HETATM    9  C   UNL     1      -8.357   9.592  70.312  1.00  0.00    -0.186 A  
HETATM   10  O   UNL     1      -6.885  11.628  67.880  1.00  0.00    -0.068 OA 
HETATM   11  C   UNL     1      -9.565   9.309  69.732  1.00  0.00    -0.190 A  
HETATM   12  C   UNL     1      -6.175  10.732  70.407  1.00  0.00    -0.127 C  
HETATM   13  C   UNL     1     -10.018  10.074  68.597  1.00  0.00    -0.165 C  
HETATM   14  C   UNL     1      -7.767  11.111  68.574  1.00  0.00    -0.129 C  
HETATM   15  O   UNL     1     -11.084   9.849  68.035  1.00  0.00    -0.249 OA 
HETATM   16  N   UNL     1      -9.112  11.072  68.171  1.00  0.00    -0.149 N  
BRANCH   6  17
HETATM   17  N   UNL     1      -9.248   7.149  72.579  1.00  0.00    -0.137 NA 
HETATM   18  N   UNL     1      -9.323   4.434  70.901  1.00  0.00    -0.138 NA 
HETATM   19  C   UNL     1     -10.299   4.462  73.165  1.00  0.00    -0.232 C  
HETATM   20  C   UNL     1      -8.346   5.986  72.623  1.00  0.00    -0.118 C  
HETATM   21  C   UNL     1     -11.249   5.624  72.915  1.00  0.00    -0.338 C  
HETATM   22  C   UNL     1     -10.577   6.968  73.213  1.00  0.00    -0.344 C  
HETATM   23  C   UNL     1      -9.029   4.620  72.329  1.00  0.00    -0.126 C  
HETATM   24  H1  UNL     1      -8.475   4.539  70.342  1.00  0.00     0.000 HD 
HETATM   25  H2  UNL     1     -10.065   5.057  70.583  1.00  0.00     0.000 HD 
ENDBRANCH   6  17
BRANCH  16  26
HETATM   26  C   UNL     1      -9.437  11.941  67.013  1.00  0.00    -0.188 C  
BRANCH  26  27
HETATM   27  C   UNL     1      -9.956  13.366  67.318  1.00  0.00    -0.232 A  
HETATM   28  N   UNL     1      -9.472  14.393  66.574  1.00  0.00    -0.281 NA 
HETATM   29  C   UNL     1      -9.757  15.661  66.950  1.00  0.00    -0.230 A  
HETATM   30  C   UNL     1     -10.522  15.951  68.088  1.00  0.00    -0.270 A  
HETATM   31  C   UNL     1     -10.725  17.316  68.470  1.00  0.00    -0.305 A  
HETATM   32  C   UNL     1     -11.017  14.826  68.763  1.00  0.00    -0.259 A  
HETATM   33  C   UNL     1     -10.199  18.371  67.729  1.00  0.00    -0.407 A  
HETATM   34  C   UNL     1     -11.798  14.935  70.042  1.00  0.00    -0.353 C  
HETATM   35  N   UNL     1     -10.765  13.554  68.376  1.00  0.00    -0.252 NA 
HETATM   36  C   UNL     1      -9.472  18.083  66.586  1.00  0.00    -0.300 A  
HETATM   37  C   UNL     1      -9.263  16.744  66.216  1.00  0.00    -0.313 A  
ENDBRANCH  26  27
ENDBRANCH  16  26
ENDBRANCH   4   5
ENDBRANCH   3   4
TORSDOF 5
ENDMDL
MODEL       69
REMARK 921   NORMALIZED FREE ENERGY PREDICTED BY IDOCK:   -6.41 KCAL/MOL
REMARK 922        TOTAL FREE ENERGY PREDICTED BY IDOCK:   -8.79 KCAL/MOL
REMARK 923 INTER-LIGAND FREE ENERGY PREDICTED BY IDOCK:   -7.76 KCAL/MOL
REMARK 924 INTRA-LIGAND FREE ENERGY PREDICTED BY IDOCK:   -1.03 KCAL/MOL
REMARK 927      BINDING AFFINITY PREDICTED BY RF-SCORE:    0.00 PKD
ROOT
HETATM    1  C   UNL     1      -5.397  10.892  67.946  1.00  0.00    -0.039 C  
HETATM    2  C   UNL     1      -6.882  10.703  67.677  1.00  0.00    -0.074 C  
HETATM    3  C   UNL     1      -8.155  10.542  67.446  1.00  0.00    -0.111 C  
ENDROOT
BRANCH   3   4
HETATM    4  C   UNL     1      -9.639  10.354  67.178  1.00  0.00    -0.164 C  
BRANCH   4   5
HETATM    5  N   UNL     1     -10.371  11.039  68.312  1.00  0.00    -0.171 NA 
HETATM    6  C   UNL     1     -10.596  12.430  68.463  1.00  0.00    -0.231 A  
HETATM    7  N   UNL     1     -11.394  12.660  69.488  1.00  0.00    -0.202 NA 
HETATM    8  N   UNL     1     -12.469  11.270  71.141  1.00  0.00    -0.385 N  
HETATM    9  C   UNL     1     -11.626  11.462  70.064  1.00  0.00    -0.299 A  
HETATM   10  O   UNL     1     -13.729   9.721  72.249  1.00  0.00    -0.393 OA 
HETATM   11  C   UNL     1     -10.985  10.432  69.428  1.00  0.00    -0.251 A  
HETATM   12  C   UNL     1     -13.162  12.390  71.751  1.00  0.00    -0.334 C  
HETATM   13  C   UNL     1     -11.058   9.096  69.964  1.00  0.00    -0.190 C  
HETATM   14  C   UNL     1     -12.733   9.978  71.562  1.00  0.00    -0.429 C  
HETATM   15  O   UNL     1     -10.513   8.139  69.423  1.00  0.00    -0.220 OA 
HETATM   16  N   UNL     1     -11.839   8.983  71.137  1.00  0.00    -0.291 N  
BRANCH   6  17
HETATM   17  N   UNL     1     -10.170  13.429  67.632  1.00  0.00    -0.226 NA 
HETATM   18  N   UNL     1      -8.410  15.152  69.664  1.00  0.00    -0.407 NA 
HETATM   19  C   UNL     1      -9.356  16.258  67.673  1.00  0.00    -0.218 C  
HETATM   20  C   UNL     1      -8.745  13.799  67.570  1.00  0.00    -0.194 C  
HETATM   21  C   UNL     1     -10.801  15.867  67.945  1.00  0.00    -0.327 C  
HETATM   22  C   UNL     1     -11.138  14.509  67.322  1.00  0.00    -0.312 C  
HETATM   23  C   UNL     1      -8.403  15.182  68.194  1.00  0.00    -0.147 C  
HETATM   24  H1  UNL     1      -7.774  14.434  70.012  1.00  0.00     0.000 HD 
HETATM   25  H2  UNL     1      -9.352  15.036  70.036  1.00  0.00     0.000 HD 
ENDBRANCH   6  17
BRANCH  16  26
HETATM   26  C   UNL     1     -12.010   7.669  71.806  1.00  0.00    -0.299 C  
BRANCH  26  27
HETATM   27  C   UNL     1     -10.798   7.107  72.587  1.00  0.00    -0.279 A  
HETATM   28  N   UNL     1      -9.871   7.986  73.044  1.00  0.00    -0.286 NA 
HETATM   29  C   UNL     1      -8.713   7.508  73.551  1.00  0.00    -0.195 A  
HETATM   30  C   UNL     1      -8.430   6.136  73.608  1.00  0.00    -0.121 A  
HETATM   31  C   UNL     1      -7.154   5.699  74.089  1.00  0.00    -0.082 A  
HETATM   32  C   UNL     1      -9.466   5.305  73.158  1.00  0.00    -0.142 A  
HETATM   33  C   UNL     1      -6.187   6.602  74.526  1.00  0.00    -0.073 A  
HETATM   34  C   UNL     1      -9.324   3.812  73.078  1.00  0.00    -0.131 C  
HETATM   35  N   UNL     1     -10.642   5.775  72.680  1.00  0.00    -0.210 NA 
HETATM   36  C   UNL     1      -6.481   7.955  74.500  1.00  0.00    -0.113 A  
HETATM   37  C   UNL     1      -7.728   8.385  74.018  1.00  0.00    -0.213 A  
ENDBRANCH  26  27
ENDBRANCH  16  26
ENDBRANCH   4   5
ENDBRANCH   3   4
TORSDOF 5
ENDMDL
MODEL       70
REMARK 921   NORMALIZED FREE ENERGY PREDICTED BY IDOCK:   -6.41 KCAL/MOL
REMARK 922        TOTAL FREE ENERGY PREDICTED BY IDOCK:   -8.78 KCAL/MOL
REMARK 923 INTER-LIGAND FREE ENERGY PREDICTED BY IDOCK:   -9.43 KCAL/MOL
REMARK 924 INTRA-LIGAND FREE ENERGY PREDICTED BY IDOCK:    0.64 KCAL/MOL
REMARK 927      BINDING AFFINITY PREDICTED BY RF-SCORE:    0.00 PKD
ROOT
HETATM    1  C   UNL     1     -12.621  12.748  63.175  1.00  0.00    -0.080 C  
HETATM    2  C   UNL     1     -12.234  13.738  64.262  1.00  0.00    -0.444 C  
HETATM    3  C   UNL     1     -11.902  14.587  65.194  1.00  0.00    -0.374 C  
ENDROOT
BRANCH   3   4
HETATM    4  C   UNL     1     -11.516  15.578  66.280  1.00  0.00     0.099 C  
BRANCH   4   5
HETATM    5  N   UNL     1     -10.051  15.339  66.578  1.00  0.00    -0.260 NA 
HETATM    6  C   UNL     1      -9.000  16.288  66.500  1.00  0.00    -0.278 A  
HETATM    7  N   UNL     1      -7.880  15.775  66.971  1.00  0.00    -0.217 NA 
HETATM    8  N   UNL     1      -7.243  13.621  67.852  1.00  0.00    -0.130 N  
HETATM    9  C   UNL     1      -8.149  14.488  67.274  1.00  0.00    -0.196 A  
HETATM   10  O   UNL     1      -7.041  11.701  69.071  1.00  0.00    -0.106 OA 
HETATM   11  C   UNL     1      -9.447  14.138  67.006  1.00  0.00    -0.251 A  
HETATM   12  C   UNL     1      -5.892  14.056  68.160  1.00  0.00    -0.125 C  
HETATM   13  C   UNL     1      -9.879  12.776  67.192  1.00  0.00    -0.216 C  
HETATM   14  C   UNL     1      -7.672  12.365  68.240  1.00  0.00    -0.140 C  
HETATM   15  O   UNL     1     -11.033  12.417  66.980  1.00  0.00    -0.242 OA 
HETATM   16  N   UNL     1      -8.873  11.908  67.674  1.00  0.00    -0.162 N  
BRANCH   6  17
HETATM   17  N   UNL     1      -9.098  17.594  66.110  1.00  0.00    -0.496 NA 
HETATM   18  N   UNL     1      -8.268  19.065  68.820  1.00  0.00    -0.354 NA 
HETATM   19  C   UNL     1      -9.665  20.275  67.188  1.00  0.00    -0.592 C  
HETATM   20  C   UNL     1      -8.002  18.543  66.374  1.00  0.00    -0.267 C  
HETATM   21  C   UNL     1     -10.765  19.226  67.110  1.00  0.00    -0.584 C  
HETATM   22  C   UNL     1     -10.460  18.177  66.037  1.00  0.00    -0.335 C  
HETATM   23  C   UNL     1      -8.313  19.614  67.457  1.00  0.00    -0.302 C  
HETATM   24  H1  UNL     1      -7.366  18.624  69.000  1.00  0.00     0.000 HD 
HETATM   25  H2  UNL     1      -9.043  18.427  68.997  1.00  0.00     0.000 HD 
ENDBRANCH   6  17
BRANCH  16  26
HETATM   26  C   UNL     1      -9.167  10.474  67.917  1.00  0.00    -0.140 C  
BRANCH  26  27
HETATM   27  C   UNL     1     -10.109  10.132  69.097  1.00  0.00    -0.213 A  
HETATM   28  N   UNL     1     -10.285   8.824  69.413  1.00  0.00    -0.204 NA 
HETATM   29  C   UNL     1     -11.248   8.492  70.301  1.00  0.00    -0.179 A  
HETATM   30  C   UNL     1     -12.082   9.450  70.895  1.00  0.00    -0.327 A  
HETATM   31  C   UNL     1     -13.131   9.023  71.772  1.00  0.00    -0.437 A  
HETATM   32  C   UNL     1     -11.794  10.776  70.544  1.00  0.00    -0.356 A  
HETATM   33  C   UNL     1     -13.336   7.678  72.071  1.00  0.00    -0.210 A  
HETATM   34  C   UNL     1     -12.622  11.934  71.024  1.00  0.00    -0.381 C  
HETATM   35  N   UNL     1     -10.810  11.120  69.681  1.00  0.00    -0.192 NA 
HETATM   36  C   UNL     1     -12.490   6.737  71.509  1.00  0.00    -0.390 A  
HETATM   37  C   UNL     1     -11.467   7.153  70.641  1.00  0.00    -0.346 A  
ENDBRANCH  26  27
ENDBRANCH  16  26
ENDBRANCH   4   5
ENDBRANCH   3   4
TORSDOF 5
ENDMDL
MODEL       71
REMARK 921   NORMALIZED FREE ENERGY PREDICTED BY IDOCK:   -6.40 KCAL/MOL
REMARK 922        TOTAL FREE ENERGY PREDICTED BY IDOCK:   -8.78 KCAL/MOL
REMARK 923 INTER-LIGAND FREE ENERGY PREDICTED BY IDOCK:   -7.89 KCAL/MOL
REMARK 924 INTRA-LIGAND FREE ENERGY PREDICTED BY IDOCK:   -0.89 KCAL/MOL
REMARK 927      BINDING AFFINITY PREDICTED BY RF-SCORE:    0.00 PKD
ROOT
HETATM    1  C   UNL     1     -12.582  10.636  71.270  1.00  0.00    -0.533 C  
HETATM    2  C   UNL     1     -12.113  10.937  69.856  1.00  0.00    -0.428 C  
HETATM    3  C   UNL     1     -11.710  11.195  68.642  1.00  0.00    -0.389 C  
ENDROOT
BRANCH   3   4
HETATM    4  C   UNL     1     -11.242  11.496  67.228  1.00  0.00    -0.301 C  
BRANCH   4   5
HETATM    5  N   UNL     1      -9.738  11.321  67.227  1.00  0.00    -0.173 NA 
HETATM    6  C   UNL     1      -9.009  10.221  66.709  1.00  0.00    -0.132 A  
HETATM    7  N   UNL     1      -7.714  10.469  66.743  1.00  0.00    -0.113 NA 
HETATM    8  N   UNL     1      -6.362  12.308  67.526  1.00  0.00    -0.123 N  
HETATM    9  C   UNL     1      -7.572  11.666  67.350  1.00  0.00    -0.139 A  
HETATM   10  O   UNL     1      -5.383  14.339  67.882  1.00  0.00    -0.175 OA 
HETATM   11  C   UNL     1      -8.769  12.219  67.723  1.00  0.00    -0.174 A  
HETATM   12  C   UNL     1      -5.125  11.700  67.070  1.00  0.00    -0.103 C  
HETATM   13  C   UNL     1      -8.793  13.457  68.460  1.00  0.00    -0.068 C  
HETATM   14  C   UNL     1      -6.354  13.592  68.042  1.00  0.00    -0.136 C  
HETATM   15  O   UNL     1      -9.839  13.999  68.803  1.00  0.00    -0.213 OA 
HETATM   16  N   UNL     1      -7.515  14.006  68.714  1.00  0.00    -0.127 N  
BRANCH   6  17
HETATM   17  N   UNL     1      -9.521   9.089  66.139  1.00  0.00    -0.233 NA 
HETATM   18  N   UNL     1      -8.742   6.927  68.355  1.00  0.00    -0.125 NA 
HETATM   19  C   UNL     1      -9.094   6.178  66.033  1.00  0.00    -0.136 C  
HETATM   20  C   UNL     1     -10.380   8.177  66.913  1.00  0.00    -0.331 C  
HETATM   21  C   UNL     1      -8.086   7.129  65.403  1.00  0.00    -0.137 C  
HETATM   22  C   UNL     1      -8.733   8.469  65.045  1.00  0.00    -0.088 C  
HETATM   23  C   UNL     1      -9.727   6.812  67.271  1.00  0.00    -0.140 C  
HETATM   24  H1  UNL     1      -9.164   7.351  69.182  1.00  0.00     0.000 HD 
HETATM   25  H2  UNL     1      -7.907   7.432  68.057  1.00  0.00     0.000 HD 
ENDBRANCH   6  17
BRANCH  16  26
HETATM   26  C   UNL     1      -7.377  15.281  69.461  1.00  0.00    -0.210 C  
BRANCH  26  27
HETATM   27  C   UNL     1      -7.697  16.590  68.699  1.00  0.00    -0.216 A  
HETATM   28  N   UNL     1      -8.990  16.999  68.650  1.00  0.00    -0.265 NA 
HETATM   29  C   UNL     1      -9.319  18.022  67.830  1.00  0.00    -0.263 A  
HETATM   30  C   UNL     1      -8.375  18.664  67.016  1.00  0.00    -0.274 A  
HETATM   31  C   UNL     1      -8.805  19.691  66.116  1.00  0.00    -0.367 A  
HETATM   32  C   UNL     1      -7.060  18.204  67.171  1.00  0.00    -0.194 A  
HETATM   33  C   UNL     1     -10.137  20.089  66.039  1.00  0.00    -0.559 A  
HETATM   34  C   UNL     1      -5.923  18.721  66.336  1.00  0.00    -0.185 C  
HETATM   35  N   UNL     1      -6.715  17.203  68.014  1.00  0.00    -0.158 NA 
HETATM   36  C   UNL     1     -11.063  19.477  66.867  1.00  0.00    -0.262 A  
HETATM   37  C   UNL     1     -10.645  18.462  67.744  1.00  0.00    -0.419 A  
ENDBRANCH  26  27
ENDBRANCH  16  26
ENDBRANCH   4   5
ENDBRANCH   3   4
TORSDOF 5
ENDMDL
MODEL       72
REMARK 921   NORMALIZED FREE ENERGY PREDICTED BY IDOCK:   -6.40 KCAL/MOL
REMARK 922        TOTAL FREE ENERGY PREDICTED BY IDOCK:   -8.77 KCAL/MOL
REMARK 923 INTER-LIGAND FREE ENERGY PREDICTED BY IDOCK:   -8.15 KCAL/MOL
REMARK 924 INTRA-LIGAND FREE ENERGY PREDICTED BY IDOCK:   -0.62 KCAL/MOL
REMARK 927      BINDING AFFINITY PREDICTED BY RF-SCORE:    0.00 PKD
ROOT
HETATM    1  C   UNL     1      -5.736  14.676  68.653  1.00  0.00    -0.092 C  
HETATM    2  C   UNL     1      -6.879  13.928  67.984  1.00  0.00    -0.146 C  
HETATM    3  C   UNL     1      -7.858  13.285  67.411  1.00  0.00    -0.159 C  
ENDROOT
BRANCH   3   4
HETATM    4  C   UNL     1      -9.000  12.538  66.743  1.00  0.00    -0.198 C  
BRANCH   4   5
HETATM    5  N   UNL     1     -10.054  12.323  67.808  1.00  0.00    -0.197 NA 
HETATM    6  C   UNL     1     -11.281  13.020  67.946  1.00  0.00    -0.271 A  
HETATM    7  N   UNL     1     -12.019  12.474  68.893  1.00  0.00    -0.281 NA 
HETATM    8  N   UNL     1     -11.712  10.641  70.432  1.00  0.00    -0.327 N  
HETATM    9  C   UNL     1     -11.270  11.493  69.438  1.00  0.00    -0.259 A  
HETATM   10  O   UNL     1     -11.370   8.606  71.409  1.00  0.00    -0.253 OA 
HETATM   11  C   UNL     1     -10.033  11.382  68.859  1.00  0.00    -0.131 A  
HETATM   12  C   UNL     1     -13.050  10.771  70.980  1.00  0.00    -0.248 C  
HETATM   13  C   UNL     1      -9.075  10.439  69.379  1.00  0.00    -0.152 C  
HETATM   14  C   UNL     1     -10.903   9.588  70.819  1.00  0.00    -0.318 C  
HETATM   15  O   UNL     1      -7.962  10.292  68.886  1.00  0.00    -0.097 OA 
HETATM   16  N   UNL     1      -9.546   9.678  70.473  1.00  0.00    -0.247 N  
BRANCH   6  17
HETATM   17  N   UNL     1     -11.739  14.044  67.163  1.00  0.00    -0.371 NA 
HETATM   18  N   UNL     1     -10.613  13.138  64.317  1.00  0.00    -0.421 NA 
HETATM   19  C   UNL     1     -11.078  15.527  64.707  1.00  0.00    -0.421 C  
HETATM   20  C   UNL     1     -12.456  13.769  65.906  1.00  0.00    -0.468 C  
HETATM   21  C   UNL     1     -10.206  15.660  65.947  1.00  0.00    -0.372 C  
HETATM   22  C   UNL     1     -10.989  15.323  67.219  1.00  0.00    -0.327 C  
HETATM   23  C   UNL     1     -11.665  14.119  64.614  1.00  0.00    -0.417 C  
HETATM   24  H1  UNL     1     -11.004  12.197  64.254  1.00  0.00     0.000 HD 
HETATM   25  H2  UNL     1      -9.849  13.186  64.991  1.00  0.00     0.000 HD 
ENDBRANCH   6  17
BRANCH  16  26
HETATM   26  C   UNL     1      -8.674   8.663  71.116  1.00  0.00    -0.197 C  
BRANCH  26  27
HETATM   27  C   UNL     1      -8.720   7.224  70.549  1.00  0.00    -0.148 A  
HETATM   28  N   UNL     1      -8.530   7.058  69.215  1.00  0.00    -0.132 NA 
HETATM   29  C   UNL     1      -8.763   5.844  68.670  1.00  0.00    -0.109 A  
HETATM   30  C   UNL     1      -9.207   4.753  69.431  1.00  0.00    -0.169 A  
HETATM   31  C   UNL     1      -9.505   3.514  68.777  1.00  0.00    -0.208 A  
HETATM   32  C   UNL     1      -9.328   5.008  70.804  1.00  0.00    -0.154 A  
HETATM   33  C   UNL     1      -9.344   3.352  67.403  1.00  0.00    -0.243 A  
HETATM   34  C   UNL     1      -9.857   3.984  71.769  1.00  0.00    -0.249 C  
HETATM   35  N   UNL     1      -9.066   6.212  71.364  1.00  0.00    -0.143 NA 
HETATM   36  C   UNL     1      -8.873   4.420  66.659  1.00  0.00    -0.114 A  
HETATM   37  C   UNL     1      -8.591   5.640  67.297  1.00  0.00    -0.109 A  
ENDBRANCH  26  27
ENDBRANCH  16  26
ENDBRANCH   4   5
ENDBRANCH   3   4
TORSDOF 5
ENDMDL
MODEL       73
REMARK 921   NORMALIZED FREE ENERGY PREDICTED BY IDOCK:   -6.38 KCAL/MOL
REMARK 922        TOTAL FREE ENERGY PREDICTED BY IDOCK:   -8.75 KCAL/MOL
REMARK 923 INTER-LIGAND FREE ENERGY PREDICTED BY IDOCK:   -7.55 KCAL/MOL
REMARK 924 INTRA-LIGAND FREE ENERGY PREDICTED BY IDOCK:   -1.20 KCAL/MOL
REMARK 927      BINDING AFFINITY PREDICTED BY RF-SCORE:    0.00 PKD
ROOT
HETATM    1  C   UNL     1      -9.523   4.756  65.676  1.00  0.00    -0.173 C  
HETATM    2  C   UNL     1      -9.004   5.556  66.860  1.00  0.00    -0.111 C  
HETATM    3  C   UNL     1      -8.559   6.243  67.876  1.00  0.00    -0.115 C  
ENDROOT
BRANCH   3   4
HETATM    4  C   UNL     1      -8.041   7.043  69.059  1.00  0.00    -0.121 C  
BRANCH   4   5
HETATM    5  N   UNL     1      -9.255   7.454  69.865  1.00  0.00    -0.145 NA 
HETATM    6  C   UNL     1      -9.778   6.804  71.011  1.00  0.00    -0.174 A  
HETATM    7  N   UNL     1     -10.751   7.518  71.543  1.00  0.00    -0.218 NA 
HETATM    8  N   UNL     1     -11.837   9.594  70.967  1.00  0.00    -0.322 N  
HETATM    9  C   UNL     1     -10.938   8.574  70.724  1.00  0.00    -0.247 A  
HETATM   10  O   UNL     1     -12.340  11.768  70.484  1.00  0.00    -0.334 OA 
HETATM   11  C   UNL     1     -10.092   8.569  69.646  1.00  0.00    -0.202 A  
HETATM   12  C   UNL     1     -12.678   9.576  72.150  1.00  0.00    -0.362 C  
HETATM   13  C   UNL     1     -10.216   9.581  68.628  1.00  0.00    -0.195 C  
HETATM   14  C   UNL     1     -11.846  10.693  70.126  1.00  0.00    -0.337 C  
HETATM   15  O   UNL     1      -9.474   9.627  67.652  1.00  0.00    -0.133 OA 
HETATM   16  N   UNL     1     -11.234  10.530  68.873  1.00  0.00    -0.258 N  
BRANCH   6  17
HETATM   17  N   UNL     1      -9.308   5.661  71.595  1.00  0.00    -0.146 NA 
HETATM   18  N   UNL     1     -11.795   4.899  73.446  1.00  0.00    -0.387 NA 
HETATM   19  C   UNL     1      -9.554   4.077  74.065  1.00  0.00    -0.127 C  
HETATM   20  C   UNL     1     -10.127   4.437  71.621  1.00  0.00    -0.160 C  
HETATM   21  C   UNL     1      -8.883   5.443  74.088  1.00  0.00    -0.119 C  
HETATM   22  C   UNL     1      -8.339   5.820  72.707  1.00  0.00    -0.119 C  
HETATM   23  C   UNL     1     -10.674   4.048  73.024  1.00  0.00    -0.165 C  
HETATM   24  H1  UNL     1     -12.542   4.881  72.753  1.00  0.00     0.000 HD 
HETATM   25  H2  UNL     1     -11.492   5.852  73.650  1.00  0.00     0.000 HD 
ENDBRANCH   6  17
BRANCH  16  26
HETATM   26  C   UNL     1     -11.481  11.636  67.915  1.00  0.00    -0.311 C  
BRANCH  26  27
HETATM   27  C   UNL     1     -10.646  12.927  68.088  1.00  0.00    -0.237 A  
HETATM   28  N   UNL     1     -11.311  14.098  68.257  1.00  0.00    -0.276 NA 
HETATM   29  C   UNL     1     -10.614  15.256  68.210  1.00  0.00    -0.244 A  
HETATM   30  C   UNL     1      -9.231  15.289  67.979  1.00  0.00    -0.188 A  
HETATM   31  C   UNL     1      -8.567  16.553  67.870  1.00  0.00    -0.183 A  
HETATM   32  C   UNL     1      -8.626  14.030  67.866  1.00  0.00    -0.181 A  
HETATM   33  C   UNL     1      -9.253  17.757  68.007  1.00  0.00    -0.273 A  
HETATM   34  C   UNL     1      -7.167  13.864  67.548  1.00  0.00    -0.178 C  
HETATM   35  N   UNL     1      -9.310  12.865  67.944  1.00  0.00    -0.201 NA 
HETATM   36  C   UNL     1     -10.612  17.721  68.268  1.00  0.00    -0.325 A  
HETATM   37  C   UNL     1     -11.268  16.482  68.366  1.00  0.00    -0.280 A  
ENDBRANCH  26  27
ENDBRANCH  16  26
ENDBRANCH   4   5
ENDBRANCH   3   4
TORSDOF 5
ENDMDL
MODEL       74
REMARK 921   NORMALIZED FREE ENERGY PREDICTED BY IDOCK:   -6.34 KCAL/MOL
REMARK 922        TOTAL FREE ENERGY PREDICTED BY IDOCK:   -8.70 KCAL/MOL
REMARK 923 INTER-LIGAND FREE ENERGY PREDICTED BY IDOCK:   -7.96 KCAL/MOL
REMARK 924 INTRA-LIGAND FREE ENERGY PREDICTED BY IDOCK:   -0.73 KCAL/MOL
REMARK 927      BINDING AFFINITY PREDICTED BY RF-SCORE:    0.00 PKD
ROOT
HETATM    1  C   UNL     1     -14.033   8.541  71.689  1.00  0.00    -0.463 C  
HETATM    2  C   UNL     1     -12.980   7.524  71.278  1.00  0.00    -0.323 C  
HETATM    3  C   UNL     1     -12.076   6.652  70.927  1.00  0.00    -0.379 C  
ENDROOT
BRANCH   3   4
HETATM    4  C   UNL     1     -11.023   5.635  70.517  1.00  0.00    -0.197 C  
BRANCH   4   5
HETATM    5  N   UNL     1      -9.699   6.369  70.504  1.00  0.00    -0.168 NA 
HETATM    6  C   UNL     1      -8.728   6.393  71.536  1.00  0.00    -0.134 A  
HETATM    7  N   UNL     1      -7.635   7.008  71.128  1.00  0.00    -0.085 NA 
HETATM    8  N   UNL     1      -6.978   8.115  69.088  1.00  0.00    -0.059 N  
HETATM    9  C   UNL     1      -7.898   7.463  69.885  1.00  0.00    -0.115 A  
HETATM   10  O   UNL     1      -6.453   8.651  66.931  1.00  0.00    -0.059 OA 
HETATM   11  C   UNL     1      -9.164   7.155  69.462  1.00  0.00    -0.149 A  
HETATM   12  C   UNL     1      -5.633   8.376  69.566  1.00  0.00    -0.030 C  
HETATM   13  C   UNL     1      -9.637   7.640  68.190  1.00  0.00    -0.149 C  
HETATM   14  C   UNL     1      -7.320   8.417  67.781  1.00  0.00    -0.093 C  
HETATM   15  O   UNL     1     -10.757   7.380  67.761  1.00  0.00    -0.223 OA 
HETATM   16  N   UNL     1      -8.689   8.403  67.471  1.00  0.00    -0.135 N  
BRANCH   6  17
HETATM   17  N   UNL     1      -8.810   5.786  72.759  1.00  0.00    -0.122 NA 
HETATM   18  N   UNL     1      -9.947   2.927  71.904  1.00  0.00    -0.167 NA 
HETATM   19  C   UNL     1     -10.347   3.729  74.201  1.00  0.00    -0.249 C  
HETATM   20  C   UNL     1      -8.247   4.442  72.972  1.00  0.00    -0.095 C  
HETATM   21  C   UNL     1     -11.002   5.042  73.800  1.00  0.00    -0.336 C  
HETATM   22  C   UNL     1      -9.963   6.152  73.618  1.00  0.00    -0.203 C  
HETATM   23  C   UNL     1      -9.301   3.315  73.165  1.00  0.00    -0.093 C  
HETATM   24  H1  UNL     1      -9.250   2.651  71.212  1.00  0.00     0.000 HD 
HETATM   25  H2  UNL     1     -10.560   3.662  71.550  1.00  0.00     0.000 HD 
ENDBRANCH   6  17
BRANCH  16  26
HETATM   26  C   UNL     1      -9.029   8.970  66.142  1.00  0.00    -0.177 C  
BRANCH  26  27
HETATM   27  C   UNL     1      -9.971  10.197  66.112  1.00  0.00    -0.246 A  
HETATM   28  N   UNL     1     -10.424  10.624  64.906  1.00  0.00    -0.280 NA 
HETATM   29  C   UNL     1     -11.081  11.803  64.837  1.00  0.00    -0.285 A  
HETATM   30  C   UNL     1     -11.298  12.607  65.965  1.00  0.00    -0.369 A  
HETATM   31  C   UNL     1     -11.937  13.879  65.809  1.00  0.00    -0.419 A  
HETATM   32  C   UNL     1     -10.838  12.061  67.171  1.00  0.00    -0.253 A  
HETATM   33  C   UNL     1     -12.371  14.335  64.567  1.00  0.00    -0.432 A  
HETATM   34  C   UNL     1     -10.918  12.805  68.474  1.00  0.00    -0.288 C  
HETATM   35  N   UNL     1     -10.208  10.866  67.254  1.00  0.00    -0.197 NA 
HETATM   36  C   UNL     1     -12.186  13.525  63.459  1.00  0.00    -0.410 A  
HETATM   37  C   UNL     1     -11.550  12.281  63.609  1.00  0.00    -0.581 A  
ENDBRANCH  26  27
ENDBRANCH  16  26
ENDBRANCH   4   5
ENDBRANCH   3   4
TORSDOF 5
ENDMDL
MODEL       75
REMARK 921   NORMALIZED FREE ENERGY PREDICTED BY IDOCK:   -6.34 KCAL/MOL
REMARK 922        TOTAL FREE ENERGY PREDICTED BY IDOCK:   -8.69 KCAL/MOL
REMARK 923 INTER-LIGAND FREE ENERGY PREDICTED BY IDOCK:   -8.71 KCAL/MOL
REMARK 924 INTRA-LIGAND FREE ENERGY PREDICTED BY IDOCK:    0.02 KCAL/MOL
REMARK 927      BINDING AFFINITY PREDICTED BY RF-SCORE:    0.00 PKD
ROOT
HETATM    1  C   UNL     1     -12.646  12.611  64.908  1.00  0.00    -0.525 C  
HETATM    2  C   UNL     1     -11.857  12.593  66.208  1.00  0.00    -0.471 C  
HETATM    3  C   UNL     1     -11.180  12.578  67.322  1.00  0.00    -0.347 C  
ENDROOT
BRANCH   3   4
HETATM    4  C   UNL     1     -10.392  12.560  68.622  1.00  0.00    -0.177 C  
BRANCH   4   5
HETATM    5  N   UNL     1     -11.246  11.824  69.632  1.00  0.00    -0.200 NA 
HETATM    6  C   UNL     1     -12.252  12.377  70.463  1.00  0.00    -0.295 A  
HETATM    7  N   UNL     1     -12.893  11.423  71.110  1.00  0.00    -0.371 NA 
HETATM    8  N   UNL     1     -12.689   9.022  71.224  1.00  0.00    -0.297 N  
HETATM    9  C   UNL     1     -12.276  10.267  70.790  1.00  0.00    -0.350 A  
HETATM   10  O   UNL     1     -12.599   6.786  70.773  1.00  0.00    -0.311 OA 
HETATM   11  C   UNL     1     -11.223  10.445  69.932  1.00  0.00    -0.306 A  
HETATM   12  C   UNL     1     -13.841   8.884  72.096  1.00  0.00    -0.473 C  
HETATM   13  C   UNL     1     -10.401   9.322  69.556  1.00  0.00    -0.216 C  
HETATM   14  C   UNL     1     -12.059   7.897  70.723  1.00  0.00    -0.084 C  
HETATM   15  O   UNL     1      -9.458   9.428  68.780  1.00  0.00    -0.147 OA 
HETATM   16  N   UNL     1     -10.803   8.092  70.126  1.00  0.00    -0.245 N  
BRANCH   6  17
HETATM   17  N   UNL     1     -12.626  13.690  70.540  1.00  0.00    -0.299 NA 
HETATM   18  N   UNL     1      -9.782  15.114  70.258  1.00  0.00    -0.398 NA 
HETATM   19  C   UNL     1     -11.610  16.320  71.390  1.00  0.00    -0.424 C  
HETATM   20  C   UNL     1     -12.152  14.668  69.545  1.00  0.00    -0.295 C  
HETATM   21  C   UNL     1     -11.904  15.237  72.418  1.00  0.00    -0.532 C  
HETATM   22  C   UNL     1     -12.928  14.228  71.889  1.00  0.00    -0.350 C  
HETATM   23  C   UNL     1     -11.119  15.698  70.083  1.00  0.00    -0.336 C  
HETATM   24  H1  UNL     1      -9.453  14.698  69.386  1.00  0.00     0.000 HD 
HETATM   25  H2  UNL     1      -9.758  14.445  71.028  1.00  0.00     0.000 HD 
ENDBRANCH   6  17
BRANCH  16  26
HETATM   26  C   UNL     1     -10.056   6.844  69.830  1.00  0.00    -0.188 C  
BRANCH  26  27
HETATM   27  C   UNL     1      -9.078   6.328  70.913  1.00  0.00    -0.151 A  
HETATM   28  N   UNL     1      -8.823   4.996  70.958  1.00  0.00    -0.129 NA 
HETATM   29  C   UNL     1      -8.135   4.499  72.010  1.00  0.00    -0.100 A  
HETATM   30  C   UNL     1      -7.689   5.310  73.064  1.00  0.00    -0.098 A  
HETATM   31  C   UNL     1      -7.029   4.709  74.184  1.00  0.00    -0.071 A  
HETATM   32  C   UNL     1      -7.957   6.677  72.905  1.00  0.00    -0.103 A  
HETATM   33  C   UNL     1      -6.798   3.337  74.249  1.00  0.00    -0.044 A  
HETATM   34  C   UNL     1      -7.618   7.692  73.960  1.00  0.00    -0.166 C  
HETATM   35  N   UNL     1      -8.616   7.187  71.839  1.00  0.00    -0.116 NA 
HETATM   36  C   UNL     1      -7.210   2.543  73.192  1.00  0.00    -0.040 A  
HETATM   37  C   UNL     1      -7.866   3.130  72.098  1.00  0.00    -0.058 A  
ENDBRANCH  26  27
ENDBRANCH  16  26
ENDBRANCH   4   5
ENDBRANCH   3   4
TORSDOF 5
ENDMDL
MODEL       76
REMARK 921   NORMALIZED FREE ENERGY PREDICTED BY IDOCK:   -6.32 KCAL/MOL
REMARK 922        TOTAL FREE ENERGY PREDICTED BY IDOCK:   -8.67 KCAL/MOL
REMARK 923 INTER-LIGAND FREE ENERGY PREDICTED BY IDOCK:   -8.42 KCAL/MOL
REMARK 924 INTRA-LIGAND FREE ENERGY PREDICTED BY IDOCK:   -0.25 KCAL/MOL
REMARK 927      BINDING AFFINITY PREDICTED BY RF-SCORE:    0.00 PKD
ROOT
HETATM    1  C   UNL     1      -5.502  12.864  67.801  1.00  0.00    -0.123 C  
HETATM    2  C   UNL     1      -6.837  12.252  67.410  1.00  0.00    -0.145 C  
HETATM    3  C   UNL     1      -7.983  11.727  67.074  1.00  0.00    -0.164 C  
ENDROOT
BRANCH   3   4
HETATM    4  C   UNL     1      -9.318  11.116  66.682  1.00  0.00    -0.177 C  
BRANCH   4   5
HETATM    5  N   UNL     1     -10.252  11.336  67.853  1.00  0.00    -0.177 NA 
HETATM    6  C   UNL     1     -11.313  12.272  67.933  1.00  0.00    -0.298 A  
HETATM    7  N   UNL     1     -12.009  12.088  69.038  1.00  0.00    -0.295 NA 
HETATM    8  N   UNL     1     -11.834  10.587  70.918  1.00  0.00    -0.351 N  
HETATM    9  C   UNL     1     -11.379  11.113  69.725  1.00  0.00    -0.278 A  
HETATM   10  O   UNL     1     -11.729   8.770  72.296  1.00  0.00    -0.363 OA 
HETATM   11  C   UNL     1     -10.263  10.645  69.083  1.00  0.00    -0.220 A  
HETATM   12  C   UNL     1     -13.050  11.087  71.534  1.00  0.00    -0.396 C  
HETATM   13  C   UNL     1      -9.425   9.660  69.720  1.00  0.00    -0.220 C  
HETATM   14  C   UNL     1     -11.178   9.498  71.464  1.00  0.00    -0.367 C  
HETATM   15  O   UNL     1      -8.424   9.200  69.180  1.00  0.00    -0.126 OA 
HETATM   16  N   UNL     1      -9.879   9.247  70.993  1.00  0.00    -0.290 N  
BRANCH   6  17
HETATM   17  N   UNL     1     -11.680  13.183  66.981  1.00  0.00    -0.358 NA 
HETATM   18  N   UNL     1     -10.411  11.837  64.379  1.00  0.00    -0.287 NA 
HETATM   19  C   UNL     1     -10.809  14.270  64.387  1.00  0.00    -0.168 C  
HETATM   20  C   UNL     1     -12.327  12.747  65.731  1.00  0.00    -0.323 C  
HETATM   21  C   UNL     1     -10.013  14.559  65.652  1.00  0.00    -0.376 C  
HETATM   22  C   UNL     1     -10.887  14.434  66.902  1.00  0.00    -0.301 C  
HETATM   23  C   UNL     1     -11.443  12.881  64.459  1.00  0.00    -0.344 C  
HETATM   24  H1  UNL     1     -10.833  10.909  64.427  1.00  0.00     0.000 HD 
HETATM   25  H2  UNL     1      -9.690  11.962  65.090  1.00  0.00     0.000 HD 
ENDBRANCH   6  17
BRANCH  16  26
HETATM   26  C   UNL     1      -9.122   8.236  71.772  1.00  0.00    -0.193 C  
BRANCH  26  27
HETATM   27  C   UNL     1      -9.545   6.755  71.615  1.00  0.00    -0.162 A  
HETATM   28  N   UNL     1      -9.850   6.058  72.739  1.00  0.00    -0.163 NA 
HETATM   29  C   UNL     1     -10.027   4.721  72.648  1.00  0.00    -0.164 A  
HETATM   30  C   UNL     1      -9.893   4.028  71.436  1.00  0.00    -0.249 A  
HETATM   31  C   UNL     1     -10.022   2.602  71.423  1.00  0.00    -0.064 A  
HETATM   32  C   UNL     1      -9.625   4.839  70.324  1.00  0.00    -0.199 A  
HETATM   33  C   UNL     1     -10.300   1.880  72.581  1.00  0.00    -0.226 A  
HETATM   34  C   UNL     1      -9.379   4.272  68.955  1.00  0.00    -0.222 C  
HETATM   35  N   UNL     1      -9.478   6.182  70.401  1.00  0.00    -0.160 NA 
HETATM   36  C   UNL     1     -10.465   2.569  73.770  1.00  0.00    -0.228 A  
HETATM   37  C   UNL     1     -10.329   3.967  73.787  1.00  0.00    -0.242 A  
ENDBRANCH  26  27
ENDBRANCH  16  26
ENDBRANCH   4   5
ENDBRANCH   3   4
TORSDOF 5
ENDMDL
MODEL       77
REMARK 921   NORMALIZED FREE ENERGY PREDICTED BY IDOCK:   -6.32 KCAL/MOL
REMARK 922        TOTAL FREE ENERGY PREDICTED BY IDOCK:   -8.67 KCAL/MOL
REMARK 923 INTER-LIGAND FREE ENERGY PREDICTED BY IDOCK:   -7.45 KCAL/MOL
REMARK 924 INTRA-LIGAND FREE ENERGY PREDICTED BY IDOCK:   -1.21 KCAL/MOL
REMARK 927      BINDING AFFINITY PREDICTED BY RF-SCORE:    0.00 PKD
ROOT
HETATM    1  C   UNL     1     -13.161  10.566  71.915  1.00  0.00    -0.567 C  
HETATM    2  C   UNL     1     -12.589  10.804  70.526  1.00  0.00    -0.421 C  
HETATM    3  C   UNL     1     -12.099  11.008  69.335  1.00  0.00    -0.389 C  
ENDROOT
BRANCH   3   4
HETATM    4  C   UNL     1     -11.527  11.245  67.947  1.00  0.00    -0.288 C  
BRANCH   4   5
HETATM    5  N   UNL     1     -10.032  11.402  68.120  1.00  0.00    -0.182 NA 
HETATM    6  C   UNL     1      -9.277  12.592  67.971  1.00  0.00    -0.208 A  
HETATM    7  N   UNL     1      -8.026  12.395  68.340  1.00  0.00    -0.156 NA 
HETATM    8  N   UNL     1      -6.775  10.490  69.131  1.00  0.00    -0.062 N  
HETATM    9  C   UNL     1      -7.922  11.084  68.644  1.00  0.00    -0.143 A  
HETATM   10  O   UNL     1      -5.975   8.698  70.299  1.00  0.00    -0.030 OA 
HETATM   11  C   UNL     1      -9.100  10.404  68.477  1.00  0.00    -0.145 A  
HETATM   12  C   UNL     1      -5.565  11.266  69.334  1.00  0.00    -0.046 C  
HETATM   13  C   UNL     1      -9.142   8.977  68.676  1.00  0.00    -0.137 C  
HETATM   14  C   UNL     1      -6.825   9.167  69.533  1.00  0.00    -0.048 C  
HETATM   15  O   UNL     1     -10.175   8.327  68.554  1.00  0.00    -0.200 OA 
HETATM   16  N   UNL     1      -7.907   8.407  69.060  1.00  0.00    -0.100 N  
BRANCH   6  17
HETATM   17  N   UNL     1      -9.746  13.825  67.611  1.00  0.00    -0.221 NA 
HETATM   18  N   UNL     1      -6.993  15.397  67.231  1.00  0.00    -0.216 NA 
HETATM   19  C   UNL     1      -9.036  16.679  67.744  1.00  0.00    -0.212 C  
HETATM   20  C   UNL     1      -9.210  14.519  66.428  1.00  0.00    -0.234 C  
HETATM   21  C   UNL     1      -9.392  15.913  69.010  1.00  0.00    -0.243 C  
HETATM   22  C   UNL     1     -10.264  14.693  68.697  1.00  0.00    -0.244 C  
HETATM   23  C   UNL     1      -8.331  15.763  66.744  1.00  0.00    -0.274 C  
HETATM   24  H1  UNL     1      -6.523  14.786  66.564  1.00  0.00     0.000 HD 
HETATM   25  H2  UNL     1      -7.029  14.984  68.163  1.00  0.00     0.000 HD 
ENDBRANCH   6  17
BRANCH  16  26
HETATM   26  C   UNL     1      -7.793   6.948  69.304  1.00  0.00    -0.114 C  
BRANCH  26  27
HETATM   27  C   UNL     1      -8.543   6.371  70.529  1.00  0.00    -0.143 A  
HETATM   28  N   UNL     1      -8.607   5.022  70.660  1.00  0.00    -0.112 NA 
HETATM   29  C   UNL     1      -9.419   4.496  71.604  1.00  0.00    -0.151 A  
HETATM   30  C   UNL     1     -10.209   5.296  72.443  1.00  0.00    -0.243 A  
HETATM   31  C   UNL     1     -11.102   4.672  73.372  1.00  0.00    -0.418 A  
HETATM   32  C   UNL     1     -10.039   6.676  72.266  1.00  0.00    -0.174 A  
HETATM   33  C   UNL     1     -11.195   3.287  73.484  1.00  0.00    -0.280 A  
HETATM   34  C   UNL     1     -10.849   7.690  73.023  1.00  0.00    -0.457 C  
HETATM   35  N   UNL     1      -9.204   7.211  71.345  1.00  0.00    -0.150 NA 
HETATM   36  C   UNL     1     -10.390   2.500  72.678  1.00  0.00    -0.228 A  
HETATM   37  C   UNL     1      -9.521   3.110  71.758  1.00  0.00    -0.216 A  
ENDBRANCH  26  27
ENDBRANCH  16  26
ENDBRANCH   4   5
ENDBRANCH   3   4
TORSDOF 5
ENDMDL
MODEL       78
REMARK 921   NORMALIZED FREE ENERGY PREDICTED BY IDOCK:   -6.31 KCAL/MOL
REMARK 922        TOTAL FREE ENERGY PREDICTED BY IDOCK:   -8.66 KCAL/MOL
REMARK 923 INTER-LIGAND FREE ENERGY PREDICTED BY IDOCK:   -7.98 KCAL/MOL
REMARK 924 INTRA-LIGAND FREE ENERGY PREDICTED BY IDOCK:   -0.68 KCAL/MOL
REMARK 927      BINDING AFFINITY PREDICTED BY RF-SCORE:    0.00 PKD
ROOT
HETATM    1  C   UNL     1     -13.029  11.456  71.262  1.00  0.00    -0.415 C  
HETATM    2  C   UNL     1     -12.030  11.804  70.170  1.00  0.00    -0.421 C  
HETATM    3  C   UNL     1     -11.173  12.102  69.233  1.00  0.00    -0.288 C  
ENDROOT
BRANCH   3   4
HETATM    4  C   UNL     1     -10.175  12.451  68.141  1.00  0.00    -0.225 C  
BRANCH   4   5
HETATM    5  N   UNL     1      -9.956  11.186  67.339  1.00  0.00    -0.177 NA 
HETATM    6  C   UNL     1     -10.356  10.946  66.001  1.00  0.00    -0.245 A  
HETATM    7  N   UNL     1      -9.872   9.795  65.574  1.00  0.00    -0.310 NA 
HETATM    8  N   UNL     1      -8.546   8.043  66.569  1.00  0.00    -0.134 N  
HETATM    9  C   UNL     1      -9.239   9.236  66.626  1.00  0.00    -0.148 A  
HETATM   10  O   UNL     1      -6.914   6.804  67.577  1.00  0.00    -0.076 OA 
HETATM   11  C   UNL     1      -9.299  10.009  67.756  1.00  0.00    -0.140 A  
HETATM   12  C   UNL     1      -8.473   7.285  65.334  1.00  0.00    -0.087 C  
HETATM   13  C   UNL     1      -8.747   9.520  68.994  1.00  0.00    -0.142 C  
HETATM   14  C   UNL     1      -7.824   7.635  67.677  1.00  0.00    -0.123 C  
HETATM   15  O   UNL     1      -8.763  10.180  70.028  1.00  0.00    -0.148 OA 
HETATM   16  N   UNL     1      -8.155   8.240  68.900  1.00  0.00    -0.113 N  
BRANCH   6  17
HETATM   17  N   UNL     1     -11.046  11.796  65.182  1.00  0.00    -0.303 NA 
HETATM   18  N   UNL     1      -9.547  14.544  65.816  1.00  0.00    -0.505 NA 
HETATM   19  C   UNL     1     -11.861  14.617  64.967  1.00  0.00    -0.377 C  
HETATM   20  C   UNL     1     -10.333  12.715  64.278  1.00  0.00    -0.374 C  
HETATM   21  C   UNL     1     -12.456  13.722  66.045  1.00  0.00    -0.491 C  
HETATM   22  C   UNL     1     -12.381  12.245  65.647  1.00  0.00     0.048 C  
HETATM   23  C   UNL     1     -10.415  14.216  64.676  1.00  0.00    -0.339 C  
HETATM   24  H1  UNL     1      -8.582  14.276  65.622  1.00  0.00     0.000 HD 
HETATM   25  H2  UNL     1      -9.888  14.128  66.683  1.00  0.00     0.000 HD 
ENDBRANCH   6  17
BRANCH  16  26
HETATM   26  C   UNL     1      -7.541   7.604  70.092  1.00  0.00    -0.086 C  
BRANCH  26  27
HETATM   27  C   UNL     1      -8.490   6.892  71.086  1.00  0.00    -0.123 A  
HETATM   28  N   UNL     1      -8.330   5.558  71.275  1.00  0.00    -0.124 NA 
HETATM   29  C   UNL     1      -9.266   4.882  71.979  1.00  0.00    -0.136 A  
HETATM   30  C   UNL     1     -10.403   5.509  72.508  1.00  0.00    -0.246 A  
HETATM   31  C   UNL     1     -11.392   4.722  73.181  1.00  0.00    -0.380 A  
HETATM   32  C   UNL     1     -10.456   6.895  72.303  1.00  0.00    -0.207 A  
HETATM   33  C   UNL     1     -11.247   3.346  73.345  1.00  0.00    -0.255 A  
HETATM   34  C   UNL     1     -11.630   7.728  72.735  1.00  0.00    -0.368 C  
HETATM   35  N   UNL     1      -9.507   7.585  71.628  1.00  0.00    -0.149 NA 
HETATM   36  C   UNL     1     -10.107   2.734  72.851  1.00  0.00    -0.218 A  
HETATM   37  C   UNL     1      -9.141   3.504  72.182  1.00  0.00    -0.152 A  
ENDBRANCH  26  27
ENDBRANCH  16  26
ENDBRANCH   4   5
ENDBRANCH   3   4
TORSDOF 5
ENDMDL
MODEL       79
REMARK 921   NORMALIZED FREE ENERGY PREDICTED BY IDOCK:   -6.28 KCAL/MOL
REMARK 922        TOTAL FREE ENERGY PREDICTED BY IDOCK:   -8.62 KCAL/MOL
REMARK 923 INTER-LIGAND FREE ENERGY PREDICTED BY IDOCK:   -7.88 KCAL/MOL
REMARK 924 INTRA-LIGAND FREE ENERGY PREDICTED BY IDOCK:   -0.74 KCAL/MOL
REMARK 927      BINDING AFFINITY PREDICTED BY RF-SCORE:    0.00 PKD
ROOT
HETATM    1  C   UNL     1      -7.411  13.943  68.502  1.00  0.00    -0.122 C  
HETATM    2  C   UNL     1      -8.884  13.571  68.430  1.00  0.00    -0.146 C  
HETATM    3  C   UNL     1     -10.146  13.252  68.367  1.00  0.00    -0.237 C  
ENDROOT
BRANCH   3   4
HETATM    4  C   UNL     1     -11.618  12.880  68.295  1.00  0.00    -0.335 C  
BRANCH   4   5
HETATM    5  N   UNL     1     -11.902  12.013  69.503  1.00  0.00    -0.323 NA 
HETATM    6  C   UNL     1     -12.607  12.387  70.675  1.00  0.00    -0.153 A  
HETATM    7  N   UNL     1     -12.794  11.341  71.455  1.00  0.00    -0.425 NA 
HETATM    8  N   UNL     1     -12.163   9.015  71.348  1.00  0.00    -0.310 N  
HETATM    9  C   UNL     1     -12.155  10.309  70.866  1.00  0.00    -0.368 A  
HETATM   10  O   UNL     1     -11.874   6.825  70.768  1.00  0.00    -0.361 OA 
HETATM   11  C   UNL     1     -11.539  10.663  69.694  1.00  0.00    -0.296 A  
HETATM   12  C   UNL     1     -12.871   8.682  72.571  1.00  0.00    -0.292 C  
HETATM   13  C   UNL     1     -10.739   9.700  68.980  1.00  0.00    -0.211 C  
HETATM   14  C   UNL     1     -11.584   8.014  70.588  1.00  0.00    -0.196 C  
HETATM   15  O   UNL     1     -10.181   9.964  67.921  1.00  0.00    -0.171 OA 
HETATM   16  N   UNL     1     -10.690   8.423  69.586  1.00  0.00    -0.225 N  
BRANCH   6  17
HETATM   17  N   UNL     1     -13.140  13.614  70.958  1.00  0.00    -0.231 NA 
HETATM   18  N   UNL     1     -10.472  15.301  71.440  1.00  0.00    -0.141 NA 
HETATM   19  C   UNL     1     -12.571  16.067  72.484  1.00  0.00    -0.535 C  
HETATM   20  C   UNL     1     -12.650  14.824  70.276  1.00  0.00    -0.315 C  
HETATM   21  C   UNL     1     -12.876  14.763  73.206  1.00  0.00    -0.621 C  
HETATM   22  C   UNL     1     -13.690  13.813  72.321  1.00  0.00    -0.575 C  
HETATM   23  C   UNL     1     -11.831  15.793  71.174  1.00  0.00    -0.425 C  
HETATM   24  H1  UNL     1      -9.978  15.118  70.567  1.00  0.00     0.000 HD 
HETATM   25  H2  UNL     1     -10.479  14.483  72.050  1.00  0.00     0.000 HD 
ENDBRANCH   6  17
BRANCH  16  26
HETATM   26  C   UNL     1      -9.907   7.325  68.967  1.00  0.00    -0.165 C  
BRANCH  26  27
HETATM   27  C   UNL     1      -8.616   6.876  69.692  1.00  0.00    -0.134 A  
HETATM   28  N   UNL     1      -8.635   5.691  70.352  1.00  0.00    -0.130 NA 
HETATM   29  C   UNL     1      -7.593   5.374  71.153  1.00  0.00    -0.097 A  
HETATM   30  C   UNL     1      -6.500   6.233  71.336  1.00  0.00    -0.050 A  
HETATM   31  C   UNL     1      -5.464   5.869  72.255  1.00  0.00    -0.022 A  
HETATM   32  C   UNL     1      -6.547   7.411  70.576  1.00  0.00    -0.043 A  
HETATM   33  C   UNL     1      -5.499   4.668  72.960  1.00  0.00    -0.008 A  
HETATM   34  C   UNL     1      -5.503   8.485  70.690  1.00  0.00    -0.028 C  
HETATM   35  N   UNL     1      -7.571   7.721  69.747  1.00  0.00    -0.089 NA 
HETATM   36  C   UNL     1      -6.562   3.806  72.753  1.00  0.00    -0.033 A  
HETATM   37  C   UNL     1      -7.584   4.167  71.860  1.00  0.00    -0.070 A  
ENDBRANCH  26  27
ENDBRANCH  16  26
ENDBRANCH   4   5
ENDBRANCH   3   4
TORSDOF 5
ENDMDL
MODEL       80
REMARK 921   NORMALIZED FREE ENERGY PREDICTED BY IDOCK:   -6.25 KCAL/MOL
REMARK 922        TOTAL FREE ENERGY PREDICTED BY IDOCK:   -8.58 KCAL/MOL
REMARK 923 INTER-LIGAND FREE ENERGY PREDICTED BY IDOCK:   -8.07 KCAL/MOL
REMARK 924 INTRA-LIGAND FREE ENERGY PREDICTED BY IDOCK:   -0.51 KCAL/MOL
REMARK 927      BINDING AFFINITY PREDICTED BY RF-SCORE:    0.00 PKD
ROOT
HETATM    1  C   UNL     1     -14.410  14.825  71.845  1.00  0.00    -0.657 C  
HETATM    2  C   UNL     1     -12.982  15.094  71.397  1.00  0.00    -0.476 C  
HETATM    3  C   UNL     1     -11.757  15.325  71.013  1.00  0.00    -0.394 C  
ENDROOT
BRANCH   3   4
HETATM    4  C   UNL     1     -10.330  15.593  70.565  1.00  0.00     0.020 C  
BRANCH   4   5
HETATM    5  N   UNL     1     -10.307  15.398  69.064  1.00  0.00    -0.231 NA 
HETATM    6  C   UNL     1      -9.935  16.354  68.086  1.00  0.00    -0.242 A  
HETATM    7  N   UNL     1      -9.890  15.797  66.891  1.00  0.00    -0.231 NA 
HETATM    8  N   UNL     1     -10.346  13.590  66.032  1.00  0.00    -0.296 N  
HETATM    9  C   UNL     1     -10.306  14.524  67.049  1.00  0.00    -0.263 A  
HETATM   10  O   UNL     1     -10.364  11.352  65.580  1.00  0.00    -0.247 OA 
HETATM   11  C   UNL     1     -10.632  14.227  68.346  1.00  0.00    -0.253 A  
HETATM   12  C   UNL     1      -9.946  13.943  64.682  1.00  0.00     0.061 C  
HETATM   13  C   UNL     1     -11.176  12.934  68.675  1.00  0.00    -0.281 C  
HETATM   14  C   UNL     1     -10.664  12.279  66.341  1.00  0.00    -0.251 C  
HETATM   15  O   UNL     1     -11.469  12.616  69.823  1.00  0.00    -0.226 OA 
HETATM   16  N   UNL     1     -11.304  12.060  67.571  1.00  0.00    -0.296 N  
BRANCH   6  17
HETATM   17  N   UNL     1      -9.556  17.649  68.303  1.00  0.00    -0.293 NA 
HETATM   18  N   UNL     1     -10.805  19.052  65.721  1.00  0.00    -0.320 NA 
HETATM   19  C   UNL     1      -8.889  20.120  66.847  1.00  0.00    -0.426 C  
HETATM   20  C   UNL     1     -10.534  18.747  68.203  1.00  0.00    -0.315 C  
HETATM   21  C   UNL     1      -7.968  18.911  66.777  1.00  0.00    -0.269 C  
HETATM   22  C   UNL     1      -8.148  18.001  67.996  1.00  0.00    -0.257 C  
HETATM   23  C   UNL     1     -10.347  19.676  66.971  1.00  0.00    -0.460 C  
HETATM   24  H1  UNL     1     -11.778  18.756  65.803  1.00  0.00     0.000 HD 
HETATM   25  H2  UNL     1     -10.198  18.284  65.437  1.00  0.00     0.000 HD 
ENDBRANCH   6  17
BRANCH  16  26
HETATM   26  C   UNL     1     -11.848  10.691  67.752  1.00  0.00     0.506 C  
BRANCH  26  27
HETATM   27  C   UNL     1     -10.871   9.598  68.247  1.00  0.00    -0.182 A  
HETATM   28  N   UNL     1     -10.764   8.460  67.515  1.00  0.00    -0.205 NA 
HETATM   29  C   UNL     1     -10.074   7.417  68.028  1.00  0.00    -0.179 A  
HETATM   30  C   UNL     1      -9.477   7.465  69.296  1.00  0.00    -0.154 A  
HETATM   31  C   UNL     1      -8.823   6.299  69.810  1.00  0.00    -0.140 A  
HETATM   32  C   UNL     1      -9.600   8.696  69.955  1.00  0.00    -0.170 A  
HETATM   33  C   UNL     1      -8.743   5.119  69.075  1.00  0.00    -0.101 A  
HETATM   34  C   UNL     1      -9.087   8.917  71.350  1.00  0.00    -0.318 C  
HETATM   35  N   UNL     1     -10.261   9.756  69.435  1.00  0.00    -0.196 NA 
HETATM   36  C   UNL     1      -9.304   5.084  67.810  1.00  0.00    -0.146 A  
HETATM   37  C   UNL     1      -9.955   6.224  67.308  1.00  0.00    -0.180 A  
ENDBRANCH  26  27
ENDBRANCH  16  26
ENDBRANCH   4   5
ENDBRANCH   3   4
TORSDOF 5
ENDMDL
MODEL       81
REMARK 921   NORMALIZED FREE ENERGY PREDICTED BY IDOCK:   -6.22 KCAL/MOL
REMARK 922        TOTAL FREE ENERGY PREDICTED BY IDOCK:   -8.55 KCAL/MOL
REMARK 923 INTER-LIGAND FREE ENERGY PREDICTED BY IDOCK:   -8.29 KCAL/MOL
REMARK 924 INTRA-LIGAND FREE ENERGY PREDICTED BY IDOCK:   -0.26 KCAL/MOL
REMARK 927      BINDING AFFINITY PREDICTED BY RF-SCORE:    0.00 PKD
ROOT
HETATM    1  C   UNL     1      -8.506   6.399  68.768  1.00  0.00    -0.121 C  
HETATM    2  C   UNL     1      -7.822   7.270  67.726  1.00  0.00    -0.114 C  
HETATM    3  C   UNL     1      -7.236   8.016  66.831  1.00  0.00    -0.082 C  
ENDROOT
BRANCH   3   4
HETATM    4  C   UNL     1      -6.553   8.886  65.789  1.00  0.00    -0.064 C  
BRANCH   4   5
HETATM    5  N   UNL     1      -7.656   9.569  65.009  1.00  0.00    -0.109 NA 
HETATM    6  C   UNL     1      -8.105   9.244  63.705  1.00  0.00    -0.155 A  
HETATM    7  N   UNL     1      -9.178   9.946  63.397  1.00  0.00    -0.265 NA 
HETATM    8  N   UNL     1     -10.463  11.653  64.518  1.00  0.00    -0.287 N  
HETATM    9  C   UNL     1      -9.391  10.785  64.432  1.00  0.00    -0.242 A  
HETATM   10  O   UNL     1     -11.752  12.859  65.967  1.00  0.00    -0.360 OA 
HETATM   11  C   UNL     1      -8.463  10.647  65.430  1.00  0.00    -0.160 A  
HETATM   12  C   UNL     1     -11.445  11.728  63.453  1.00  0.00    -0.327 C  
HETATM   13  C   UNL     1      -8.495  11.527  66.571  1.00  0.00    -0.160 C  
HETATM   14  C   UNL     1     -10.651  12.369  65.687  1.00  0.00    -0.265 C  
HETATM   15  O   UNL     1      -7.696  11.433  67.497  1.00  0.00    -0.114 OA 
HETATM   16  N   UNL     1      -9.546  12.473  66.546  1.00  0.00    -0.238 N  
BRANCH   6  17
HETATM   17  N   UNL     1      -7.608   8.271  62.882  1.00  0.00    -0.115 NA 
HETATM   18  N   UNL     1      -8.591   5.656  64.428  1.00  0.00    -0.318 NA 
HETATM   19  C   UNL     1      -6.631   5.494  62.941  1.00  0.00    -0.025 C  
HETATM   20  C   UNL     1      -8.465   7.165  62.420  1.00  0.00     0.075 C  
HETATM   21  C   UNL     1      -5.834   6.607  63.605  1.00  0.00    -0.031 C  
HETATM   22  C   UNL     1      -6.160   7.971  62.990  1.00  0.00    -0.076 C  
HETATM   23  C   UNL     1      -8.130   5.778  63.038  1.00  0.00    -0.107 C  
HETATM   24  H1  UNL     1      -9.591   5.846  64.494  1.00  0.00     0.000 HD 
HETATM   25  H2  UNL     1      -8.052   6.248  65.060  1.00  0.00     0.000 HD 
ENDBRANCH   6  17
BRANCH  16  26
HETATM   26  C   UNL     1      -9.710  13.447  67.654  1.00  0.00    -0.222 C  
BRANCH  26  27
HETATM   27  C   UNL     1     -10.827  13.165  68.688  1.00  0.00    -0.259 A  
HETATM   28  N   UNL     1     -11.487  14.226  69.217  1.00  0.00    -0.272 NA 
HETATM   29  C   UNL     1     -12.322  14.019  70.260  1.00  0.00    -0.358 A  
HETATM   30  C   UNL     1     -12.517  12.750  70.824  1.00  0.00    -0.357 A  
HETATM   31  C   UNL     1     -13.359  12.613  71.974  1.00  0.00    -0.555 A  
HETATM   32  C   UNL     1     -11.831  11.711  70.180  1.00  0.00    -0.344 A  
HETATM   33  C   UNL     1     -14.011  13.706  72.541  1.00  0.00    -0.572 A  
HETATM   34  C   UNL     1     -11.861  10.295  70.680  1.00  0.00    -0.439 C  
HETATM   35  N   UNL     1     -11.019  11.904  69.114  1.00  0.00    -0.224 NA 
HETATM   36  C   UNL     1     -13.842  14.953  71.963  1.00  0.00    -0.563 A  
HETATM   37  C   UNL     1     -13.009  15.091  70.840  1.00  0.00    -0.463 A  
ENDBRANCH  26  27
ENDBRANCH  16  26
ENDBRANCH   4   5
ENDBRANCH   3   4
TORSDOF 5
ENDMDL
MODEL       82
REMARK 921   NORMALIZED FREE ENERGY PREDICTED BY IDOCK:   -6.21 KCAL/MOL
REMARK 922        TOTAL FREE ENERGY PREDICTED BY IDOCK:   -8.53 KCAL/MOL
REMARK 923 INTER-LIGAND FREE ENERGY PREDICTED BY IDOCK:   -7.39 KCAL/MOL
REMARK 924 INTRA-LIGAND FREE ENERGY PREDICTED BY IDOCK:   -1.14 KCAL/MOL
REMARK 927      BINDING AFFINITY PREDICTED BY RF-SCORE:    0.00 PKD
ROOT
HETATM    1  C   UNL     1     -12.834  14.504  72.617  1.00  0.00    -0.498 C  
HETATM    2  C   UNL     1     -12.608  14.176  71.150  1.00  0.00    -0.439 C  
HETATM    3  C   UNL     1     -12.414  13.895  69.892  1.00  0.00    -0.285 C  
ENDROOT
BRANCH   3   4
HETATM    4  C   UNL     1     -12.188  13.566  68.425  1.00  0.00    -0.115 C  
BRANCH   4   5
HETATM    5  N   UNL     1     -10.703  13.712  68.176  1.00  0.00    -0.242 NA 
HETATM    6  C   UNL     1      -9.978  14.921  68.028  1.00  0.00    -0.220 A  
HETATM    7  N   UNL     1      -8.683  14.679  67.972  1.00  0.00    -0.161 NA 
HETATM    8  N   UNL     1      -7.330  12.682  68.005  1.00  0.00    -0.101 N  
HETATM    9  C   UNL     1      -8.546  13.337  67.991  1.00  0.00    -0.178 A  
HETATM   10  O   UNL     1      -6.296  10.719  68.544  1.00  0.00    -0.049 OA 
HETATM   11  C   UNL     1      -9.747  12.681  68.058  1.00  0.00    -0.215 A  
HETATM   12  C   UNL     1      -6.085  13.426  67.979  1.00  0.00    -0.129 C  
HETATM   13  C   UNL     1      -9.785  11.241  68.002  1.00  0.00    -0.179 C  
HETATM   14  C   UNL     1      -7.313  11.307  68.160  1.00  0.00    -0.088 C  
HETATM   15  O   UNL     1     -10.833  10.607  68.073  1.00  0.00    -0.219 OA 
HETATM   16  N   UNL     1      -8.515  10.630  67.897  1.00  0.00    -0.119 N  
BRANCH   6  17
HETATM   17  N   UNL     1     -10.483  16.191  68.050  1.00  0.00    -0.271 NA 
HETATM   18  N   UNL     1      -8.707  17.553  65.773  1.00  0.00    -0.455 NA 
HETATM   19  C   UNL     1      -9.704  18.981  67.519  1.00  0.00    -0.371 C  
HETATM   20  C   UNL     1     -10.894  16.860  66.803  1.00  0.00     0.001 C  
HETATM   21  C   UNL     1      -9.112  18.226  68.700  1.00  0.00    -0.301 C  
HETATM   22  C   UNL     1     -10.027  17.081  69.146  1.00  0.00    -0.229 C  
HETATM   23  C   UNL     1      -9.970  18.027  66.354  1.00  0.00    -0.362 C  
HETATM   24  H1  UNL     1      -8.884  16.917  64.996  1.00  0.00     0.000 HD 
HETATM   25  H2  UNL     1      -8.101  17.131  66.477  1.00  0.00     0.000 HD 
ENDBRANCH   6  17
BRANCH  16  26
HETATM   26  C   UNL     1      -8.392   9.152  67.830  1.00  0.00    -0.117 C  
BRANCH  26  27
HETATM   27  C   UNL     1      -8.660   8.357  69.131  1.00  0.00    -0.134 A  
HETATM   28  N   UNL     1      -9.852   7.720  69.254  1.00  0.00    -0.170 NA 
HETATM   29  C   UNL     1     -10.188   7.190  70.451  1.00  0.00    -0.193 A  
HETATM   30  C   UNL     1      -9.354   7.289  71.574  1.00  0.00    -0.155 A  
HETATM   31  C   UNL     1      -9.802   6.769  72.831  1.00  0.00    -0.184 A  
HETATM   32  C   UNL     1      -8.126   7.922  71.338  1.00  0.00    -0.102 A  
HETATM   33  C   UNL     1     -11.040   6.146  72.968  1.00  0.00    -0.250 A  
HETATM   34  C   UNL     1      -7.131   8.183  72.433  1.00  0.00    -0.106 C  
HETATM   35  N   UNL     1      -7.768   8.426  70.134  1.00  0.00    -0.080 NA 
HETATM   36  C   UNL     1     -11.848   6.019  71.850  1.00  0.00    -0.242 A  
HETATM   37  C   UNL     1     -11.414   6.538  70.618  1.00  0.00    -0.433 A  
ENDBRANCH  26  27
ENDBRANCH  16  26
ENDBRANCH   4   5
ENDBRANCH   3   4
TORSDOF 5
ENDMDL
MODEL       83
REMARK 921   NORMALIZED FREE ENERGY PREDICTED BY IDOCK:   -6.21 KCAL/MOL
REMARK 922        TOTAL FREE ENERGY PREDICTED BY IDOCK:   -8.53 KCAL/MOL
REMARK 923 INTER-LIGAND FREE ENERGY PREDICTED BY IDOCK:   -8.61 KCAL/MOL
REMARK 924 INTRA-LIGAND FREE ENERGY PREDICTED BY IDOCK:    0.08 KCAL/MOL
REMARK 927      BINDING AFFINITY PREDICTED BY RF-SCORE:    0.00 PKD
ROOT
HETATM    1  C   UNL     1     -11.845  12.320  63.831  1.00  0.00    -0.553 C  
HETATM    2  C   UNL     1     -11.789  12.272  65.350  1.00  0.00    -0.418 C  
HETATM    3  C   UNL     1     -11.741  12.229  66.652  1.00  0.00    -0.417 C  
ENDROOT
BRANCH   3   4
HETATM    4  C   UNL     1     -11.686  12.181  68.170  1.00  0.00    -0.341 C  
BRANCH   4   5
HETATM    5  N   UNL     1     -10.294  11.710  68.534  1.00  0.00    -0.207 NA 
HETATM    6  C   UNL     1      -9.948  10.508  69.201  1.00  0.00    -0.220 A  
HETATM    7  N   UNL     1      -8.638  10.351  69.220  1.00  0.00    -0.161 NA 
HETATM    8  N   UNL     1      -6.765  11.657  68.442  1.00  0.00    -0.061 N  
HETATM    9  C   UNL     1      -8.115  11.461  68.660  1.00  0.00    -0.141 A  
HETATM   10  O   UNL     1      -5.244  12.822  67.200  1.00  0.00    -0.326 OA 
HETATM   11  C   UNL     1      -9.071  12.361  68.268  1.00  0.00    -0.183 A  
HETATM   12  C   UNL     1      -5.796  10.650  68.835  1.00  0.00    -0.040 C  
HETATM   13  C   UNL     1      -8.679  13.639  67.727  1.00  0.00    -0.184 C  
HETATM   14  C   UNL     1      -6.356  12.776  67.738  1.00  0.00    -0.137 C  
HETATM   15  O   UNL     1      -9.497  14.471  67.348  1.00  0.00    -0.195 OA 
HETATM   16  N   UNL     1      -7.281  13.828  67.638  1.00  0.00    -0.163 N  
BRANCH   6  17
HETATM   17  N   UNL     1     -10.805   9.555  69.676  1.00  0.00    -0.236 NA 
HETATM   18  N   UNL     1      -9.245   8.642  72.309  1.00  0.00    -0.332 NA 
HETATM   19  C   UNL     1     -10.825   7.070  71.256  1.00  0.00    -0.260 C  
HETATM   20  C   UNL     1     -11.238   9.565  71.084  1.00  0.00    -0.376 C  
HETATM   21  C   UNL     1     -10.186   7.101  69.875  1.00  0.00    -0.215 C  
HETATM   22  C   UNL     1     -10.770   8.226  69.016  1.00  0.00    -0.079 C  
HETATM   23  C   UNL     1     -10.653   8.418  71.956  1.00  0.00    -0.317 C  
HETATM   24  H1  UNL     1      -9.129   9.542  72.775  1.00  0.00     0.000 HD 
HETATM   25  H2  UNL     1      -8.633   8.556  71.497  1.00  0.00     0.000 HD 
ENDBRANCH   6  17
BRANCH  16  26
HETATM   26  C   UNL     1      -6.724  15.094  67.099  1.00  0.00     0.183 C  
BRANCH  26  27
HETATM   27  C   UNL     1      -7.433  16.409  67.501  1.00  0.00    -0.141 A  
HETATM   28  N   UNL     1      -8.508  16.802  66.772  1.00  0.00    -0.212 NA 
HETATM   29  C   UNL     1      -9.018  18.037  66.975  1.00  0.00    -0.258 A  
HETATM   30  C   UNL     1      -8.466  18.932  67.902  1.00  0.00    -0.318 A  
HETATM   31  C   UNL     1      -9.009  20.252  68.016  1.00  0.00    -0.202 A  
HETATM   32  C   UNL     1      -7.390  18.421  68.641  1.00  0.00    -0.295 A  
HETATM   33  C   UNL     1     -10.091  20.669  67.244  1.00  0.00    -0.350 A  
HETATM   34  C   UNL     1      -6.624  19.253  69.630  1.00  0.00    -0.282 C  
HETATM   35  N   UNL     1      -6.893  17.173  68.467  1.00  0.00    -0.181 NA 
HETATM   36  C   UNL     1     -10.656  19.773  66.352  1.00  0.00    -0.575 A  
HETATM   37  C   UNL     1     -10.117  18.481  66.232  1.00  0.00    -0.422 A  
ENDBRANCH  26  27
ENDBRANCH  16  26
ENDBRANCH   4   5
ENDBRANCH   3   4
TORSDOF 5
ENDMDL
MODEL       84
REMARK 921   NORMALIZED FREE ENERGY PREDICTED BY IDOCK:   -6.20 KCAL/MOL
REMARK 922        TOTAL FREE ENERGY PREDICTED BY IDOCK:   -8.52 KCAL/MOL
REMARK 923 INTER-LIGAND FREE ENERGY PREDICTED BY IDOCK:   -7.43 KCAL/MOL
REMARK 924 INTRA-LIGAND FREE ENERGY PREDICTED BY IDOCK:   -1.09 KCAL/MOL
REMARK 927      BINDING AFFINITY PREDICTED BY RF-SCORE:    0.00 PKD
ROOT
HETATM    1  C   UNL     1     -13.545   9.620  71.518  1.00  0.00    -0.376 C  
HETATM    2  C   UNL     1     -12.070   9.301  71.708  1.00  0.00    -0.457 C  
HETATM    3  C   UNL     1     -10.806   9.028  71.871  1.00  0.00    -0.413 C  
ENDROOT
BRANCH   3   4
HETATM    4  C   UNL     1      -9.332   8.709  72.061  1.00  0.00    -0.292 C  
BRANCH   4   5
HETATM    5  N   UNL     1      -9.012   7.575  71.110  1.00  0.00    -0.142 NA 
HETATM    6  C   UNL     1      -9.178   6.188  71.350  1.00  0.00    -0.143 A  
HETATM    7  N   UNL     1      -8.940   5.498  70.251  1.00  0.00    -0.135 NA 
HETATM    8  N   UNL     1      -8.246   6.066  68.012  1.00  0.00    -0.112 N  
HETATM    9  C   UNL     1      -8.537   6.390  69.323  1.00  0.00    -0.125 A  
HETATM   10  O   UNL     1      -8.072   6.907  65.896  1.00  0.00    -0.106 OA 
HETATM   11  C   UNL     1      -8.505   7.675  69.797  1.00  0.00    -0.134 A  
HETATM   12  C   UNL     1      -8.342   4.694  67.547  1.00  0.00    -0.104 C  
HETATM   13  C   UNL     1      -8.016   8.741  68.958  1.00  0.00    -0.111 C  
HETATM   14  C   UNL     1      -7.973   7.084  67.116  1.00  0.00    -0.113 C  
HETATM   15  O   UNL     1      -7.982   9.908  69.332  1.00  0.00    -0.108 OA 
HETATM   16  N   UNL     1      -7.622   8.328  67.665  1.00  0.00    -0.097 N  
BRANCH   6  17
HETATM   17  N   UNL     1      -9.629   5.600  72.499  1.00  0.00    -0.151 NA 
HETATM   18  N   UNL     1      -7.330   3.436  72.974  1.00  0.00    -0.049 NA 
HETATM   19  C   UNL     1      -9.562   3.034  73.942  1.00  0.00    -0.120 C  
HETATM   20  C   UNL     1      -8.730   5.412  73.651  1.00  0.00    -0.116 C  
HETATM   21  C   UNL     1     -10.329   3.164  72.635  1.00  0.00    -0.212 C  
HETATM   22  C   UNL     1     -10.732   4.617  72.366  1.00  0.00    -0.116 C  
HETATM   23  C   UNL     1      -8.327   3.936  73.930  1.00  0.00    -0.091 C  
HETATM   24  H1  UNL     1      -6.506   4.037  72.965  1.00  0.00     0.000 HD 
HETATM   25  H2  UNL     1      -7.724   3.321  72.040  1.00  0.00     0.000 HD 
ENDBRANCH   6  17
BRANCH  16  26
HETATM   26  C   UNL     1      -7.098   9.312  66.686  1.00  0.00    -0.082 C  
BRANCH  26  27
HETATM   27  C   UNL     1      -8.134  10.106  65.853  1.00  0.00    -0.136 A  
HETATM   28  N   UNL     1      -9.041  10.863  66.520  1.00  0.00    -0.165 NA 
HETATM   29  C   UNL     1     -10.072  11.402  65.831  1.00  0.00    -0.243 A  
HETATM   30  C   UNL     1     -10.244  11.194  64.455  1.00  0.00    -0.390 A  
HETATM   31  C   UNL     1     -11.397  11.733  63.800  1.00  0.00    -0.524 A  
HETATM   32  C   UNL     1      -9.231  10.440  63.846  1.00  0.00    -0.266 A  
HETATM   33  C   UNL     1     -12.349  12.481  64.489  1.00  0.00    -0.545 A  
HETATM   34  C   UNL     1      -9.277  10.053  62.394  1.00  0.00    -0.319 C  
HETATM   35  N   UNL     1      -8.178   9.924  64.522  1.00  0.00    -0.152 NA 
HETATM   36  C   UNL     1     -12.160  12.714  65.841  1.00  0.00    -0.459 A  
HETATM   37  C   UNL     1     -11.034  12.177  66.487  1.00  0.00    -0.325 A  
ENDBRANCH  26  27
ENDBRANCH  16  26
ENDBRANCH   4   5
ENDBRANCH   3   4
TORSDOF 5
ENDMDL
MODEL       85
REMARK 921   NORMALIZED FREE ENERGY PREDICTED BY IDOCK:   -6.19 KCAL/MOL
REMARK 922        TOTAL FREE ENERGY PREDICTED BY IDOCK:   -8.50 KCAL/MOL
REMARK 923 INTER-LIGAND FREE ENERGY PREDICTED BY IDOCK:   -7.09 KCAL/MOL
REMARK 924 INTRA-LIGAND FREE ENERGY PREDICTED BY IDOCK:   -1.41 KCAL/MOL
REMARK 927      BINDING AFFINITY PREDICTED BY RF-SCORE:    0.00 PKD
ROOT
HETATM    1  C   UNL     1      -9.940   4.631  65.446  1.00  0.00    -0.167 C  
HETATM    2  C   UNL     1     -10.170   5.059  66.887  1.00  0.00    -0.270 C  
HETATM    3  C   UNL     1     -10.367   5.428  68.122  1.00  0.00    -0.210 C  
ENDROOT
BRANCH   3   4
HETATM    4  C   UNL     1     -10.598   5.856  69.562  1.00  0.00    -0.308 C  
BRANCH   4   5
HETATM    5  N   UNL     1      -9.479   6.814  69.909  1.00  0.00    -0.156 NA 
HETATM    6  C   UNL     1      -8.316   6.528  70.668  1.00  0.00    -0.133 A  
HETATM    7  N   UNL     1      -7.487   7.554  70.647  1.00  0.00    -0.076 NA 
HETATM    8  N   UNL     1      -7.550   9.762  69.677  1.00  0.00    -0.103 N  
HETATM    9  C   UNL     1      -8.116   8.536  69.968  1.00  0.00    -0.111 A  
HETATM   10  O   UNL     1      -7.657  11.560  68.273  1.00  0.00    -0.100 OA 
HETATM   11  C   UNL     1      -9.363   8.170  69.535  1.00  0.00    -0.155 A  
HETATM   12  C   UNL     1      -6.206  10.083  70.120  1.00  0.00    -0.077 C  
HETATM   13  C   UNL     1     -10.204   9.130  68.866  1.00  0.00    -0.207 C  
HETATM   14  C   UNL     1      -8.239  10.640  68.859  1.00  0.00    -0.145 C  
HETATM   15  O   UNL     1     -11.322   8.846  68.447  1.00  0.00     0.319 OA 
HETATM   16  N   UNL     1      -9.615  10.404  68.702  1.00  0.00    -0.158 N  
BRANCH   6  17
HETATM   17  N   UNL     1      -7.993   5.340  71.262  1.00  0.00    -0.107 NA 
HETATM   18  N   UNL     1      -6.284   6.388  73.747  1.00  0.00    -0.064 NA 
HETATM   19  C   UNL     1      -5.900   4.098  72.920  1.00  0.00    -0.011 C  
HETATM   20  C   UNL     1      -8.202   5.138  72.706  1.00  0.00    -0.109 C  
HETATM   21  C   UNL     1      -5.610   4.494  71.480  1.00  0.00    -0.011 C  
HETATM   22  C   UNL     1      -6.894   4.555  70.648  1.00  0.00    -0.037 C  
HETATM   23  C   UNL     1      -6.899   5.068  73.551  1.00  0.00    -0.075 C  
HETATM   24  H1  UNL     1      -6.950   7.036  74.168  1.00  0.00     0.000 HD 
HETATM   25  H2  UNL     1      -5.895   6.757  72.880  1.00  0.00     0.000 HD 
ENDBRANCH   6  17
BRANCH  16  26
HETATM   26  C   UNL     1     -10.358  11.498  68.029  1.00  0.00    -0.190 C  
BRANCH  26  27
HETATM   27  C   UNL     1     -10.916  12.632  68.921  1.00  0.00    -0.229 A  
HETATM   28  N   UNL     1     -11.702  12.287  69.973  1.00  0.00    -0.285 NA 
HETATM   29  C   UNL     1     -12.359  13.260  70.643  1.00  0.00    -0.339 A  
HETATM   30  C   UNL     1     -12.269  14.611  70.280  1.00  0.00    -0.389 A  
HETATM   31  C   UNL     1     -13.048  15.583  70.986  1.00  0.00    -0.551 A  
HETATM   32  C   UNL     1     -11.397  14.875  69.214  1.00  0.00    -0.296 A  
HETATM   33  C   UNL     1     -13.882  15.227  72.043  1.00  0.00    -0.626 A  
HETATM   34  C   UNL     1     -11.222  16.252  68.638  1.00  0.00    -0.354 C  
HETATM   35  N   UNL     1     -10.710  13.910  68.559  1.00  0.00    -0.251 NA 
HETATM   36  C   UNL     1     -13.944  13.896  72.421  1.00  0.00    -0.633 A  
HETATM   37  C   UNL     1     -13.188  12.940  71.723  1.00  0.00    -0.479 A  
ENDBRANCH  26  27
ENDBRANCH  16  26
ENDBRANCH   4   5
ENDBRANCH   3   4
TORSDOF 5
ENDMDL
MODEL       86
REMARK 921   NORMALIZED FREE ENERGY PREDICTED BY IDOCK:   -6.16 KCAL/MOL
REMARK 922        TOTAL FREE ENERGY PREDICTED BY IDOCK:   -8.47 KCAL/MOL
REMARK 923 INTER-LIGAND FREE ENERGY PREDICTED BY IDOCK:   -8.43 KCAL/MOL
REMARK 924 INTRA-LIGAND FREE ENERGY PREDICTED BY IDOCK:   -0.03 KCAL/MOL
REMARK 927      BINDING AFFINITY PREDICTED BY RF-SCORE:    0.00 PKD
ROOT
HETATM    1  C   UNL     1      -6.902   9.202  71.093  1.00  0.00    -0.088 C  
HETATM    2  C   UNL     1      -8.221   9.213  70.336  1.00  0.00    -0.188 C  
HETATM    3  C   UNL     1      -9.351   9.223  69.686  1.00  0.00    -0.187 C  
ENDROOT
BRANCH   3   4
HETATM    4  C   UNL     1     -10.669   9.234  68.929  1.00  0.00    -0.156 C  
BRANCH   4   5
HETATM    5  N   UNL     1     -10.360   9.734  67.535  1.00  0.00    -0.220 NA 
HETATM    6  C   UNL     1      -9.920   8.962  66.430  1.00  0.00    -0.284 A  
HETATM    7  N   UNL     1      -9.893   9.698  65.335  1.00  0.00    -0.309 NA 
HETATM    8  N   UNL     1     -10.357  12.012  64.837  1.00  0.00    -0.269 N  
HETATM    9  C   UNL     1     -10.219  10.951  65.711  1.00  0.00    -0.259 A  
HETATM   10  O   UNL     1     -11.313  14.067  64.563  1.00  0.00    -0.368 OA 
HETATM   11  C   UNL     1     -10.463  11.057  67.055  1.00  0.00    -0.240 A  
HETATM   12  C   UNL     1     -10.132  11.836  63.414  1.00  0.00    -0.446 C  
HETATM   13  C   UNL     1     -10.742  12.346  67.638  1.00  0.00    -0.221 C  
HETATM   14  C   UNL     1     -10.825  13.221  65.321  1.00  0.00    -0.301 C  
HETATM   15  O   UNL     1     -10.981  12.490  68.832  1.00  0.00    -0.237 OA 
HETATM   16  N   UNL     1     -10.753  13.412  66.710  1.00  0.00    -0.276 N  
BRANCH   6  17
HETATM   17  N   UNL     1      -9.659   7.621  66.415  1.00  0.00    -0.185 NA 
HETATM   18  N   UNL     1     -11.448   6.661  68.879  1.00  0.00    -0.602 NA 
HETATM   19  C   UNL     1      -9.509   5.292  68.211  1.00  0.00    -0.155 C  
HETATM   20  C   UNL     1     -10.755   6.638  66.461  1.00  0.00     0.017 C  
HETATM   21  C   UNL     1      -8.482   6.410  68.310  1.00  0.00    -0.115 C  
HETATM   22  C   UNL     1      -8.365   7.179  66.991  1.00  0.00    -0.118 C  
HETATM   23  C   UNL     1     -10.870   5.851  67.797  1.00  0.00    -0.235 C  
HETATM   24  H1  UNL     1     -12.357   7.034  68.603  1.00  0.00     0.000 HD 
HETATM   25  H2  UNL     1     -10.812   7.398  69.181  1.00  0.00     0.000 HD 
ENDBRANCH   6  17
BRANCH  16  26
HETATM   26  C   UNL     1     -11.028  14.800  67.159  1.00  0.00    -0.320 C  
BRANCH  26  27
HETATM   27  C   UNL     1      -9.879  15.557  67.869  1.00  0.00    -0.216 A  
HETATM   28  N   UNL     1      -9.926  16.914  67.886  1.00  0.00    -0.266 NA 
HETATM   29  C   UNL     1      -8.844  17.598  68.320  1.00  0.00    -0.276 A  
HETATM   30  C   UNL     1      -7.670  16.955  68.740  1.00  0.00    -0.247 A  
HETATM   31  C   UNL     1      -6.535  17.741  69.119  1.00  0.00    -0.240 A  
HETATM   32  C   UNL     1      -7.734  15.555  68.732  1.00  0.00    -0.159 A  
HETATM   33  C   UNL     1      -6.569  19.134  69.104  1.00  0.00    -0.336 A  
HETATM   34  C   UNL     1      -6.554  14.693  69.081  1.00  0.00    -0.112 C  
HETATM   35  N   UNL     1      -8.825  14.862  68.330  1.00  0.00    -0.166 NA 
HETATM   36  C   UNL     1      -7.740  19.766  68.721  1.00  0.00    -0.273 A  
HETATM   37  C   UNL     1      -8.851  18.996  68.339  1.00  0.00    -0.379 A  
ENDBRANCH  26  27
ENDBRANCH  16  26
ENDBRANCH   4   5
ENDBRANCH   3   4
TORSDOF 5
ENDMDL
MODEL       87
REMARK 921   NORMALIZED FREE ENERGY PREDICTED BY IDOCK:   -6.16 KCAL/MOL
REMARK 922        TOTAL FREE ENERGY PREDICTED BY IDOCK:   -8.46 KCAL/MOL
REMARK 923 INTER-LIGAND FREE ENERGY PREDICTED BY IDOCK:   -7.22 KCAL/MOL
REMARK 924 INTRA-LIGAND FREE ENERGY PREDICTED BY IDOCK:   -1.24 KCAL/MOL
REMARK 927      BINDING AFFINITY PREDICTED BY RF-SCORE:    0.00 PKD
ROOT
HETATM    1  C   UNL     1      -7.377  17.526  68.621  1.00  0.00    -0.256 C  
HETATM    2  C   UNL     1      -8.725  16.926  68.255  1.00  0.00    -0.235 C  
HETATM    3  C   UNL     1      -9.881  16.411  67.941  1.00  0.00    -0.238 C  
ENDROOT
BRANCH   3   4
HETATM    4  C   UNL     1     -11.229  15.810  67.575  1.00  0.00    -0.218 C  
BRANCH   4   5
HETATM    5  N   UNL     1     -11.370  14.543  68.390  1.00  0.00    -0.275 NA 
HETATM    6  C   UNL     1     -11.986  14.409  69.659  1.00  0.00    -0.336 A  
HETATM    7  N   UNL     1     -12.060  13.139  70.005  1.00  0.00    -0.326 NA 
HETATM    8  N   UNL     1     -11.342  11.066  69.001  1.00  0.00    -0.251 N  
HETATM    9  C   UNL     1     -11.430  12.444  69.035  1.00  0.00    -0.300 A  
HETATM   10  O   UNL     1     -11.009   9.269  67.632  1.00  0.00    -0.204 OA 
HETATM   11  C   UNL     1     -10.934  13.246  68.042  1.00  0.00    -0.244 A  
HETATM   12  C   UNL     1     -11.926  10.258  70.056  1.00  0.00    -0.197 C  
HETATM   13  C   UNL     1     -10.158  12.672  66.971  1.00  0.00    -0.224 C  
HETATM   14  C   UNL     1     -10.788  10.458  67.888  1.00  0.00    -0.279 C  
HETATM   15  O   UNL     1      -9.705  13.346  66.052  1.00  0.00    -0.273 OA 
HETATM   16  N   UNL     1     -10.002  11.270  67.055  1.00  0.00    -0.195 N  
BRANCH   6  17
HETATM   17  N   UNL     1     -12.545  15.405  70.411  1.00  0.00    -0.404 NA 
HETATM   18  N   UNL     1     -11.438  14.629  73.303  1.00  0.00     0.285 NA 
HETATM   19  C   UNL     1     -13.510  15.954  73.138  1.00  0.00    -0.650 C  
HETATM   20  C   UNL     1     -11.726  16.189  71.352  1.00  0.00    -0.444 C  
HETATM   21  C   UNL     1     -14.254  14.978  72.239  1.00  0.00    -0.594 C  
HETATM   22  C   UNL     1     -13.980  15.263  70.759  1.00  0.00    -0.009 C  
HETATM   23  C   UNL     1     -12.009  15.906  72.854  1.00  0.00    -0.504 C  
HETATM   24  H1  UNL     1     -10.436  14.596  73.114  1.00  0.00     0.000 HD 
HETATM   25  H2  UNL     1     -11.926  13.831  72.895  1.00  0.00     0.000 HD 
ENDBRANCH   6  17
BRANCH  16  26
HETATM   26  C   UNL     1      -9.229  10.534  66.023  1.00  0.00    -0.176 C  
BRANCH  26  27
HETATM   27  C   UNL     1      -8.038   9.672  66.508  1.00  0.00    -0.119 A  
HETATM   28  N   UNL     1      -8.086   8.335  66.281  1.00  0.00    -0.106 NA 
HETATM   29  C   UNL     1      -7.161   7.541  66.865  1.00  0.00    -0.085 A  
HETATM   30  C   UNL     1      -6.164   8.049  67.709  1.00  0.00    -0.051 A  
HETATM   31  C   UNL     1      -5.260   7.145  68.354  1.00  0.00    -0.020 A  
HETATM   32  C   UNL     1      -6.165   9.445  67.844  1.00  0.00    -0.053 A  
HETATM   33  C   UNL     1      -5.329   5.769  68.151  1.00  0.00    -0.004 A  
HETATM   34  C   UNL     1      -5.218  10.166  68.760  1.00  0.00    -0.035 C  
HETATM   35  N   UNL     1      -7.067  10.250  67.236  1.00  0.00    -0.087 NA 
HETATM   36  C   UNL     1      -6.294   5.272  67.291  1.00  0.00    -0.036 A  
HETATM   37  C   UNL     1      -7.188   6.157  66.665  1.00  0.00    -0.074 A  
ENDBRANCH  26  27
ENDBRANCH  16  26
ENDBRANCH   4   5
ENDBRANCH   3   4
TORSDOF 5
ENDMDL
MODEL       88
REMARK 921   NORMALIZED FREE ENERGY PREDICTED BY IDOCK:   -6.12 KCAL/MOL
REMARK 922        TOTAL FREE ENERGY PREDICTED BY IDOCK:   -8.41 KCAL/MOL
REMARK 923 INTER-LIGAND FREE ENERGY PREDICTED BY IDOCK:   -7.60 KCAL/MOL
REMARK 924 INTRA-LIGAND FREE ENERGY PREDICTED BY IDOCK:   -0.81 KCAL/MOL
REMARK 927      BINDING AFFINITY PREDICTED BY RF-SCORE:    0.00 PKD
ROOT
HETATM    1  C   UNL     1      -8.207   7.354  65.361  1.00  0.00    -0.135 C  
HETATM    2  C   UNL     1      -8.075   8.421  66.436  1.00  0.00    -0.104 C  
HETATM    3  C   UNL     1      -7.962   9.337  67.358  1.00  0.00    -0.106 C  
ENDROOT
BRANCH   3   4
HETATM    4  C   UNL     1      -7.831  10.403  68.433  1.00  0.00    -0.104 C  
BRANCH   4   5
HETATM    5  N   UNL     1      -9.208  10.578  69.035  1.00  0.00    -0.183 NA 
HETATM    6  C   UNL     1     -10.204  11.503  68.631  1.00  0.00    -0.208 A  
HETATM    7  N   UNL     1     -11.332  11.278  69.277  1.00  0.00    -0.260 NA 
HETATM    8  N   UNL     1     -12.023   9.721  70.985  1.00  0.00    -0.327 N  
HETATM    9  C   UNL     1     -11.075  10.287  70.156  1.00  0.00    -0.319 A  
HETATM   10  O   UNL     1     -12.535   7.862  72.208  1.00  0.00    -0.292 OA 
HETATM   11  C   UNL     1      -9.778   9.849  70.101  1.00  0.00    -0.202 A  
HETATM   12  C   UNL     1     -13.397  10.191  70.972  1.00  0.00    -0.261 C  
HETATM   13  C   UNL     1      -9.313   8.852  71.032  1.00  0.00    -0.249 C  
HETATM   14  C   UNL     1     -11.674   8.621  71.748  1.00  0.00    -0.331 C  
HETATM   15  O   UNL     1      -8.166   8.418  71.013  1.00  0.00    -0.107 OA 
HETATM   16  N   UNL     1     -10.301   8.396  71.935  1.00  0.00    -0.256 N  
BRANCH   6  17
HETATM   17  N   UNL     1     -10.104  12.439  67.640  1.00  0.00    -0.196 NA 
HETATM   18  N   UNL     1     -11.332  14.983  69.129  1.00  0.00    -0.278 NA 
HETATM   19  C   UNL     1     -11.400  14.897  66.666  1.00  0.00    -0.326 C  
HETATM   20  C   UNL     1      -9.506  13.759  67.908  1.00  0.00    -0.214 C  
HETATM   21  C   UNL     1     -12.117  13.558  66.572  1.00  0.00    -0.460 C  
HETATM   22  C   UNL     1     -11.122  12.393  66.562  1.00  0.00    -0.301 C  
HETATM   23  C   UNL     1     -10.513  14.943  67.910  1.00  0.00    -0.250 C  
HETATM   24  H1  UNL     1     -10.740  15.013  69.960  1.00  0.00     0.000 HD 
HETATM   25  H2  UNL     1     -11.995  14.208  69.165  1.00  0.00     0.000 HD 
ENDBRANCH   6  17
BRANCH  16  26
HETATM   26  C   UNL     1      -9.974   7.367  72.953  1.00  0.00    -0.232 C  
BRANCH  26  27
HETATM   27  C   UNL     1      -9.714   5.927  72.451  1.00  0.00    -0.159 A  
HETATM   28  N   UNL     1      -9.460   5.749  71.129  1.00  0.00    -0.156 NA 
HETATM   29  C   UNL     1      -9.428   4.492  70.635  1.00  0.00    -0.170 A  
HETATM   30  C   UNL     1      -9.664   3.365  71.436  1.00  0.00    -0.234 A  
HETATM   31  C   UNL     1      -9.688   2.066  70.834  1.00  0.00    -0.135 A  
HETATM   32  C   UNL     1      -9.869   3.646  72.794  1.00  0.00    -0.147 A  
HETATM   33  C   UNL     1      -9.462   1.885  69.472  1.00  0.00    -0.117 A  
HETATM   34  C   UNL     1     -10.206   2.576  73.795  1.00  0.00    -0.189 C  
HETATM   35  N   UNL     1      -9.870   4.899  73.304  1.00  0.00    -0.146 NA 
HETATM   36  C   UNL     1      -9.197   2.995  68.689  1.00  0.00    -0.231 A  
HETATM   37  C   UNL     1      -9.183   4.271  69.276  1.00  0.00    -0.210 A  
ENDBRANCH  26  27
ENDBRANCH  16  26
ENDBRANCH   4   5
ENDBRANCH   3   4
TORSDOF 5
ENDMDL
MODEL       89
REMARK 921   NORMALIZED FREE ENERGY PREDICTED BY IDOCK:   -6.11 KCAL/MOL
REMARK 922        TOTAL FREE ENERGY PREDICTED BY IDOCK:   -8.40 KCAL/MOL
REMARK 923 INTER-LIGAND FREE ENERGY PREDICTED BY IDOCK:   -7.22 KCAL/MOL
REMARK 924 INTRA-LIGAND FREE ENERGY PREDICTED BY IDOCK:   -1.18 KCAL/MOL
REMARK 927      BINDING AFFINITY PREDICTED BY RF-SCORE:    0.00 PKD
ROOT
HETATM    1  C   UNL     1     -12.505  10.514  71.431  1.00  0.00    -0.516 C  
HETATM    2  C   UNL     1     -12.250  11.049  70.031  1.00  0.00    -0.418 C  
HETATM    3  C   UNL     1     -12.030  11.509  68.831  1.00  0.00    -0.364 C  
ENDROOT
BRANCH   3   4
HETATM    4  C   UNL     1     -11.775  12.043  67.431  1.00  0.00    -0.281 C  
BRANCH   4   5
HETATM    5  N   UNL     1     -10.294  12.347  67.351  1.00  0.00    -0.207 NA 
HETATM    6  C   UNL     1      -9.673  13.611  67.507  1.00  0.00    -0.227 A  
HETATM    7  N   UNL     1      -8.360  13.482  67.523  1.00  0.00    -0.172 NA 
HETATM    8  N   UNL     1      -6.839  11.625  67.292  1.00  0.00    -0.117 N  
HETATM    9  C   UNL     1      -8.104  12.178  67.295  1.00  0.00    -0.176 A  
HETATM   10  O   UNL     1      -5.673   9.676  67.534  1.00  0.00    -0.040 OA 
HETATM   11  C   UNL     1      -9.242  11.433  67.125  1.00  0.00    -0.166 A  
HETATM   12  C   UNL     1      -5.667  12.450  67.525  1.00  0.00    -0.138 C  
HETATM   13  C   UNL     1      -9.145  10.035  66.788  1.00  0.00    -0.139 C  
HETATM   14  C   UNL     1      -6.708  10.252  67.180  1.00  0.00    -0.078 C  
HETATM   15  O   UNL     1     -10.134   9.324  66.640  1.00  0.00    -0.242 OA 
HETATM   16  N   UNL     1      -7.821   9.554  66.683  1.00  0.00    -0.101 N  
BRANCH   6  17
HETATM   17  N   UNL     1     -10.292  14.810  67.727  1.00  0.00    -0.243 NA 
HETATM   18  N   UNL     1      -8.340  16.765  66.126  1.00  0.00    -0.429 NA 
HETATM   19  C   UNL     1      -9.706  17.687  67.960  1.00  0.00    -0.301 C  
HETATM   20  C   UNL     1     -10.579  15.726  66.609  1.00  0.00    -0.307 C  
HETATM   21  C   UNL     1      -9.223  16.712  69.024  1.00  0.00    -0.223 C  
HETATM   22  C   UNL     1     -10.083  15.445  69.052  1.00  0.00    -0.234 C  
HETATM   23  C   UNL     1      -9.713  17.017  66.585  1.00  0.00    -0.277 C  
HETATM   24  H1  UNL     1      -8.344  16.318  65.208  1.00  0.00     0.000 HD 
HETATM   25  H2  UNL     1      -7.806  16.225  66.807  1.00  0.00     0.000 HD 
ENDBRANCH   6  17
BRANCH  16  26
HETATM   26  C   UNL     1      -7.559   8.133  66.344  1.00  0.00    -0.091 C  
BRANCH  26  27
HETATM   27  C   UNL     1      -8.292   7.056  67.181  1.00  0.00    -0.121 A  
HETATM   28  N   UNL     1      -8.263   7.172  68.533  1.00  0.00    -0.124 NA 
HETATM   29  C   UNL     1      -8.720   6.146  69.284  1.00  0.00    -0.122 A  
HETATM   30  C   UNL     1      -9.209   4.961  68.717  1.00  0.00    -0.162 A  
HETATM   31  C   UNL     1      -9.610   3.884  69.572  1.00  0.00    -0.248 A  
HETATM   32  C   UNL     1      -9.244   4.954  67.315  1.00  0.00    -0.124 A  
HETATM   33  C   UNL     1      -9.548   3.987  70.959  1.00  0.00    -0.249 A  
HETATM   34  C   UNL     1      -9.670   3.748  66.527  1.00  0.00    -0.147 C  
HETATM   35  N   UNL     1      -8.819   5.989  66.555  1.00  0.00    -0.126 NA 
HETATM   36  C   UNL     1      -9.097   5.171  71.518  1.00  0.00    -0.169 A  
HETATM   37  C   UNL     1      -8.693   6.224  70.681  1.00  0.00    -0.140 A  
ENDBRANCH  26  27
ENDBRANCH  16  26
ENDBRANCH   4   5
ENDBRANCH   3   4
TORSDOF 5
ENDMDL
MODEL       90
REMARK 921   NORMALIZED FREE ENERGY PREDICTED BY IDOCK:   -6.10 KCAL/MOL
REMARK 922        TOTAL FREE ENERGY PREDICTED BY IDOCK:   -8.39 KCAL/MOL
REMARK 923 INTER-LIGAND FREE ENERGY PREDICTED BY IDOCK:   -7.60 KCAL/MOL
REMARK 924 INTRA-LIGAND FREE ENERGY PREDICTED BY IDOCK:   -0.79 KCAL/MOL
REMARK 927      BINDING AFFINITY PREDICTED BY RF-SCORE:    0.00 PKD
ROOT
HETATM    1  C   UNL     1     -12.766  11.995  63.540  1.00  0.00    -0.567 C  
HETATM    2  C   UNL     1     -12.486  12.789  64.806  1.00  0.00    -0.539 C  
HETATM    3  C   UNL     1     -12.245  13.471  65.891  1.00  0.00    -0.507 C  
ENDROOT
BRANCH   3   4
HETATM    4  C   UNL     1     -11.966  14.264  67.157  1.00  0.00    -0.417 C  
BRANCH   4   5
HETATM    5  N   UNL     1     -10.479  14.548  67.166  1.00  0.00    -0.266 NA 
HETATM    6  C   UNL     1      -9.854  15.821  67.147  1.00  0.00    -0.226 A  
HETATM    7  N   UNL     1      -8.552  15.698  67.313  1.00  0.00    -0.180 NA 
HETATM    8  N   UNL     1      -7.046  13.831  67.572  1.00  0.00    -0.177 N  
HETATM    9  C   UNL     1      -8.297  14.374  67.352  1.00  0.00    -0.201 A  
HETATM   10  O   UNL     1      -5.942  11.961  68.276  1.00  0.00    -0.049 OA 
HETATM   11  C   UNL     1      -9.426  13.610  67.212  1.00  0.00    -0.230 A  
HETATM   12  C   UNL     1      -5.888  14.686  67.762  1.00  0.00    -0.083 C  
HETATM   13  C   UNL     1      -9.321  12.174  67.146  1.00  0.00    -0.193 C  
HETATM   14  C   UNL     1      -6.929  12.461  67.725  1.00  0.00    -0.118 C  
HETATM   15  O   UNL     1     -10.303  11.447  67.036  1.00  0.00    -0.209 OA 
HETATM   16  N   UNL     1      -8.001  11.683  67.259  1.00  0.00    -0.149 N  
BRANCH   6  17
HETATM   17  N   UNL     1     -10.471  17.039  67.085  1.00  0.00    -0.313 NA 
HETATM   18  N   UNL     1      -7.982  18.904  66.361  1.00  0.00    -0.278 NA 
HETATM   19  C   UNL     1      -9.934  19.907  67.487  1.00  0.00    -0.552 C  
HETATM   20  C   UNL     1     -10.262  17.931  65.931  1.00  0.00    -0.224 C  
HETATM   21  C   UNL     1      -9.945  18.950  68.670  1.00  0.00    -0.470 C  
HETATM   22  C   UNL     1     -10.785  17.704  68.373  1.00  0.00    -0.242 C  
HETATM   23  C   UNL     1      -9.416  19.201  66.233  1.00  0.00    -0.326 C  
HETATM   24  H1  UNL     1      -7.636  18.433  65.525  1.00  0.00     0.000 HD 
HETATM   25  H2  UNL     1      -7.780  18.371  67.207  1.00  0.00     0.000 HD 
ENDBRANCH   6  17
BRANCH  16  26
HETATM   26  C   UNL     1      -7.733  10.223  67.211  1.00  0.00    -0.095 C  
BRANCH  26  27
HETATM   27  C   UNL     1      -7.775   9.449  68.550  1.00  0.00    -0.085 A  
HETATM   28  N   UNL     1      -6.630   8.860  68.981  1.00  0.00    -0.047 NA 
HETATM   29  C   UNL     1      -6.689   8.018  70.037  1.00  0.00    -0.040 A  
HETATM   30  C   UNL     1      -7.892   7.720  70.692  1.00  0.00    -0.096 A  
HETATM   31  C   UNL     1      -7.895   6.763  71.758  1.00  0.00    -0.101 A  
HETATM   32  C   UNL     1      -9.010   8.413  70.207  1.00  0.00    -0.147 A  
HETATM   33  C   UNL     1      -6.728   6.130  72.179  1.00  0.00    -0.068 A  
HETATM   34  C   UNL     1     -10.396   8.174  70.735  1.00  0.00    -0.217 C  
HETATM   35  N   UNL     1      -8.955   9.283  69.172  1.00  0.00    -0.141 NA 
HETATM   36  C   UNL     1      -5.535   6.450  71.552  1.00  0.00    -0.027 A  
HETATM   37  C   UNL     1      -5.532   7.382  70.500  1.00  0.00    -0.024 A  
ENDBRANCH  26  27
ENDBRANCH  16  26
ENDBRANCH   4   5
ENDBRANCH   3   4
TORSDOF 5
ENDMDL
MODEL       91
REMARK 921   NORMALIZED FREE ENERGY PREDICTED BY IDOCK:   -6.10 KCAL/MOL
REMARK 922        TOTAL FREE ENERGY PREDICTED BY IDOCK:   -8.38 KCAL/MOL
REMARK 923 INTER-LIGAND FREE ENERGY PREDICTED BY IDOCK:   -7.44 KCAL/MOL
REMARK 924 INTRA-LIGAND FREE ENERGY PREDICTED BY IDOCK:   -0.94 KCAL/MOL
REMARK 927      BINDING AFFINITY PREDICTED BY RF-SCORE:    0.00 PKD
ROOT
HETATM    1  C   UNL     1     -11.651   4.638  72.961  1.00  0.00    -0.208 C  
HETATM    2  C   UNL     1     -11.445   6.106  72.625  1.00  0.00    -0.277 C  
HETATM    3  C   UNL     1     -11.270   7.366  72.337  1.00  0.00    -0.337 C  
ENDROOT
BRANCH   3   4
HETATM    4  C   UNL     1     -11.065   8.834  72.002  1.00  0.00    -0.371 C  
BRANCH   4   5
HETATM    5  N   UNL     1      -9.959   8.889  70.970  1.00  0.00    -0.232 NA 
HETATM    6  C   UNL     1      -8.677   8.290  71.061  1.00  0.00    -0.146 A  
HETATM    7  N   UNL     1      -8.027   8.416  69.920  1.00  0.00    -0.104 NA 
HETATM    8  N   UNL     1      -8.511   9.463  67.802  1.00  0.00    -0.116 N  
HETATM    9  C   UNL     1      -8.815   9.157  69.114  1.00  0.00    -0.146 A  
HETATM   10  O   UNL     1      -9.406  10.089  65.796  1.00  0.00    -0.163 OA 
HETATM   11  C   UNL     1      -9.990   9.528  69.712  1.00  0.00    -0.213 A  
HETATM   12  C   UNL     1      -7.273   9.005  67.199  1.00  0.00    -0.083 C  
HETATM   13  C   UNL     1     -10.910  10.395  69.019  1.00  0.00    -0.234 C  
HETATM   14  C   UNL     1      -9.457  10.117  67.031  1.00  0.00    -0.167 C  
HETATM   15  O   UNL     1     -11.980  10.743  69.507  1.00  0.00    -0.300 OA 
HETATM   16  N   UNL     1     -10.488  10.771  67.724  1.00  0.00    -0.195 N  
BRANCH   6  17
HETATM   17  N   UNL     1      -8.176   7.573  72.112  1.00  0.00    -0.100 NA 
HETATM   18  N   UNL     1      -5.658   9.376  72.887  1.00  0.00    -0.267 NA 
HETATM   19  C   UNL     1      -5.641   6.985  73.488  1.00  0.00    -0.046 C  
HETATM   20  C   UNL     1      -7.844   8.235  73.385  1.00  0.00    -0.144 C  
HETATM   21  C   UNL     1      -5.894   6.465  72.080  1.00  0.00    -0.037 C  
HETATM   22  C   UNL     1      -7.393   6.356  71.786  1.00  0.00    -0.088 C  
HETATM   23  C   UNL     1      -6.322   8.339  73.688  1.00  0.00    -0.115 C  
HETATM   24  H1  UNL     1      -6.113  10.280  73.021  1.00  0.00     0.000 HD 
HETATM   25  H2  UNL     1      -5.609   9.120  71.901  1.00  0.00     0.000 HD 
ENDBRANCH   6  17
BRANCH  16  26
HETATM   26  C   UNL     1     -11.330  11.660  66.885  1.00  0.00    -0.295 C  
BRANCH  26  27
HETATM   27  C   UNL     1     -10.929  13.153  66.806  1.00  0.00    -0.279 A  
HETATM   28  N   UNL     1     -10.519  13.763  67.946  1.00  0.00    -0.242 NA 
HETATM   29  C   UNL     1     -10.355  15.105  67.944  1.00  0.00    -0.241 A  
HETATM   30  C   UNL     1     -10.608  15.889  66.810  1.00  0.00    -0.309 A  
HETATM   31  C   UNL     1     -10.484  17.313  66.897  1.00  0.00    -0.272 A  
HETATM   32  C   UNL     1     -10.979  15.165  65.669  1.00  0.00    -0.355 A  
HETATM   33  C   UNL     1     -10.098  17.945  68.077  1.00  0.00    -0.360 A  
HETATM   34  C   UNL     1     -11.358  15.835  64.378  1.00  0.00    -0.274 C  
HETATM   35  N   UNL     1     -11.114  13.819  65.652  1.00  0.00    -0.294 NA 
HETATM   36  C   UNL     1      -9.817  17.167  69.186  1.00  0.00    -0.187 A  
HETATM   37  C   UNL     1      -9.947  15.770  69.105  1.00  0.00    -0.241 A  
ENDBRANCH  26  27
ENDBRANCH  16  26
ENDBRANCH   4   5
ENDBRANCH   3   4
TORSDOF 5
ENDMDL
MODEL       92
REMARK 921   NORMALIZED FREE ENERGY PREDICTED BY IDOCK:   -6.07 KCAL/MOL
REMARK 922        TOTAL FREE ENERGY PREDICTED BY IDOCK:   -8.35 KCAL/MOL
REMARK 923 INTER-LIGAND FREE ENERGY PREDICTED BY IDOCK:   -8.10 KCAL/MOL
REMARK 924 INTRA-LIGAND FREE ENERGY PREDICTED BY IDOCK:   -0.25 KCAL/MOL
REMARK 927      BINDING AFFINITY PREDICTED BY RF-SCORE:    0.00 PKD
ROOT
HETATM    1  C   UNL     1     -10.911  19.593  66.515  1.00  0.00    -0.454 C  
HETATM    2  C   UNL     1     -10.761  18.311  67.319  1.00  0.00    -0.366 C  
HETATM    3  C   UNL     1     -10.634  17.211  68.008  1.00  0.00    -0.374 C  
ENDROOT
BRANCH   3   4
HETATM    4  C   UNL     1     -10.484  15.930  68.811  1.00  0.00    -0.237 C  
BRANCH   4   5
HETATM    5  N   UNL     1      -9.263  15.221  68.265  1.00  0.00    -0.186 NA 
HETATM    6  C   UNL     1      -8.052  15.818  67.833  1.00  0.00    -0.141 A  
HETATM    7  N   UNL     1      -7.153  14.892  67.560  1.00  0.00    -0.187 NA 
HETATM    8  N   UNL     1      -7.146  12.480  67.579  1.00  0.00    -0.138 N  
HETATM    9  C   UNL     1      -7.771  13.704  67.718  1.00  0.00    -0.164 A  
HETATM   10  O   UNL     1      -7.261  10.272  68.148  1.00  0.00    -0.081 OA 
HETATM   11  C   UNL     1      -9.082  13.832  68.095  1.00  0.00    -0.194 A  
HETATM   12  C   UNL     1      -5.741  12.400  67.223  1.00  0.00    -0.114 C  
HETATM   13  C   UNL     1      -9.912  12.660  68.225  1.00  0.00    -0.229 C  
HETATM   14  C   UNL     1      -7.848  11.330  67.897  1.00  0.00    -0.116 C  
HETATM   15  O   UNL     1     -11.087  12.722  68.574  1.00  0.00    -0.238 OA 
HETATM   16  N   UNL     1      -9.246  11.444  67.955  1.00  0.00    -0.165 N  
BRANCH   6  17
HETATM   17  N   UNL     1      -7.761  17.153  67.794  1.00  0.00    -0.175 NA 
HETATM   18  N   UNL     1      -5.128  17.113  65.988  1.00  0.00    -0.341 NA 
HETATM   19  C   UNL     1      -5.481  18.998  67.538  1.00  0.00    -0.167 C  
HETATM   20  C   UNL     1      -7.482  17.826  66.513  1.00  0.00    -0.249 C  
HETATM   21  C   UNL     1      -5.649  18.148  68.789  1.00  0.00    -0.185 C  
HETATM   22  C   UNL     1      -7.110  17.738  68.992  1.00  0.00    -0.229 C  
HETATM   23  C   UNL     1      -6.001  18.251  66.309  1.00  0.00    -0.177 C  
HETATM   24  H1  UNL     1      -5.474  16.614  65.169  1.00  0.00     0.000 HD 
HETATM   25  H2  UNL     1      -5.008  16.490  66.788  1.00  0.00     0.000 HD 
ENDBRANCH   6  17
BRANCH  16  26
HETATM   26  C   UNL     1      -9.969  10.151  68.050  1.00  0.00    -0.148 C  
BRANCH  26  27
HETATM   27  C   UNL     1     -10.302   9.624  69.466  1.00  0.00    -0.221 A  
HETATM   28  N   UNL     1      -9.537   8.622  69.969  1.00  0.00    -0.167 NA 
HETATM   29  C   UNL     1      -9.928   8.015  71.112  1.00  0.00    -0.174 A  
HETATM   30  C   UNL     1     -11.103   8.373  71.787  1.00  0.00    -0.358 A  
HETATM   31  C   UNL     1     -11.497   7.640  72.952  1.00  0.00    -0.342 A  
HETATM   32  C   UNL     1     -11.800   9.448  71.218  1.00  0.00    -0.360 A  
HETATM   33  C   UNL     1     -10.732   6.588  73.450  1.00  0.00    -0.295 A  
HETATM   34  C   UNL     1     -13.117   9.931  71.759  1.00  0.00    -0.553 C  
HETATM   35  N   UNL     1     -11.398  10.084  70.093  1.00  0.00    -0.274 NA 
HETATM   36  C   UNL     1      -9.554   6.257  72.801  1.00  0.00    -0.155 A  
HETATM   37  C   UNL     1      -9.172   6.969  71.652  1.00  0.00    -0.144 A  
ENDBRANCH  26  27
ENDBRANCH  16  26
ENDBRANCH   4   5
ENDBRANCH   3   4
TORSDOF 5
ENDMDL
MODEL       93
REMARK 921   NORMALIZED FREE ENERGY PREDICTED BY IDOCK:   -6.03 KCAL/MOL
REMARK 922        TOTAL FREE ENERGY PREDICTED BY IDOCK:   -8.30 KCAL/MOL
REMARK 923 INTER-LIGAND FREE ENERGY PREDICTED BY IDOCK:   -7.29 KCAL/MOL
REMARK 924 INTRA-LIGAND FREE ENERGY PREDICTED BY IDOCK:   -1.01 KCAL/MOL
REMARK 927      BINDING AFFINITY PREDICTED BY RF-SCORE:    0.00 PKD
ROOT
HETATM    1  C   UNL     1      -5.199  14.097  72.305  1.00  0.00    -0.223 C  
HETATM    2  C   UNL     1      -5.561  14.294  70.842  1.00  0.00    -0.185 C  
HETATM    3  C   UNL     1      -5.872  14.463  69.587  1.00  0.00    -0.105 C  
ENDROOT
BRANCH   3   4
HETATM    4  C   UNL     1      -6.234  14.661  68.124  1.00  0.00    -0.141 C  
BRANCH   4   5
HETATM    5  N   UNL     1      -7.744  14.743  68.061  1.00  0.00    -0.115 NA 
HETATM    6  C   UNL     1      -8.536  15.917  68.107  1.00  0.00    -0.169 A  
HETATM    7  N   UNL     1      -9.803  15.629  67.879  1.00  0.00    -0.216 NA 
HETATM    8  N   UNL     1     -11.028  13.591  67.473  1.00  0.00    -0.264 N  
HETATM    9  C   UNL     1      -9.873  14.286  67.772  1.00  0.00    -0.223 A  
HETATM   10  O   UNL     1     -11.839  11.625  66.641  1.00  0.00    -0.533 OA 
HETATM   11  C   UNL     1      -8.656  13.675  67.929  1.00  0.00    -0.181 A  
HETATM   12  C   UNL     1     -12.284  14.290  67.269  1.00  0.00    -0.252 C  
HETATM   13  C   UNL     1      -8.566  12.236  67.928  1.00  0.00    -0.169 C  
HETATM   14  C   UNL     1     -10.952  12.226  67.256  1.00  0.00    -0.256 C  
HETATM   15  O   UNL     1      -7.499  11.644  68.050  1.00  0.00    -0.089 OA 
HETATM   16  N   UNL     1      -9.802  11.578  67.735  1.00  0.00    -0.174 N  
BRANCH   6  17
HETATM   17  N   UNL     1      -8.094  17.203  68.249  1.00  0.00    -0.230 NA 
HETATM   18  N   UNL     1     -10.568  18.799  67.012  1.00  0.00    -0.421 NA 
HETATM   19  C   UNL     1      -8.345  19.865  67.016  1.00  0.00    -0.364 C  
HETATM   20  C   UNL     1      -8.955  18.233  68.857  1.00  0.00    -0.127 C  
HETATM   21  C   UNL     1      -7.626  18.741  66.285  1.00  0.00    -0.287 C  
HETATM   22  C   UNL     1      -7.098  17.688  67.263  1.00  0.00    -0.177 C  
HETATM   23  C   UNL     1      -9.486  19.307  67.867  1.00  0.00    -0.325 C  
HETATM   24  H1  UNL     1     -11.330  18.426  67.579  1.00  0.00     0.000 HD 
HETATM   25  H2  UNL     1     -10.228  18.113  66.338  1.00  0.00     0.000 HD 
ENDBRANCH   6  17
BRANCH  16  26
HETATM   26  C   UNL     1      -9.870  10.095  67.709  1.00  0.00    -0.163 C  
BRANCH  26  27
HETATM   27  C   UNL     1      -9.931   9.362  69.070  1.00  0.00    -0.177 A  
HETATM   28  N   UNL     1      -8.957   9.622  69.978  1.00  0.00    -0.224 NA 
HETATM   29  C   UNL     1      -8.877   8.853  71.087  1.00  0.00    -0.237 A  
HETATM   30  C   UNL     1      -9.755   7.786  71.323  1.00  0.00    -0.179 A  
HETATM   31  C   UNL     1      -9.569   6.965  72.482  1.00  0.00    -0.165 A  
HETATM   32  C   UNL     1     -10.756   7.625  70.355  1.00  0.00    -0.236 A  
HETATM   33  C   UNL     1      -8.548   7.209  73.397  1.00  0.00    -0.162 A  
HETATM   34  C   UNL     1     -11.746   6.496  70.400  1.00  0.00    -0.439 C  
HETATM   35  N   UNL     1     -10.864   8.412  69.259  1.00  0.00    -0.122 NA 
HETATM   36  C   UNL     1      -7.702   8.283  73.179  1.00  0.00    -0.180 A  
HETATM   37  C   UNL     1      -7.877   9.083  72.037  1.00  0.00     0.219 A  
ENDBRANCH  26  27
ENDBRANCH  16  26
ENDBRANCH   4   5
ENDBRANCH   3   4
TORSDOF 5
ENDMDL
MODEL       94
REMARK 921   NORMALIZED FREE ENERGY PREDICTED BY IDOCK:   -6.03 KCAL/MOL
REMARK 922        TOTAL FREE ENERGY PREDICTED BY IDOCK:   -8.29 KCAL/MOL
REMARK 923 INTER-LIGAND FREE ENERGY PREDICTED BY IDOCK:   -7.87 KCAL/MOL
REMARK 924 INTRA-LIGAND FREE ENERGY PREDICTED BY IDOCK:   -0.42 KCAL/MOL
REMARK 927      BINDING AFFINITY PREDICTED BY RF-SCORE:    0.00 PKD
ROOT
HETATM    1  C   UNL     1     -12.655  13.020  64.999  1.00  0.00    -0.515 C  
HETATM    2  C   UNL     1     -12.159  12.410  66.301  1.00  0.00    -0.256 C  
HETATM    3  C   UNL     1     -11.734  11.887  67.417  1.00  0.00    -0.326 C  
ENDROOT
BRANCH   3   4
HETATM    4  C   UNL     1     -11.239  11.277  68.718  1.00  0.00    -0.250 C  
BRANCH   4   5
HETATM    5  N   UNL     1      -9.848  10.749  68.444  1.00  0.00    -0.163 NA 
HETATM    6  C   UNL     1      -9.461   9.391  68.318  1.00  0.00    -0.137 A  
HETATM    7  N   UNL     1      -8.202   9.304  67.932  1.00  0.00    -0.115 NA 
HETATM    8  N   UNL     1      -6.458  10.905  67.469  1.00  0.00    -0.057 N  
HETATM    9  C   UNL     1      -7.730  10.567  67.887  1.00  0.00    -0.092 A  
HETATM   10  O   UNL     1      -5.177  12.602  66.637  1.00  0.00    -0.201 OA 
HETATM   11  C   UNL     1      -8.669  11.499  68.243  1.00  0.00    -0.162 A  
HETATM   12  C   UNL     1      -5.515   9.881  67.057  1.00  0.00    -0.045 C  
HETATM   13  C   UNL     1      -8.306  12.891  68.330  1.00  0.00    -0.157 C  
HETATM   14  C   UNL     1      -6.130  12.243  67.337  1.00  0.00    -0.153 C  
HETATM   15  O   UNL     1      -9.114  13.765  68.629  1.00  0.00    -0.163 OA 
HETATM   16  N   UNL     1      -6.958  13.161  68.003  1.00  0.00    -0.099 N  
BRANCH   6  17
HETATM   17  N   UNL     1     -10.261   8.291  68.452  1.00  0.00    -0.205 NA 
HETATM   18  N   UNL     1      -8.154   6.185  69.600  1.00  0.00    -0.110 NA 
HETATM   19  C   UNL     1     -10.146   5.349  68.410  1.00  0.00    -0.235 C  
HETATM   20  C   UNL     1     -10.282   7.523  69.709  1.00  0.00    -0.211 C  
HETATM   21  C   UNL     1      -9.918   6.149  67.136  1.00  0.00    -0.188 C  
HETATM   22  C   UNL     1     -10.575   7.530  67.218  1.00  0.00    -0.324 C  
HETATM   23  C   UNL     1      -9.622   6.117  69.624  1.00  0.00    -0.148 C  
HETATM   24  H1  UNL     1      -7.804   6.697  70.410  1.00  0.00     0.000 HD 
HETATM   25  H2  UNL     1      -7.808   6.579  68.725  1.00  0.00     0.000 HD 
ENDBRANCH   6  17
BRANCH  16  26
HETATM   26  C   UNL     1      -6.435  14.549  68.045  1.00  0.00    -0.150 C  
BRANCH  26  27
HETATM   27  C   UNL     1      -7.340  15.667  67.474  1.00  0.00    -0.185 A  
HETATM   28  N   UNL     1      -7.287  16.890  68.059  1.00  0.00    -0.166 NA 
HETATM   29  C   UNL     1      -8.206  17.820  67.711  1.00  0.00    -0.227 A  
HETATM   30  C   UNL     1      -9.219  17.559  66.778  1.00  0.00    -0.277 A  
HETATM   31  C   UNL     1     -10.203  18.563  66.509  1.00  0.00    -0.440 A  
HETATM   32  C   UNL     1      -9.162  16.286  66.193  1.00  0.00    -0.341 A  
HETATM   33  C   UNL     1     -10.172  19.807  67.134  1.00  0.00    -0.574 A  
HETATM   34  C   UNL     1     -10.202  15.799  65.223  1.00  0.00    -0.323 C  
HETATM   35  N   UNL     1      -8.227  15.361  66.511  1.00  0.00    -0.164 NA 
HETATM   36  C   UNL     1      -9.151  20.075  68.031  1.00  0.00    -0.348 A  
HETATM   37  C   UNL     1      -8.191  19.087  68.304  1.00  0.00    -0.364 A  
ENDBRANCH  26  27
ENDBRANCH  16  26
ENDBRANCH   4   5
ENDBRANCH   3   4
TORSDOF 5
ENDMDL
MODEL       95
REMARK 921   NORMALIZED FREE ENERGY PREDICTED BY IDOCK:   -6.00 KCAL/MOL
REMARK 922        TOTAL FREE ENERGY PREDICTED BY IDOCK:   -8.25 KCAL/MOL
REMARK 923 INTER-LIGAND FREE ENERGY PREDICTED BY IDOCK:   -7.16 KCAL/MOL
REMARK 924 INTRA-LIGAND FREE ENERGY PREDICTED BY IDOCK:   -1.10 KCAL/MOL
REMARK 927      BINDING AFFINITY PREDICTED BY RF-SCORE:    0.00 PKD
ROOT
HETATM    1  C   UNL     1     -10.914   5.734  72.221  1.00  0.00    -0.314 C  
HETATM    2  C   UNL     1     -11.043   5.995  70.729  1.00  0.00    -0.355 C  
HETATM    3  C   UNL     1     -11.153   6.220  69.449  1.00  0.00    -0.477 C  
ENDROOT
BRANCH   3   4
HETATM    4  C   UNL     1     -11.281   6.480  67.957  1.00  0.00    -0.148 C  
BRANCH   4   5
HETATM    5  N   UNL     1      -9.877   6.700  67.437  1.00  0.00    -0.125 NA 
HETATM    6  C   UNL     1      -9.065   5.761  66.751  1.00  0.00    -0.126 A  
HETATM    7  N   UNL     1      -7.961   6.336  66.315  1.00  0.00    -0.107 NA 
HETATM    8  N   UNL     1      -7.030   8.556  66.480  1.00  0.00    -0.074 N  
HETATM    9  C   UNL     1      -7.989   7.605  66.773  1.00  0.00    -0.111 A  
HETATM   10  O   UNL     1      -6.629  10.801  66.366  1.00  0.00    -0.109 OA 
HETATM   11  C   UNL     1      -9.108   7.880  67.514  1.00  0.00    -0.133 A  
HETATM   12  C   UNL     1      -5.886   8.226  65.650  1.00  0.00    -0.044 C  
HETATM   13  C   UNL     1      -9.254   9.166  68.149  1.00  0.00    -0.131 C  
HETATM   14  C   UNL     1      -7.233   9.861  66.894  1.00  0.00    -0.090 C  
HETATM   15  O   UNL     1     -10.243   9.464  68.810  1.00  0.00    -0.190 OA 
HETATM   16  N   UNL     1      -8.183  10.057  67.910  1.00  0.00    -0.113 N  
BRANCH   6  17
HETATM   17  N   UNL     1      -9.379   4.464  66.455  1.00  0.00    -0.145 NA 
HETATM   18  N   UNL     1      -6.794   3.618  64.782  1.00  0.00    -0.048 NA 
HETATM   19  C   UNL     1      -8.905   2.398  64.411  1.00  0.00    -0.104 C  
HETATM   20  C   UNL     1      -8.409   3.381  66.695  1.00  0.00    -0.101 C  
HETATM   21  C   UNL     1      -9.744   3.625  64.087  1.00  0.00    -0.172 C  
HETATM   22  C   UNL     1     -10.348   4.238  65.354  1.00  0.00    -0.197 C  
HETATM   23  C   UNL     1      -7.802   2.752  65.409  1.00  0.00    -0.081 C  
HETATM   24  H1  UNL     1      -6.058   3.855  65.448  1.00  0.00     0.000 HD 
HETATM   25  H2  UNL     1      -7.214   4.451  64.371  1.00  0.00     0.000 HD 
ENDBRANCH   6  17
BRANCH  16  26
HETATM   26  C   UNL     1      -8.191  11.421  68.496  1.00  0.00    -0.153 C  
BRANCH  26  27
HETATM   27  C   UNL     1      -8.996  12.510  67.748  1.00  0.00    -0.184 A  
HETATM   28  N   UNL     1     -10.166  12.149  67.163  1.00  0.00    -0.209 NA 
HETATM   29  C   UNL     1     -10.782  13.028  66.341  1.00  0.00    -0.282 A  
HETATM   30  C   UNL     1     -10.248  14.294  66.061  1.00  0.00    -0.327 A  
HETATM   31  C   UNL     1     -10.915  15.148  65.125  1.00  0.00    -0.428 A  
HETATM   32  C   UNL     1      -9.064  14.595  66.749  1.00  0.00    -0.264 A  
HETATM   33  C   UNL     1     -12.097  14.766  64.497  1.00  0.00    -0.460 A  
HETATM   34  C   UNL     1      -8.306  15.873  66.526  1.00  0.00    -0.330 C  
HETATM   35  N   UNL     1      -8.457  13.733  67.598  1.00  0.00    -0.169 NA 
HETATM   36  C   UNL     1     -12.641  13.529  64.800  1.00  0.00    -0.351 A  
HETATM   37  C   UNL     1     -11.983  12.686  65.710  1.00  0.00    -0.503 A  
ENDBRANCH  26  27
ENDBRANCH  16  26
ENDBRANCH   4   5
ENDBRANCH   3   4
TORSDOF 5
ENDMDL
MODEL       96
REMARK 921   NORMALIZED FREE ENERGY PREDICTED BY IDOCK:   -5.95 KCAL/MOL
REMARK 922        TOTAL FREE ENERGY PREDICTED BY IDOCK:   -8.20 KCAL/MOL
REMARK 923 INTER-LIGAND FREE ENERGY PREDICTED BY IDOCK:   -7.76 KCAL/MOL
REMARK 924 INTRA-LIGAND FREE ENERGY PREDICTED BY IDOCK:   -0.44 KCAL/MOL
REMARK 927      BINDING AFFINITY PREDICTED BY RF-SCORE:    0.00 PKD
ROOT
HETATM    1  C   UNL     1     -12.957  10.614  71.235  1.00  0.00    -0.513 C  
HETATM    2  C   UNL     1     -11.667   9.850  71.483  1.00  0.00    -0.414 C  
HETATM    3  C   UNL     1     -10.560   9.194  71.696  1.00  0.00    -0.427 C  
ENDROOT
BRANCH   3   4
HETATM    4  C   UNL     1      -9.269   8.430  71.944  1.00  0.00    -0.238 C  
BRANCH   4   5
HETATM    5  N   UNL     1      -8.992   7.635  70.687  1.00  0.00    -0.152 NA 
HETATM    6  C   UNL     1      -9.037   6.225  70.543  1.00  0.00    -0.154 A  
HETATM    7  N   UNL     1      -8.887   5.886  69.277  1.00  0.00    -0.118 NA 
HETATM    8  N   UNL     1      -8.506   7.105  67.231  1.00  0.00    -0.121 N  
HETATM    9  C   UNL     1      -8.659   7.031  68.601  1.00  0.00    -0.120 A  
HETATM   10  O   UNL     1      -8.642   8.502  65.430  1.00  0.00    -0.168 OA 
HETATM   11  C   UNL     1      -8.654   8.135  69.412  1.00  0.00    -0.135 A  
HETATM   12  C   UNL     1      -8.567   5.908  66.411  1.00  0.00    -0.127 C  
HETATM   13  C   UNL     1      -8.340   9.431  68.863  1.00  0.00    -0.120 C  
HETATM   14  C   UNL     1      -8.410   8.350  66.634  1.00  0.00    -0.110 C  
HETATM   15  O   UNL     1      -8.337  10.451  69.544  1.00  0.00    -0.162 OA 
HETATM   16  N   UNL     1      -8.077   9.425  67.474  1.00  0.00    -0.109 N  
BRANCH   6  17
HETATM   17  N   UNL     1      -9.307   5.306  71.518  1.00  0.00    -0.146 NA 
HETATM   18  N   UNL     1     -12.051   6.473  72.661  1.00  0.00    -0.503 NA 
HETATM   19  C   UNL     1     -10.661   5.052  74.121  1.00  0.00    -0.338 C  
HETATM   20  C   UNL     1     -10.636   4.677  71.613  1.00  0.00     0.026 C  
HETATM   21  C   UNL     1      -9.391   5.881  73.989  1.00  0.00    -0.135 C  
HETATM   22  C   UNL     1      -8.553   5.430  72.790  1.00  0.00    -0.119 C  
HETATM   23  C   UNL     1     -11.485   5.128  72.835  1.00  0.00    -0.254 C  
HETATM   24  H1  UNL     1     -12.601   6.524  71.804  1.00  0.00     0.000 HD 
HETATM   25  H2  UNL     1     -11.330   7.194  72.692  1.00  0.00     0.000 HD 
ENDBRANCH   6  17
BRANCH  16  26
HETATM   26  C   UNL     1      -7.740  10.684  66.765  1.00  0.00    -0.127 C  
BRANCH  26  27
HETATM   27  C   UNL     1      -8.779  11.830  66.819  1.00  0.00    -0.192 A  
HETATM   28  N   UNL     1      -8.589  12.820  67.727  1.00  0.00    -0.172 NA 
HETATM   29  C   UNL     1      -9.579  13.719  67.928  1.00  0.00    -0.222 A  
HETATM   30  C   UNL     1     -10.800  13.654  67.242  1.00  0.00    -0.292 A  
HETATM   31  C   UNL     1     -11.834  14.594  67.556  1.00  0.00    -0.375 A  
HETATM   32  C   UNL     1     -10.884  12.627  66.292  1.00  0.00    -0.273 A  
HETATM   33  C   UNL     1     -11.654  15.590  68.513  1.00  0.00    -0.379 A  
HETATM   34  C   UNL     1     -12.138  12.356  65.508  1.00  0.00    -0.417 C  
HETATM   35  N   UNL     1      -9.886  11.743  66.060  1.00  0.00    -0.226 NA 
HETATM   36  C   UNL     1     -10.435  15.672  69.166  1.00  0.00    -0.236 A  
HETATM   37  C   UNL     1      -9.424  14.745  68.866  1.00  0.00    -0.191 A  
ENDBRANCH  26  27
ENDBRANCH  16  26
ENDBRANCH   4   5
ENDBRANCH   3   4
TORSDOF 5
ENDMDL
MODEL       97
REMARK 921   NORMALIZED FREE ENERGY PREDICTED BY IDOCK:   -5.93 KCAL/MOL
REMARK 922        TOTAL FREE ENERGY PREDICTED BY IDOCK:   -8.16 KCAL/MOL
REMARK 923 INTER-LIGAND FREE ENERGY PREDICTED BY IDOCK:   -7.24 KCAL/MOL
REMARK 924 INTRA-LIGAND FREE ENERGY PREDICTED BY IDOCK:   -0.92 KCAL/MOL
REMARK 927      BINDING AFFINITY PREDICTED BY RF-SCORE:    0.00 PKD
ROOT
HETATM    1  C   UNL     1     -12.993   7.396  71.642  1.00  0.00    -0.409 C  
HETATM    2  C   UNL     1     -12.012   6.753  70.675  1.00  0.00    -0.418 C  
HETATM    3  C   UNL     1     -11.171   6.202  69.845  1.00  0.00    -0.484 C  
ENDROOT
BRANCH   3   4
HETATM    4  C   UNL     1     -10.190   5.559  68.878  1.00  0.00    -0.214 C  
BRANCH   4   5
HETATM    5  N   UNL     1      -9.015   6.505  68.765  1.00  0.00    -0.125 NA 
HETATM    6  C   UNL     1      -7.757   6.384  69.407  1.00  0.00    -0.101 A  
HETATM    7  N   UNL     1      -6.922   7.304  68.966  1.00  0.00    -0.075 NA 
HETATM    8  N   UNL     1      -7.089   9.129  67.396  1.00  0.00    -0.079 N  
HETATM    9  C   UNL     1      -7.627   8.080  68.116  1.00  0.00    -0.109 A  
HETATM   10  O   UNL     1      -7.372  10.436  65.546  1.00  0.00    -0.145 OA 
HETATM   11  C   UNL     1      -8.932   7.681  67.989  1.00  0.00    -0.126 A  
HETATM   12  C   UNL     1      -5.688   9.482  67.532  1.00  0.00    -0.041 C  
HETATM   13  C   UNL     1      -9.846   8.452  67.184  1.00  0.00    -0.215 C  
HETATM   14  C   UNL     1      -7.877   9.768  66.455  1.00  0.00    -0.106 C  
HETATM   15  O   UNL     1     -11.018   8.127  67.027  1.00  0.00    -0.159 OA 
HETATM   16  N   UNL     1      -9.264   9.582  66.566  1.00  0.00    -0.153 N  
BRANCH   6  17
HETATM   17  N   UNL     1      -7.370   5.405  70.280  1.00  0.00    -0.066 NA 
HETATM   18  N   UNL     1      -8.885   2.888  69.029  1.00  0.00    -0.086 NA 
HETATM   19  C   UNL     1      -8.291   2.852  71.422  1.00  0.00    -0.083 C  
HETATM   20  C   UNL     1      -6.831   4.126  69.788  1.00  0.00    -0.041 C  
HETATM   21  C   UNL     1      -8.992   4.155  71.780  1.00  0.00    -0.157 C  
HETATM   22  C   UNL     1      -8.063   5.358  71.591  1.00  0.00    -0.117 C  
HETATM   23  C   UNL     1      -7.769   2.903  69.986  1.00  0.00    -0.043 C  
HETATM   24  H1  UNL     1      -8.537   2.922  68.071  1.00  0.00     0.000 HD 
HETATM   25  H2  UNL     1      -9.553   3.636  69.215  1.00  0.00     0.000 HD 
ENDBRANCH   6  17
BRANCH  16  26
HETATM   26  C   UNL     1     -10.080  10.474  65.704  1.00  0.00    -0.268 C  
BRANCH  26  27
HETATM   27  C   UNL     1     -10.542  11.820  66.310  1.00  0.00    -0.252 A  
HETATM   28  N   UNL     1     -10.186  12.963  65.669  1.00  0.00    -0.283 NA 
HETATM   29  C   UNL     1     -10.405  14.148  66.281  1.00  0.00    -0.292 A  
HETATM   30  C   UNL     1     -10.972  14.238  67.560  1.00  0.00    -0.297 A  
HETATM   31  C   UNL     1     -11.108  15.522  68.180  1.00  0.00    -0.325 A  
HETATM   32  C   UNL     1     -11.350  13.010  68.121  1.00  0.00    -0.294 A  
HETATM   33  C   UNL     1     -10.712  16.692  67.539  1.00  0.00    -0.278 A  
HETATM   34  C   UNL     1     -11.909  12.898  69.511  1.00  0.00    -0.383 C  
HETATM   35  N   UNL     1     -11.165  11.821  67.502  1.00  0.00    -0.270 NA 
HETATM   36  C   UNL     1     -10.183  16.604  66.262  1.00  0.00    -0.344 A  
HETATM   37  C   UNL     1     -10.039  15.345  65.656  1.00  0.00    -0.406 A  
ENDBRANCH  26  27
ENDBRANCH  16  26
ENDBRANCH   4   5
ENDBRANCH   3   4
TORSDOF 5
ENDMDL
MODEL       98
REMARK 921   NORMALIZED FREE ENERGY PREDICTED BY IDOCK:   -5.91 KCAL/MOL
REMARK 922        TOTAL FREE ENERGY PREDICTED BY IDOCK:   -8.14 KCAL/MOL
REMARK 923 INTER-LIGAND FREE ENERGY PREDICTED BY IDOCK:   -6.88 KCAL/MOL
REMARK 924 INTRA-LIGAND FREE ENERGY PREDICTED BY IDOCK:   -1.26 KCAL/MOL
REMARK 927      BINDING AFFINITY PREDICTED BY RF-SCORE:    0.00 PKD
ROOT
HETATM    1  C   UNL     1     -12.970   9.922  71.397  1.00  0.00    -0.504 C  
HETATM    2  C   UNL     1     -11.572   9.384  71.661  1.00  0.00    -0.466 C  
HETATM    3  C   UNL     1     -10.374   8.923  71.888  1.00  0.00    -0.407 C  
ENDROOT
BRANCH   3   4
HETATM    4  C   UNL     1      -8.977   8.385  72.151  1.00  0.00    -0.223 C  
BRANCH   4   5
HETATM    5  N   UNL     1      -8.578   7.603  70.918  1.00  0.00    -0.128 NA 
HETATM    6  C   UNL     1      -8.563   6.194  70.769  1.00  0.00    -0.135 A  
HETATM    7  N   UNL     1      -8.305   5.864  69.518  1.00  0.00    -0.112 NA 
HETATM    8  N   UNL     1      -7.812   7.103  67.508  1.00  0.00    -0.111 N  
HETATM    9  C   UNL     1      -8.065   7.019  68.864  1.00  0.00    -0.121 A  
HETATM   10  O   UNL     1      -7.858   8.501  65.704  1.00  0.00    -0.095 OA 
HETATM   11  C   UNL     1      -8.161   8.120  69.673  1.00  0.00    -0.118 A  
HETATM   12  C   UNL     1      -7.768   5.908  66.685  1.00  0.00    -0.100 C  
HETATM   13  C   UNL     1      -7.851   9.428  69.151  1.00  0.00    -0.080 C  
HETATM   14  C   UNL     1      -7.713   8.353  66.922  1.00  0.00    -0.092 C  
HETATM   15  O   UNL     1      -7.935  10.445  69.832  1.00  0.00    -0.132 OA 
HETATM   16  N   UNL     1      -7.483   9.436  67.786  1.00  0.00    -0.087 N  
BRANCH   6  17
HETATM   17  N   UNL     1      -8.875   5.263  71.721  1.00  0.00    -0.134 NA 
HETATM   18  N   UNL     1      -6.227   3.479  71.666  1.00  0.00    -0.014 NA 
HETATM   19  C   UNL     1      -8.330   2.465  72.458  1.00  0.00    -0.059 C  
HETATM   20  C   UNL     1      -7.927   4.944  72.802  1.00  0.00    -0.098 C  
HETATM   21  C   UNL     1      -9.144   2.790  71.214  1.00  0.00    -0.179 C  
HETATM   22  C   UNL     1      -9.797   4.171  71.320  1.00  0.00    -0.179 C  
HETATM   23  C   UNL     1      -7.269   3.539  72.700  1.00  0.00    -0.049 C  
HETATM   24  H1  UNL     1      -5.519   4.195  71.826  1.00  0.00     0.000 HD 
HETATM   25  H2  UNL     1      -6.621   3.541  70.727  1.00  0.00     0.000 HD 
ENDBRANCH   6  17
BRANCH  16  26
HETATM   26  C   UNL     1      -7.136  10.709  67.106  1.00  0.00    -0.093 C  
BRANCH  26  27
HETATM   27  C   UNL     1      -8.251  11.776  66.986  1.00  0.00    -0.172 A  
HETATM   28  N   UNL     1      -9.431  11.405  66.429  1.00  0.00    -0.198 NA 
HETATM   29  C   UNL     1     -10.341  12.359  66.133  1.00  0.00    -0.247 A  
HETATM   30  C   UNL     1     -10.102  13.721  66.368  1.00  0.00    -0.297 A  
HETATM   31  C   UNL     1     -11.079  14.687  65.963  1.00  0.00    -0.332 A  
HETATM   32  C   UNL     1      -8.877  14.002  66.989  1.00  0.00    -0.219 A  
HETATM   33  C   UNL     1     -12.276  14.311  65.359  1.00  0.00    -0.408 A  
HETATM   34  C   UNL     1      -8.414  15.405  67.258  1.00  0.00    -0.214 C  
HETATM   35  N   UNL     1      -7.974  13.049  67.319  1.00  0.00    -0.164 NA 
HETATM   36  C   UNL     1     -12.524  12.963  65.158  1.00  0.00    -0.561 A  
HETATM   37  C   UNL     1     -11.563  12.015  65.545  1.00  0.00    -0.352 A  
ENDBRANCH  26  27
ENDBRANCH  16  26
ENDBRANCH   4   5
ENDBRANCH   3   4
TORSDOF 5
ENDMDL
MODEL       99
REMARK 921   NORMALIZED FREE ENERGY PREDICTED BY IDOCK:   -5.90 KCAL/MOL
REMARK 922        TOTAL FREE ENERGY PREDICTED BY IDOCK:   -8.12 KCAL/MOL
REMARK 923 INTER-LIGAND FREE ENERGY PREDICTED BY IDOCK:   -7.25 KCAL/MOL
REMARK 924 INTRA-LIGAND FREE ENERGY PREDICTED BY IDOCK:   -0.87 KCAL/MOL
REMARK 927      BINDING AFFINITY PREDICTED BY RF-SCORE:    0.00 PKD
ROOT
HETATM    1  C   UNL     1     -12.377  12.491  68.346  1.00  0.00     0.344 C  
HETATM    2  C   UNL     1     -11.254  13.195  67.600  1.00  0.00    -0.313 C  
HETATM    3  C   UNL     1     -10.291  13.798  66.961  1.00  0.00    -0.260 C  
ENDROOT
BRANCH   3   4
HETATM    4  C   UNL     1      -9.168  14.500  66.215  1.00  0.00    -0.198 C  
BRANCH   4   5
HETATM    5  N   UNL     1      -8.122  14.857  67.249  1.00  0.00    -0.196 NA 
HETATM    6  C   UNL     1      -7.680  16.156  67.601  1.00  0.00    -0.142 A  
HETATM    7  N   UNL     1      -6.870  16.102  68.641  1.00  0.00    -0.125 NA 
HETATM    8  N   UNL     1      -5.963  14.320  69.990  1.00  0.00    -0.130 N  
HETATM    9  C   UNL     1      -6.702  14.794  68.924  1.00  0.00    -0.098 A  
HETATM   10  O   UNL     1      -5.654  12.529  71.372  1.00  0.00    -0.381 OA 
HETATM   11  C   UNL     1      -7.396  13.972  68.075  1.00  0.00    -0.141 A  
HETATM   12  C   UNL     1      -5.284  15.236  70.888  1.00  0.00    -0.138 C  
HETATM   13  C   UNL     1      -7.260  12.542  68.184  1.00  0.00    -0.106 C  
HETATM   14  C   UNL     1      -5.972  12.963  70.259  1.00  0.00    -0.126 C  
HETATM   15  O   UNL     1      -7.871  11.765  67.458  1.00  0.00    -0.131 OA 
HETATM   16  N   UNL     1      -6.396  12.119  69.220  1.00  0.00    -0.095 N  
BRANCH   6  17
HETATM   17  N   UNL     1      -8.087  17.341  67.054  1.00  0.00    -0.201 NA 
HETATM   18  N   UNL     1      -7.214  19.369  69.360  1.00  0.00    -0.294 NA 
HETATM   19  C   UNL     1      -9.029  20.022  67.824  1.00  0.00    -0.396 C  
HETATM   20  C   UNL     1      -7.178  18.499  67.000  1.00  0.00    -0.203 C  
HETATM   21  C   UNL     1      -9.898  18.798  68.074  1.00  0.00    -0.386 C  
HETATM   22  C   UNL     1      -9.536  17.654  67.122  1.00  0.00    -0.267 C  
HETATM   23  C   UNL     1      -7.549  19.664  67.960  1.00  0.00    -0.299 C  
HETATM   24  H1  UNL     1      -6.226  19.130  69.451  1.00  0.00     0.000 HD 
HETATM   25  H2  UNL     1      -7.816  18.643  69.748  1.00  0.00     0.000 HD 
ENDBRANCH   6  17
BRANCH  16  26
HETATM   26  C   UNL     1      -6.156  10.673  69.459  1.00  0.00    -0.053 C  
BRANCH  26  27
HETATM   27  C   UNL     1      -7.258   9.883  70.204  1.00  0.00    -0.155 A  
HETATM   28  N   UNL     1      -8.545  10.066  69.816  1.00  0.00    -0.190 NA 
HETATM   29  C   UNL     1      -9.535   9.545  70.575  1.00  0.00    -0.246 A  
HETATM   30  C   UNL     1      -9.279   8.835  71.756  1.00  0.00    -0.332 A  
HETATM   31  C   UNL     1     -10.376   8.372  72.552  1.00  0.00    -0.371 A  
HETATM   32  C   UNL     1      -7.919   8.656  72.049  1.00  0.00    -0.054 A  
HETATM   33  C   UNL     1     -11.699   8.589  72.174  1.00  0.00    -0.448 A  
HETATM   34  C   UNL     1      -7.448   7.982  73.306  1.00  0.00    -0.179 C  
HETATM   35  N   UNL     1      -6.921   9.146  71.277  1.00  0.00    -0.214 NA 
HETATM   36  C   UNL     1     -11.950   9.262  70.990  1.00  0.00    -0.369 A  
HETATM   37  C   UNL     1     -10.874   9.725  70.213  1.00  0.00    -0.356 A  
ENDBRANCH  26  27
ENDBRANCH  16  26
ENDBRANCH   4   5
ENDBRANCH   3   4
TORSDOF 5
ENDMDL
MODEL      100
REMARK 921   NORMALIZED FREE ENERGY PREDICTED BY IDOCK:   -5.89 KCAL/MOL
REMARK 922        TOTAL FREE ENERGY PREDICTED BY IDOCK:   -8.11 KCAL/MOL
REMARK 923 INTER-LIGAND FREE ENERGY PREDICTED BY IDOCK:   -7.28 KCAL/MOL
REMARK 924 INTRA-LIGAND FREE ENERGY PREDICTED BY IDOCK:   -0.83 KCAL/MOL
REMARK 927      BINDING AFFINITY PREDICTED BY RF-SCORE:    0.00 PKD
ROOT
HETATM    1  C   UNL     1      -5.609  10.771  65.752  1.00  0.00    -0.145 C  
HETATM    2  C   UNL     1      -6.623   9.637  65.751  1.00  0.00    -0.081 C  
HETATM    3  C   UNL     1      -7.492   8.665  65.750  1.00  0.00    -0.085 C  
ENDROOT
BRANCH   3   4
HETATM    4  C   UNL     1      -8.505   7.533  65.748  1.00  0.00    -0.144 C  
BRANCH   4   5
HETATM    5  N   UNL     1      -8.820   7.235  67.198  1.00  0.00    -0.123 NA 
HETATM    6  C   UNL     1      -8.350   6.140  67.966  1.00  0.00    -0.117 A  
HETATM    7  N   UNL     1      -8.703   6.276  69.229  1.00  0.00    -0.123 NA 
HETATM    8  N   UNL     1      -9.986   7.905  70.463  1.00  0.00    -0.190 N  
HETATM    9  C   UNL     1      -9.466   7.387  69.292  1.00  0.00    -0.154 A  
HETATM   10  O   UNL     1     -10.795   9.801  71.444  1.00  0.00    -0.308 OA 
HETATM   11  C   UNL     1      -9.625   7.994  68.074  1.00  0.00    -0.152 A  
HETATM   12  C   UNL     1      -9.748   7.249  71.735  1.00  0.00    -0.153 C  
HETATM   13  C   UNL     1     -10.483   9.146  67.949  1.00  0.00    -0.237 C  
HETATM   14  C   UNL     1     -10.641   9.123  70.422  1.00  0.00    -0.230 C  
HETATM   15  O   UNL     1     -10.646   9.732  66.884  1.00  0.00    -0.227 OA 
HETATM   16  N   UNL     1     -11.081   9.558  69.162  1.00  0.00    -0.119 N  
BRANCH   6  17
HETATM   17  N   UNL     1      -7.546   5.120  67.538  1.00  0.00    -0.087 NA 
HETATM   18  N   UNL     1      -9.647   2.716  67.491  1.00  0.00    -0.387 NA 
HETATM   19  C   UNL     1      -7.248   2.197  67.732  1.00  0.00    -0.047 C  
HETATM   20  C   UNL     1      -7.962   4.249  66.425  1.00  0.00    -0.098 C  
HETATM   21  C   UNL     1      -7.015   3.079  68.950  1.00  0.00    -0.048 C  
HETATM   22  C   UNL     1      -6.642   4.507  68.542  1.00  0.00    -0.046 C  
HETATM   23  C   UNL     1      -8.333   2.797  66.837  1.00  0.00    -0.094 C  
HETATM   24  H1  UNL     1     -10.371   3.116  66.895  1.00  0.00     0.000 HD 
HETATM   25  H2  UNL     1      -9.637   3.148  68.415  1.00  0.00     0.000 HD 
ENDBRANCH   6  17
BRANCH  16  26
HETATM   26  C   UNL     1     -11.989  10.732  69.193  1.00  0.00    -0.230 C  
BRANCH  26  27
HETATM   27  C   UNL     1     -11.534  12.003  68.435  1.00  0.00    -0.301 A  
HETATM   28  N   UNL     1     -12.284  12.418  67.383  1.00  0.00    -0.384 NA 
HETATM   29  C   UNL     1     -11.803  13.400  66.587  1.00  0.00    -0.395 A  
HETATM   30  C   UNL     1     -10.551  13.993  66.803  1.00  0.00    -0.277 A  
HETATM   31  C   UNL     1     -10.070  14.977  65.880  1.00  0.00    -0.343 A  
HETATM   32  C   UNL     1      -9.873  13.533  67.941  1.00  0.00    -0.235 A  
HETATM   33  C   UNL     1     -10.822  15.379  64.779  1.00  0.00    -0.385 A  
HETATM   34  C   UNL     1      -8.490  13.999  68.297  1.00  0.00    -0.171 C  
HETATM   35  N   UNL     1     -10.361  12.574  68.761  1.00  0.00    -0.169 NA 
HETATM   36  C   UNL     1     -12.072  14.816  64.587  1.00  0.00    -0.437 A  
HETATM   37  C   UNL     1     -12.541  13.844  65.486  1.00  0.00    -0.560 A  
ENDBRANCH  26  27
ENDBRANCH  16  26
ENDBRANCH   4   5
ENDBRANCH   3   4
TORSDOF 5
ENDMDL
MODEL      101
REMARK 921   NORMALIZED FREE ENERGY PREDICTED BY IDOCK:   -5.88 KCAL/MOL
REMARK 922        TOTAL FREE ENERGY PREDICTED BY IDOCK:   -8.11 KCAL/MOL
REMARK 923 INTER-LIGAND FREE ENERGY PREDICTED BY IDOCK:   -7.30 KCAL/MOL
REMARK 924 INTRA-LIGAND FREE ENERGY PREDICTED BY IDOCK:   -0.81 KCAL/MOL
REMARK 927      BINDING AFFINITY PREDICTED BY RF-SCORE:    0.00 PKD
ROOT
HETATM    1  C   UNL     1      -9.984   9.036  66.210  1.00  0.00    -0.352 C  
HETATM    2  C   UNL     1     -10.097   7.613  66.735  1.00  0.00    -0.325 C  
HETATM    3  C   UNL     1     -10.194   6.394  67.186  1.00  0.00    -0.254 C  
ENDROOT
BRANCH   3   4
HETATM    4  C   UNL     1     -10.308   4.972  67.711  1.00  0.00    -0.053 C  
BRANCH   4   5
HETATM    5  N   UNL     1      -9.748   4.987  69.117  1.00  0.00    -0.158 NA 
HETATM    6  C   UNL     1      -8.650   4.235  69.605  1.00  0.00    -0.072 A  
HETATM    7  N   UNL     1      -8.346   4.607  70.834  1.00  0.00    -0.092 NA 
HETATM    8  N   UNL     1      -9.267   6.196  72.399  1.00  0.00    -0.140 N  
HETATM    9  C   UNL     1      -9.272   5.520  71.194  1.00  0.00    -0.149 A  
HETATM   10  O   UNL     1     -10.010   8.071  73.468  1.00  0.00    -0.244 OA 
HETATM   11  C   UNL     1     -10.195   5.759  70.210  1.00  0.00    -0.230 A  
HETATM   12  C   UNL     1      -8.238   5.938  73.390  1.00  0.00    -0.115 C  
HETATM   13  C   UNL     1     -11.303   6.646  70.461  1.00  0.00    -0.358 C  
HETATM   14  C   UNL     1     -10.190   7.206  72.603  1.00  0.00    -0.200 C  
HETATM   15  O   UNL     1     -12.146   6.903  69.608  1.00  0.00     0.036 OA 
HETATM   16  N   UNL     1     -11.308   7.217  71.754  1.00  0.00    -0.246 N  
BRANCH   6  17
HETATM   17  N   UNL     1      -7.901   3.326  68.911  1.00  0.00    -0.051 NA 
HETATM   18  N   UNL     1      -5.718   2.578  71.118  1.00  0.00    -0.012 NA 
HETATM   19  C   UNL     1      -5.160   2.266  68.736  1.00  0.00    -0.011 C  
HETATM   20  C   UNL     1      -7.564   2.020  69.503  1.00  0.00    -0.043 C  
HETATM   21  C   UNL     1      -5.463   3.696  68.312  1.00  0.00    -0.013 C  
HETATM   22  C   UNL     1      -6.934   3.862  67.922  1.00  0.00    -0.055 C  
HETATM   23  C   UNL     1      -6.068   1.847  69.892  1.00  0.00    -0.024 C  
HETATM   24  H1  UNL     1      -6.324   2.299  71.889  1.00  0.00     0.000 HD 
HETATM   25  H2  UNL     1      -5.731   3.588  70.973  1.00  0.00     0.000 HD 
ENDBRANCH   6  17
BRANCH  16  26
HETATM   26  C   UNL     1     -12.386   8.152  72.162  1.00  0.00    -0.338 C  
BRANCH  26  27
HETATM   27  C   UNL     1     -12.413   9.543  71.484  1.00  0.00    -0.376 A  
HETATM   28  N   UNL     1     -11.609   9.744  70.409  1.00  0.00    -0.264 NA 
HETATM   29  C   UNL     1     -11.467  10.999  69.927  1.00  0.00    -0.320 A  
HETATM   30  C   UNL     1     -12.109  12.102  70.507  1.00  0.00    -0.383 A  
HETATM   31  C   UNL     1     -11.858  13.414  69.991  1.00  0.00    -0.364 A  
HETATM   32  C   UNL     1     -12.956  11.789  71.580  1.00  0.00    -0.341 A  
HETATM   33  C   UNL     1     -11.005  13.626  68.911  1.00  0.00    -0.281 A  
HETATM   34  C   UNL     1     -13.675  12.844  72.372  1.00  0.00    -0.530 C  
HETATM   35  N   UNL     1     -13.130  10.531  72.049  1.00  0.00    -0.464 NA 
HETATM   36  C   UNL     1     -10.397  12.532  68.318  1.00  0.00    -0.241 A  
HETATM   37  C   UNL     1     -10.635  11.245  68.830  1.00  0.00    -0.234 A  
ENDBRANCH  26  27
ENDBRANCH  16  26
ENDBRANCH   4   5
ENDBRANCH   3   4
TORSDOF 5
ENDMDL
MODEL      102
REMARK 921   NORMALIZED FREE ENERGY PREDICTED BY IDOCK:   -5.88 KCAL/MOL
REMARK 922        TOTAL FREE ENERGY PREDICTED BY IDOCK:   -8.10 KCAL/MOL
REMARK 923 INTER-LIGAND FREE ENERGY PREDICTED BY IDOCK:   -7.54 KCAL/MOL
REMARK 924 INTRA-LIGAND FREE ENERGY PREDICTED BY IDOCK:   -0.56 KCAL/MOL
REMARK 927      BINDING AFFINITY PREDICTED BY RF-SCORE:    0.00 PKD
ROOT
HETATM    1  C   UNL     1     -10.869  15.634  69.888  1.00  0.00    -0.324 C  
HETATM    2  C   UNL     1      -9.924  14.944  68.917  1.00  0.00    -0.233 C  
HETATM    3  C   UNL     1      -9.113  14.353  68.085  1.00  0.00    -0.194 C  
ENDROOT
BRANCH   3   4
HETATM    4  C   UNL     1      -8.168  13.663  67.115  1.00  0.00    -0.107 C  
BRANCH   4   5
HETATM    5  N   UNL     1      -8.733  12.280  66.874  1.00  0.00    -0.201 NA 
HETATM    6  C   UNL     1      -9.566  11.874  65.802  1.00  0.00    -0.224 A  
HETATM    7  N   UNL     1      -9.747  10.568  65.826  1.00  0.00    -0.209 NA 
HETATM    8  N   UNL     1      -9.036   8.787  67.290  1.00  0.00    -0.131 N  
HETATM    9  C   UNL     1      -9.126  10.119  66.936  1.00  0.00    -0.142 A  
HETATM   10  O   UNL     1      -7.845   7.279  68.523  1.00  0.00    -0.117 OA 
HETATM   11  C   UNL     1      -8.531  11.122  67.656  1.00  0.00    -0.122 A  
HETATM   12  C   UNL     1      -9.644   7.758  66.467  1.00  0.00    -0.201 C  
HETATM   13  C   UNL     1      -7.896  10.827  68.915  1.00  0.00    -0.136 C  
HETATM   14  C   UNL     1      -8.259   8.435  68.380  1.00  0.00    -0.124 C  
HETATM   15  O   UNL     1      -7.338  11.687  69.588  1.00  0.00     0.081 OA 
HETATM   16  N   UNL     1      -7.940   9.463  69.282  1.00  0.00    -0.088 N  
BRANCH   6  17
HETATM   17  N   UNL     1     -10.049  12.659  64.792  1.00  0.00    -0.252 NA 
HETATM   18  N   UNL     1     -12.380  14.204  66.332  1.00  0.00    -0.467 NA 
HETATM   19  C   UNL     1     -12.528  13.962  63.883  1.00  0.00    -0.221 C  
HETATM   20  C   UNL     1     -10.254  14.104  64.993  1.00  0.00    -0.370 C  
HETATM   21  C   UNL     1     -12.402  12.446  63.864  1.00  0.00    -0.602 C  
HETATM   22  C   UNL     1     -10.936  12.009  63.796  1.00  0.00    -0.426 C  
HETATM   23  C   UNL     1     -11.742  14.550  65.054  1.00  0.00    -0.392 C  
HETATM   24  H1  UNL     1     -11.856  14.597  67.114  1.00  0.00     0.000 HD 
HETATM   25  H2  UNL     1     -12.510  13.197  66.431  1.00  0.00     0.000 HD 
ENDBRANCH   6  17
BRANCH  16  26
HETATM   26  C   UNL     1      -7.326   9.003  70.553  1.00  0.00    -0.086 C  
BRANCH  26  27
HETATM   27  C   UNL     1      -8.231   8.229  71.540  1.00  0.00    -0.132 A  
HETATM   28  N   UNL     1      -7.775   7.049  72.032  1.00  0.00    -0.092 NA 
HETATM   29  C   UNL     1      -8.622   6.263  72.733  1.00  0.00    -0.122 A  
HETATM   30  C   UNL     1      -9.960   6.618  72.957  1.00  0.00    -0.191 A  
HETATM   31  C   UNL     1     -10.824   5.706  73.646  1.00  0.00    -0.261 A  
HETATM   32  C   UNL     1     -10.326   7.874  72.453  1.00  0.00    -0.270 A  
HETATM   33  C   UNL     1     -10.366   4.480  74.121  1.00  0.00    -0.293 A  
HETATM   34  C   UNL     1     -11.732   8.396  72.534  1.00  0.00    -0.429 C  
HETATM   35  N   UNL     1      -9.475   8.682  71.778  1.00  0.00    -0.260 NA 
HETATM   36  C   UNL     1      -9.036   4.146  73.927  1.00  0.00    -0.093 A  
HETATM   37  C   UNL     1      -8.191   5.035  73.243  1.00  0.00    -0.107 A  
ENDBRANCH  26  27
ENDBRANCH  16  26
ENDBRANCH   4   5
ENDBRANCH   3   4
TORSDOF 5
ENDMDL
MODEL      103
REMARK 921   NORMALIZED FREE ENERGY PREDICTED BY IDOCK:   -5.87 KCAL/MOL
REMARK 922        TOTAL FREE ENERGY PREDICTED BY IDOCK:   -8.09 KCAL/MOL
REMARK 923 INTER-LIGAND FREE ENERGY PREDICTED BY IDOCK:   -7.23 KCAL/MOL
REMARK 924 INTRA-LIGAND FREE ENERGY PREDICTED BY IDOCK:   -0.86 KCAL/MOL
REMARK 927      BINDING AFFINITY PREDICTED BY RF-SCORE:    0.00 PKD
ROOT
HETATM    1  C   UNL     1     -12.767  10.508  70.765  1.00  0.00    -0.471 C  
HETATM    2  C   UNL     1     -12.294  11.323  69.571  1.00  0.00    -0.243 C  
HETATM    3  C   UNL     1     -11.889  12.022  68.547  1.00  0.00    -0.369 C  
ENDROOT
BRANCH   3   4
HETATM    4  C   UNL     1     -11.417  12.835  67.353  1.00  0.00    -0.340 C  
BRANCH   4   5
HETATM    5  N   UNL     1     -10.078  13.427  67.739  1.00  0.00    -0.227 NA 
HETATM    6  C   UNL     1      -9.723  14.799  67.746  1.00  0.00    -0.213 A  
HETATM    7  N   UNL     1      -8.527  14.964  68.278  1.00  0.00    -0.145 NA 
HETATM    8  N   UNL     1      -6.847  13.475  69.159  1.00  0.00    -0.104 N  
HETATM    9  C   UNL     1      -8.055  13.728  68.540  1.00  0.00    -0.128 A  
HETATM   10  O   UNL     1      -5.672  11.924  70.355  1.00  0.00    -0.140 OA 
HETATM   11  C   UNL     1      -8.931  12.737  68.184  1.00  0.00    -0.199 A  
HETATM   12  C   UNL     1      -5.975  14.565  69.561  1.00  0.00    -0.107 C  
HETATM   13  C   UNL     1      -8.548  11.354  68.318  1.00  0.00    -0.156 C  
HETATM   14  C   UNL     1      -6.528  12.172  69.498  1.00  0.00    -0.100 C  
HETATM   15  O   UNL     1      -9.301  10.431  68.026  1.00  0.00    -0.138 OA 
HETATM   16  N   UNL     1      -7.252  11.159  68.848  1.00  0.00    -0.098 N  
BRANCH   6  17
HETATM   17  N   UNL     1     -10.508  15.855  67.373  1.00  0.00    -0.300 NA 
HETATM   18  N   UNL     1      -8.279  17.889  66.331  1.00  0.00    -0.345 NA 
HETATM   19  C   UNL     1     -10.439  18.787  67.110  1.00  0.00    -0.484 C  
HETATM   20  C   UNL     1     -10.347  16.485  66.051  1.00  0.00    -0.345 C  
HETATM   21  C   UNL     1     -10.398  18.134  68.484  1.00  0.00    -0.352 C  
HETATM   22  C   UNL     1     -11.016  16.734  68.456  1.00  0.00    -0.312 C  
HETATM   23  C   UNL     1      -9.726  17.910  66.080  1.00  0.00    -0.129 C  
HETATM   24  H1  UNL     1      -7.802  17.304  65.644  1.00  0.00     0.000 HD 
HETATM   25  H2  UNL     1      -8.064  17.601  67.286  1.00  0.00     0.000 HD 
ENDBRANCH   6  17
BRANCH  16  26
HETATM   26  C   UNL     1      -6.716   9.789  69.047  1.00  0.00    -0.049 C  
BRANCH  26  27
HETATM   27  C   UNL     1      -7.576   8.803  69.873  1.00  0.00    -0.065 A  
HETATM   28  N   UNL     1      -7.707   9.032  71.204  1.00  0.00    -0.217 NA 
HETATM   29  C   UNL     1      -8.282   8.083  71.976  1.00  0.00    -0.137 A  
HETATM   30  C   UNL     1      -8.735   6.865  71.451  1.00  0.00    -0.126 A  
HETATM   31  C   UNL     1      -9.269   5.873  72.336  1.00  0.00    -0.146 A  
HETATM   32  C   UNL     1      -8.602   6.739  70.061  1.00  0.00    -0.141 A  
HETATM   33  C   UNL     1      -9.372   6.092  73.707  1.00  0.00    -0.136 A  
HETATM   34  C   UNL     1      -8.967   5.480  69.327  1.00  0.00    -0.125 C  
HETATM   35  N   UNL     1      -8.057   7.698  69.276  1.00  0.00    -0.126 NA 
HETATM   36  C   UNL     1      -8.954   7.309  74.219  1.00  0.00    -0.248 A  
HETATM   37  C   UNL     1      -8.421   8.279  73.354  1.00  0.00    -0.267 A  
ENDBRANCH  26  27
ENDBRANCH  16  26
ENDBRANCH   4   5
ENDBRANCH   3   4
TORSDOF 5
ENDMDL
MODEL      104
REMARK 921   NORMALIZED FREE ENERGY PREDICTED BY IDOCK:   -5.84 KCAL/MOL
REMARK 922        TOTAL FREE ENERGY PREDICTED BY IDOCK:   -8.06 KCAL/MOL
REMARK 923 INTER-LIGAND FREE ENERGY PREDICTED BY IDOCK:   -7.63 KCAL/MOL
REMARK 924 INTRA-LIGAND FREE ENERGY PREDICTED BY IDOCK:   -0.42 KCAL/MOL
REMARK 927      BINDING AFFINITY PREDICTED BY RF-SCORE:    0.00 PKD
ROOT
HETATM    1  C   UNL     1      -8.835   3.708  67.611  1.00  0.00    -0.143 C  
HETATM    2  C   UNL     1      -9.572   4.754  68.432  1.00  0.00    -0.210 C  
HETATM    3  C   UNL     1     -10.204   5.650  69.137  1.00  0.00    -0.305 C  
ENDROOT
BRANCH   3   4
HETATM    4  C   UNL     1     -10.941   6.695  69.959  1.00  0.00    -0.311 C  
BRANCH   4   5
HETATM    5  N   UNL     1     -10.012   7.884  70.074  1.00  0.00    -0.189 NA 
HETATM    6  C   UNL     1      -9.472   8.432  71.265  1.00  0.00    -0.186 A  
HETATM    7  N   UNL     1      -8.586   9.368  70.983  1.00  0.00    -0.289 NA 
HETATM    8  N   UNL     1      -7.759  10.356  68.943  1.00  0.00    -0.102 N  
HETATM    9  C   UNL     1      -8.596   9.507  69.641  1.00  0.00    -0.183 A  
HETATM   10  O   UNL     1      -6.816  10.756  66.902  1.00  0.00    -0.087 OA 
HETATM   11  C   UNL     1      -9.487   8.668  69.025  1.00  0.00    -0.153 A  
HETATM   12  C   UNL     1      -6.798  11.191  69.642  1.00  0.00    -0.117 C  
HETATM   13  C   UNL     1      -9.684   8.747  67.599  1.00  0.00    -0.169 C  
HETATM   14  C   UNL     1      -7.766  10.316  67.560  1.00  0.00    -0.094 C  
HETATM   15  O   UNL     1     -10.459   8.009  67.000  1.00  0.00    -0.316 OA 
HETATM   16  N   UNL     1      -8.883   9.718  66.955  1.00  0.00    -0.134 N  
BRANCH   6  17
HETATM   17  N   UNL     1      -9.711   8.015  72.545  1.00  0.00    -0.230 NA 
HETATM   18  N   UNL     1      -8.632   5.015  72.381  1.00  0.00    -0.123 NA 
HETATM   19  C   UNL     1     -10.314   5.584  74.092  1.00  0.00    -0.302 C  
HETATM   20  C   UNL     1      -8.658   7.345  73.328  1.00  0.00    -0.145 C  
HETATM   21  C   UNL     1     -11.339   6.156  73.124  1.00  0.00    -0.061 C  
HETATM   22  C   UNL     1     -11.108   7.652  72.887  1.00  0.00    -0.393 C  
HETATM   23  C   UNL     1      -8.896   5.829  73.576  1.00  0.00    -0.122 C  
HETATM   24  H1  UNL     1      -7.685   5.178  72.037  1.00  0.00     0.000 HD 
HETATM   25  H2  UNL     1      -9.331   5.171  71.655  1.00  0.00     0.000 HD 
ENDBRANCH   6  17
BRANCH  16  26
HETATM   26  C   UNL     1      -8.973   9.916  65.487  1.00  0.00    -0.174 C  
BRANCH  26  27
HETATM   27  C   UNL     1      -9.708  11.182  64.985  1.00  0.00    -0.253 A  
HETATM   28  N   UNL     1      -9.295  12.386  65.453  1.00  0.00     0.070 NA 
HETATM   29  C   UNL     1     -10.043  13.481  65.187  1.00  0.00    -0.256 A  
HETATM   30  C   UNL     1     -11.238  13.412  64.456  1.00  0.00    -0.393 A  
HETATM   31  C   UNL     1     -12.020  14.597  64.272  1.00  0.00    -0.406 A  
HETATM   32  C   UNL     1     -11.557  12.135  63.974  1.00  0.00    -0.423 A  
HETATM   33  C   UNL     1     -11.616  15.829  64.783  1.00  0.00    -0.173 A  
HETATM   34  C   UNL     1     -12.831  11.850  63.230  1.00  0.00    -0.303 C  
HETATM   35  N   UNL     1     -10.796  11.040  64.208  1.00  0.00    -0.299 NA 
HETATM   36  C   UNL     1     -10.419  15.901  65.476  1.00  0.00    -0.425 A  
HETATM   37  C   UNL     1      -9.656  14.737  65.665  1.00  0.00    -0.235 A  
ENDBRANCH  26  27
ENDBRANCH  16  26
ENDBRANCH   4   5
ENDBRANCH   3   4
TORSDOF 5
ENDMDL
MODEL      105
REMARK 921   NORMALIZED FREE ENERGY PREDICTED BY IDOCK:   -5.80 KCAL/MOL
REMARK 922        TOTAL FREE ENERGY PREDICTED BY IDOCK:   -8.00 KCAL/MOL
REMARK 923 INTER-LIGAND FREE ENERGY PREDICTED BY IDOCK:   -6.91 KCAL/MOL
REMARK 924 INTRA-LIGAND FREE ENERGY PREDICTED BY IDOCK:   -1.09 KCAL/MOL
REMARK 927      BINDING AFFINITY PREDICTED BY RF-SCORE:    0.00 PKD
ROOT
HETATM    1  C   UNL     1     -12.114  12.612  64.249  1.00  0.00    -0.502 C  
HETATM    2  C   UNL     1     -11.928  12.322  65.731  1.00  0.00    -0.362 C  
HETATM    3  C   UNL     1     -11.768  12.074  67.001  1.00  0.00    -0.341 C  
ENDROOT
BRANCH   3   4
HETATM    4  C   UNL     1     -11.582  11.785  68.481  1.00  0.00    -0.321 C  
BRANCH   4   5
HETATM    5  N   UNL     1     -10.196  11.196  68.633  1.00  0.00    -0.198 NA 
HETATM    6  C   UNL     1      -9.870   9.880  69.047  1.00  0.00    -0.190 A  
HETATM    7  N   UNL     1      -8.574   9.665  68.922  1.00  0.00    -0.122 NA 
HETATM    8  N   UNL     1      -6.695  11.006  68.222  1.00  0.00    -0.058 N  
HETATM    9  C   UNL     1      -8.032  10.833  68.521  1.00  0.00    -0.130 A  
HETATM   10  O   UNL     1      -5.211  12.307  67.074  1.00  0.00    -0.263 OA 
HETATM   11  C   UNL     1      -8.962  11.830  68.378  1.00  0.00    -0.168 A  
HETATM   12  C   UNL     1      -5.758   9.904  68.346  1.00  0.00    -0.042 C  
HETATM   13  C   UNL     1      -8.540  13.166  68.037  1.00  0.00    -0.182 C  
HETATM   14  C   UNL     1      -6.278  12.214  67.692  1.00  0.00    -0.110 C  
HETATM   15  O   UNL     1      -9.334  14.087  67.883  1.00  0.00    -0.193 OA 
HETATM   16  N   UNL     1      -7.145  13.306  67.859  1.00  0.00    -0.115 N  
BRANCH   6  17
HETATM   17  N   UNL     1     -10.741   8.895  69.421  1.00  0.00    -0.214 NA 
HETATM   18  N   UNL     1      -9.679   8.281  72.369  1.00  0.00    -0.275 NA 
HETATM   19  C   UNL     1     -10.916   6.524  71.158  1.00  0.00    -0.314 C  
HETATM   20  C   UNL     1     -11.445   8.963  70.713  1.00  0.00    -0.275 C  
HETATM   21  C   UNL     1     -10.019   6.516  69.929  1.00  0.00    -0.191 C  
HETATM   22  C   UNL     1     -10.491   7.534  68.887  1.00  0.00    -0.203 C  
HETATM   23  C   UNL     1     -10.973   7.925  71.769  1.00  0.00    -0.243 C  
HETATM   24  H1  UNL     1      -9.716   9.215  72.776  1.00  0.00     0.000 HD 
HETATM   25  H2  UNL     1      -8.914   8.190  71.700  1.00  0.00     0.000 HD 
ENDBRANCH   6  17
BRANCH  16  26
HETATM   26  C   UNL     1      -6.558  14.622  67.503  1.00  0.00    -0.087 C  
BRANCH  26  27
HETATM   27  C   UNL     1      -6.391  15.657  68.642  1.00  0.00    -0.103 A  
HETATM   28  N   UNL     1      -6.492  16.973  68.327  1.00  0.00    -0.148 NA 
HETATM   29  C   UNL     1      -6.154  17.894  69.257  1.00  0.00    -0.239 A  
HETATM   30  C   UNL     1      -5.691  17.536  70.531  1.00  0.00    -0.060 A  
HETATM   31  C   UNL     1      -5.281  18.561  71.444  1.00  0.00    -0.241 A  
HETATM   32  C   UNL     1      -5.667  16.157  70.780  1.00  0.00     0.094 A  
HETATM   33  C   UNL     1      -5.350  19.911  71.110  1.00  0.00    -0.309 A  
HETATM   34  C   UNL     1      -5.136  15.579  72.062  1.00  0.00     0.005 C  
HETATM   35  N   UNL     1      -6.034  15.229  69.866  1.00  0.00    -0.134 NA 
HETATM   36  C   UNL     1      -5.839  20.264  69.863  1.00  0.00    -0.381 A  
HETATM   37  C   UNL     1      -6.232  19.259  68.963  1.00  0.00    -0.291 A  
ENDBRANCH  26  27
ENDBRANCH  16  26
ENDBRANCH   4   5
ENDBRANCH   3   4
TORSDOF 5
ENDMDL
MODEL      106
REMARK 921   NORMALIZED FREE ENERGY PREDICTED BY IDOCK:   -5.80 KCAL/MOL
REMARK 922        TOTAL FREE ENERGY PREDICTED BY IDOCK:   -8.00 KCAL/MOL
REMARK 923 INTER-LIGAND FREE ENERGY PREDICTED BY IDOCK:   -7.15 KCAL/MOL
REMARK 924 INTRA-LIGAND FREE ENERGY PREDICTED BY IDOCK:   -0.85 KCAL/MOL
REMARK 927      BINDING AFFINITY PREDICTED BY RF-SCORE:    0.00 PKD
ROOT
HETATM    1  C   UNL     1      -6.606   5.780  66.164  1.00  0.00    -0.051 C  
HETATM    2  C   UNL     1      -6.907   5.741  67.654  1.00  0.00    -0.060 C  
HETATM    3  C   UNL     1      -7.165   5.709  68.932  1.00  0.00    -0.077 C  
ENDROOT
BRANCH   3   4
HETATM    4  C   UNL     1      -7.467   5.670  70.421  1.00  0.00    -0.080 C  
BRANCH   4   5
HETATM    5  N   UNL     1      -8.912   6.091  70.578  1.00  0.00    -0.144 NA 
HETATM    6  C   UNL     1      -9.994   5.282  71.006  1.00  0.00    -0.201 A  
HETATM    7  N   UNL     1     -11.081   6.011  71.168  1.00  0.00    -0.283 NA 
HETATM    8  N   UNL     1     -11.619   8.341  70.848  1.00  0.00    -0.277 N  
HETATM    9  C   UNL     1     -10.761   7.261  70.775  1.00  0.00    -0.231 A  
HETATM   10  O   UNL     1     -11.718  10.621  70.931  1.00  0.00    -0.328 OA 
HETATM   11  C   UNL     1      -9.463   7.370  70.348  1.00  0.00    -0.165 A  
HETATM   12  C   UNL     1     -12.971   8.182  71.352  1.00  0.00    -0.242 C  
HETATM   13  C   UNL     1      -8.982   8.619  69.813  1.00  0.00    -0.145 C  
HETATM   14  C   UNL     1     -11.137   9.601  70.541  1.00  0.00    -0.308 C  
HETATM   15  O   UNL     1      -7.826   8.769  69.432  1.00  0.00    -0.091 OA 
HETATM   16  N   UNL     1      -9.943   9.655  69.804  1.00  0.00    -0.212 N  
BRANCH   6  17
HETATM   17  N   UNL     1      -9.952   3.954  71.329  1.00  0.00    -0.156 NA 
HETATM   18  N   UNL     1      -7.206   3.848  72.955  1.00  0.00    -0.058 NA 
HETATM   19  C   UNL     1      -8.037   1.787  71.885  1.00  0.00    -0.045 C  
HETATM   20  C   UNL     1      -9.689   3.523  72.713  1.00  0.00    -0.136 C  
HETATM   21  C   UNL     1      -8.156   2.372  70.485  1.00  0.00    -0.054 C  
HETATM   22  C   UNL     1      -9.528   3.013  70.263  1.00  0.00    -0.140 C  
HETATM   23  C   UNL     1      -8.298   2.864  72.938  1.00  0.00    -0.075 C  
HETATM   24  H1  UNL     1      -7.380   4.567  73.658  1.00  0.00     0.000 HD 
HETATM   25  H2  UNL     1      -7.046   4.252  72.033  1.00  0.00     0.000 HD 
ENDBRANCH   6  17
BRANCH  16  26
HETATM   26  C   UNL     1      -9.595  11.001  69.285  1.00  0.00     0.016 C  
BRANCH  26  27
HETATM   27  C   UNL     1      -9.858  11.273  67.784  1.00  0.00    -0.173 A  
HETATM   28  N   UNL     1     -10.837  12.155  67.459  1.00  0.00    -0.234 NA 
HETATM   29  C   UNL     1     -11.218  12.259  66.166  1.00  0.00    -0.328 A  
HETATM   30  C   UNL     1     -10.647  11.477  65.152  1.00  0.00    -0.350 A  
HETATM   31  C   UNL     1     -11.148  11.584  63.815  1.00  0.00    -0.471 A  
HETATM   32  C   UNL     1      -9.613  10.632  65.577  1.00  0.00    -0.221 A  
HETATM   33  C   UNL     1     -12.176  12.463  63.485  1.00  0.00    -0.661 A  
HETATM   34  C   UNL     1      -8.928   9.668  64.649  1.00  0.00    -0.274 C  
HETATM   35  N   UNL     1      -9.203  10.545  66.864  1.00  0.00    -0.154 NA 
HETATM   36  C   UNL     1     -12.716  13.259  64.482  1.00  0.00    -0.229 A  
HETATM   37  C   UNL     1     -12.233  13.147  65.796  1.00  0.00    -0.514 A  
ENDBRANCH  26  27
ENDBRANCH  16  26
ENDBRANCH   4   5
ENDBRANCH   3   4
TORSDOF 5
ENDMDL
MODEL      107
REMARK 921   NORMALIZED FREE ENERGY PREDICTED BY IDOCK:   -5.79 KCAL/MOL
REMARK 922        TOTAL FREE ENERGY PREDICTED BY IDOCK:   -7.98 KCAL/MOL
REMARK 923 INTER-LIGAND FREE ENERGY PREDICTED BY IDOCK:   -6.91 KCAL/MOL
REMARK 924 INTRA-LIGAND FREE ENERGY PREDICTED BY IDOCK:   -1.07 KCAL/MOL
REMARK 927      BINDING AFFINITY PREDICTED BY RF-SCORE:    0.00 PKD
ROOT
HETATM    1  C   UNL     1      -8.271  15.432  66.560  1.00  0.00    -0.101 C  
HETATM    2  C   UNL     1      -9.621  14.774  66.800  1.00  0.00    -0.267 C  
HETATM    3  C   UNL     1     -10.779  14.211  67.006  1.00  0.00    -0.285 C  
ENDROOT
BRANCH   3   4
HETATM    4  C   UNL     1     -12.128  13.554  67.246  1.00  0.00    -0.323 C  
BRANCH   4   5
HETATM    5  N   UNL     1     -11.979  12.711  68.494  1.00  0.00    -0.278 NA 
HETATM    6  C   UNL     1     -12.362  13.064  69.813  1.00  0.00    -0.078 A  
HETATM    7  N   UNL     1     -12.223  12.035  70.626  1.00  0.00    -0.371 NA 
HETATM    8  N   UNL     1     -11.426   9.772  70.371  1.00  0.00    -0.269 N  
HETATM    9  C   UNL     1     -11.677  11.043  69.892  1.00  0.00    -0.346 A  
HETATM   10  O   UNL     1     -11.101   7.597  69.756  1.00  0.00    -0.212 OA 
HETATM   11  C   UNL     1     -11.449  11.407  68.590  1.00  0.00    -0.296 A  
HETATM   12  C   UNL     1     -11.730   9.424  71.747  1.00  0.00    -0.374 C  
HETATM   13  C   UNL     1     -10.792  10.492  67.691  1.00  0.00    -0.300 C  
HETATM   14  C   UNL     1     -10.989   8.799  69.490  1.00  0.00    -0.068 C  
HETATM   15  O   UNL     1     -10.579  10.765  66.514  1.00  0.00    -0.247 OA 
HETATM   16  N   UNL     1     -10.453   9.249  68.272  1.00  0.00    -0.217 N  
BRANCH   6  17
HETATM   17  N   UNL     1     -12.910  14.248  70.221  1.00  0.00    -0.250 NA 
HETATM   18  N   UNL     1     -10.796  15.121  72.449  1.00  0.00     0.041 NA 
HETATM   19  C   UNL     1     -13.097  15.998  72.582  1.00  0.00    -0.479 C  
HETATM   20  C   UNL     1     -12.087  15.466  70.318  1.00  0.00    -0.369 C  
HETATM   21  C   UNL     1     -13.786  14.641  72.571  1.00  0.00    -0.572 C  
HETATM   22  C   UNL     1     -14.072  14.173  71.141  1.00  0.00     0.050 C  
HETATM   23  C   UNL     1     -11.803  15.948  71.769  1.00  0.00    -0.497 C  
HETATM   24  H1  UNL     1      -9.932  15.087  71.907  1.00  0.00     0.000 HD 
HETATM   25  H2  UNL     1     -11.150  14.187  72.655  1.00  0.00     0.000 HD 
ENDBRANCH   6  17
BRANCH  16  26
HETATM   26  C   UNL     1      -9.773   8.202  67.470  1.00  0.00    -0.161 C  
BRANCH  26  27
HETATM   27  C   UNL     1      -8.503   7.557  68.075  1.00  0.00    -0.123 A  
HETATM   28  N   UNL     1      -8.435   6.202  68.119  1.00  0.00    -0.117 NA 
HETATM   29  C   UNL     1      -7.434   5.621  68.817  1.00  0.00    -0.084 A  
HETATM   30  C   UNL     1      -6.472   6.370  69.510  1.00  0.00    -0.043 A  
HETATM   31  C   UNL     1      -5.481   5.692  70.290  1.00  0.00    -0.009 A  
HETATM   32  C   UNL     1      -6.595   7.759  69.366  1.00  0.00    -0.039 A  
HETATM   33  C   UNL     1      -5.432   4.302  70.365  1.00  0.00    -0.012 A  
HETATM   34  C   UNL     1      -5.700   8.726  70.088  1.00  0.00    -0.030 C  
HETATM   35  N   UNL     1      -7.575   8.348  68.641  1.00  0.00    -0.100 NA 
HETATM   36  C   UNL     1      -6.363   3.564  69.654  1.00  0.00    -0.029 A  
HETATM   37  C   UNL     1      -7.341   4.228  68.896  1.00  0.00    -0.055 A  
ENDBRANCH  26  27
ENDBRANCH  16  26
ENDBRANCH   4   5
ENDBRANCH   3   4
TORSDOF 5
ENDMDL
MODEL      108
REMARK 921   NORMALIZED FREE ENERGY PREDICTED BY IDOCK:   -5.78 KCAL/MOL
REMARK 922        TOTAL FREE ENERGY PREDICTED BY IDOCK:   -7.97 KCAL/MOL
REMARK 923 INTER-LIGAND FREE ENERGY PREDICTED BY IDOCK:   -6.70 KCAL/MOL
REMARK 924 INTRA-LIGAND FREE ENERGY PREDICTED BY IDOCK:   -1.27 KCAL/MOL
REMARK 927      BINDING AFFINITY PREDICTED BY RF-SCORE:    0.00 PKD
ROOT
HETATM    1  C   UNL     1     -12.880  10.183  71.120  1.00  0.00    -0.494 C  
HETATM    2  C   UNL     1     -11.507   9.546  71.274  1.00  0.00    -0.447 C  
HETATM    3  C   UNL     1     -10.331   9.000  71.406  1.00  0.00    -0.396 C  
ENDROOT
BRANCH   3   4
HETATM    4  C   UNL     1      -8.959   8.364  71.560  1.00  0.00    -0.194 C  
BRANCH   4   5
HETATM    5  N   UNL     1      -8.615   7.755  70.218  1.00  0.00    -0.137 NA 
HETATM    6  C   UNL     1      -8.655   6.382  69.869  1.00  0.00    -0.138 A  
HETATM    7  N   UNL     1      -8.436   6.226  68.578  1.00  0.00    -0.115 NA 
HETATM    8  N   UNL     1      -7.939   7.724  66.753  1.00  0.00    -0.106 N  
HETATM    9  C   UNL     1      -8.167   7.454  68.089  1.00  0.00    -0.124 A  
HETATM   10  O   UNL     1      -7.971   9.368  65.169  1.00  0.00    -0.109 OA 
HETATM   11  C   UNL     1      -8.205   8.431  69.049  1.00  0.00    -0.118 A  
HETATM   12  C   UNL     1      -7.956   6.659  65.767  1.00  0.00    -0.112 C  
HETATM   13  C   UNL     1      -7.858   9.788  68.712  1.00  0.00    -0.082 C  
HETATM   14  C   UNL     1      -7.807   9.041  66.349  1.00  0.00    -0.099 C  
HETATM   15  O   UNL     1      -7.890  10.699  69.532  1.00  0.00    -0.144 OA 
HETATM   16  N   UNL     1      -7.518   9.980  67.353  1.00  0.00    -0.090 N  
BRANCH   6  17
HETATM   17  N   UNL     1      -8.981   5.334  70.686  1.00  0.00    -0.132 NA 
HETATM   18  N   UNL     1      -6.329   3.572  70.443  1.00  0.00    -0.026 NA 
HETATM   19  C   UNL     1      -8.443   2.464  71.062  1.00  0.00    -0.091 C  
HETATM   20  C   UNL     1      -8.050   4.877  71.732  1.00  0.00    -0.113 C  
HETATM   21  C   UNL     1      -9.237   2.949  69.857  1.00  0.00    -0.216 C  
HETATM   22  C   UNL     1      -9.894   4.305  70.131  1.00  0.00    -0.201 C  
HETATM   23  C   UNL     1      -7.389   3.497  71.459  1.00  0.00    -0.043 C  
HETATM   24  H1  UNL     1      -5.625   4.261  70.708  1.00  0.00     0.000 HD 
HETATM   25  H2  UNL     1      -6.708   3.756  69.514  1.00  0.00     0.000 HD 
ENDBRANCH   6  17
BRANCH  16  26
HETATM   26  C   UNL     1      -7.140  11.325  66.853  1.00  0.00    -0.139 C  
BRANCH  26  27
HETATM   27  C   UNL     1      -8.229  12.424  66.875  1.00  0.00    -0.089 A  
HETATM   28  N   UNL     1      -8.003  13.530  67.628  1.00  0.00    -0.161 NA 
HETATM   29  C   UNL     1      -9.015  14.405  67.821  1.00  0.00    -0.192 A  
HETATM   30  C   UNL     1     -10.294  14.202  67.282  1.00  0.00    -0.267 A  
HETATM   31  C   UNL     1     -11.340  15.131  67.586  1.00  0.00    -0.327 A  
HETATM   32  C   UNL     1     -10.417  13.059  66.480  1.00  0.00    -0.277 A  
HETATM   33  C   UNL     1     -11.120  16.248  68.388  1.00  0.00    -0.362 A  
HETATM   34  C   UNL     1     -11.726  12.638  65.874  1.00  0.00    -0.470 C  
HETATM   35  N   UNL     1      -9.400  12.195  66.255  1.00  0.00    -0.231 NA 
HETATM   36  C   UNL     1      -9.848  16.464  68.892  1.00  0.00    -0.260 A  
HETATM   37  C   UNL     1      -8.823  15.548  68.603  1.00  0.00    -0.193 A  
ENDBRANCH  26  27
ENDBRANCH  16  26
ENDBRANCH   4   5
ENDBRANCH   3   4
TORSDOF 5
ENDMDL
MODEL      109
REMARK 921   NORMALIZED FREE ENERGY PREDICTED BY IDOCK:   -5.73 KCAL/MOL
REMARK 922        TOTAL FREE ENERGY PREDICTED BY IDOCK:   -7.91 KCAL/MOL
REMARK 923 INTER-LIGAND FREE ENERGY PREDICTED BY IDOCK:   -7.52 KCAL/MOL
REMARK 924 INTRA-LIGAND FREE ENERGY PREDICTED BY IDOCK:   -0.38 KCAL/MOL
REMARK 927      BINDING AFFINITY PREDICTED BY RF-SCORE:    0.00 PKD
ROOT
HETATM    1  C   UNL     1      -5.957  10.711  68.503  1.00  0.00    -0.039 C  
HETATM    2  C   UNL     1      -7.315  10.030  68.572  1.00  0.00    -0.077 C  
HETATM    3  C   UNL     1      -8.479   9.447  68.631  1.00  0.00    -0.119 C  
ENDROOT
BRANCH   3   4
HETATM    4  C   UNL     1      -9.837   8.767  68.700  1.00  0.00    -0.168 C  
BRANCH   4   5
HETATM    5  N   UNL     1     -10.722   9.658  69.544  1.00  0.00    -0.224 NA 
HETATM    6  C   UNL     1     -11.394   9.304  70.741  1.00  0.00    -0.287 A  
HETATM    7  N   UNL     1     -11.953  10.367  71.288  1.00  0.00    -0.354 NA 
HETATM    8  N   UNL     1     -12.121  12.695  70.678  1.00  0.00    -0.315 N  
HETATM    9  C   UNL     1     -11.738  11.390  70.436  1.00  0.00    -0.268 A  
HETATM   10  O   UNL     1     -11.712  14.873  70.128  1.00  0.00    -0.260 OA 
HETATM   11  C   UNL     1     -11.038  11.015  69.319  1.00  0.00    -0.254 A  
HETATM   12  C   UNL     1     -12.820  13.049  71.900  1.00  0.00    -0.211 C  
HETATM   13  C   UNL     1     -10.796  11.969  68.266  1.00  0.00    -0.229 C  
HETATM   14  C   UNL     1     -11.728  13.683  69.793  1.00  0.00    -0.297 C  
HETATM   15  O   UNL     1     -10.162  11.685  67.254  1.00  0.00    -0.197 OA 
HETATM   16  N   UNL     1     -11.315  13.258  68.520  1.00  0.00    -0.264 N  
BRANCH   6  17
HETATM   17  N   UNL     1     -11.402   8.080  71.350  1.00  0.00    -0.251 NA 
HETATM   18  N   UNL     1      -8.320   7.290  71.088  1.00  0.00    -0.111 NA 
HETATM   19  C   UNL     1      -9.993   5.495  71.323  1.00  0.00    -0.249 C  
HETATM   20  C   UNL     1     -10.418   7.753  72.396  1.00  0.00    -0.263 C  
HETATM   21  C   UNL     1     -10.850   5.919  70.139  1.00  0.00    -0.402 C  
HETATM   22  C   UNL     1     -11.916   6.936  70.558  1.00  0.00    -0.305 C  
HETATM   23  C   UNL     1      -9.340   6.714  71.975  1.00  0.00    -0.142 C  
HETATM   24  H1  UNL     1      -7.883   8.104  71.522  1.00  0.00     0.000 HD 
HETATM   25  H2  UNL     1      -8.699   7.511  70.167  1.00  0.00     0.000 HD 
ENDBRANCH   6  17
BRANCH  16  26
HETATM   26  C   UNL     1     -11.144  14.349  67.528  1.00  0.00    -0.302 C  
BRANCH  26  27
HETATM   27  C   UNL     1      -9.800  15.117  67.541  1.00  0.00    -0.220 A  
HETATM   28  N   UNL     1      -8.776  14.595  68.262  1.00  0.00    -0.167 NA 
HETATM   29  C   UNL     1      -7.665  15.342  68.451  1.00  0.00    -0.120 A  
HETATM   30  C   UNL     1      -7.541  16.642  67.941  1.00  0.00    -0.169 A  
HETATM   31  C   UNL     1      -6.367  17.406  68.239  1.00  0.00    -0.170 A  
HETATM   32  C   UNL     1      -8.629  17.076  67.170  1.00  0.00    -0.202 A  
HETATM   33  C   UNL     1      -5.329  16.886  69.009  1.00  0.00    -0.135 A  
HETATM   34  C   UNL     1      -8.709  18.463  66.599  1.00  0.00    -0.295 C  
HETATM   35  N   UNL     1      -9.731  16.322  66.949  1.00  0.00    -0.232 NA 
HETATM   36  C   UNL     1      -5.439  15.590  69.484  1.00  0.00    -0.106 A  
HETATM   37  C   UNL     1      -6.595  14.843  69.200  1.00  0.00    -0.117 A  
ENDBRANCH  26  27
ENDBRANCH  16  26
ENDBRANCH   4   5
ENDBRANCH   3   4
TORSDOF 5
ENDMDL
MODEL      110
REMARK 921   NORMALIZED FREE ENERGY PREDICTED BY IDOCK:   -5.71 KCAL/MOL
REMARK 922        TOTAL FREE ENERGY PREDICTED BY IDOCK:   -7.88 KCAL/MOL
REMARK 923 INTER-LIGAND FREE ENERGY PREDICTED BY IDOCK:   -7.67 KCAL/MOL
REMARK 924 INTRA-LIGAND FREE ENERGY PREDICTED BY IDOCK:   -0.21 KCAL/MOL
REMARK 927      BINDING AFFINITY PREDICTED BY RF-SCORE:    0.00 PKD
ROOT
HETATM    1  C   UNL     1      -7.293   8.349  63.345  1.00  0.00    -0.104 C  
HETATM    2  C   UNL     1      -7.501   8.355  64.852  1.00  0.00    -0.091 C  
HETATM    3  C   UNL     1      -7.679   8.360  66.143  1.00  0.00    -0.097 C  
ENDROOT
BRANCH   3   4
HETATM    4  C   UNL     1      -7.887   8.365  67.649  1.00  0.00    -0.107 C  
BRANCH   4   5
HETATM    5  N   UNL     1      -9.048   9.296  67.919  1.00  0.00    -0.127 NA 
HETATM    6  C   UNL     1     -10.378   8.929  68.246  1.00  0.00    -0.206 A  
HETATM    7  N   UNL     1     -11.088   9.995  68.560  1.00  0.00    -0.203 NA 
HETATM    8  N   UNL     1     -10.640  12.364  68.638  1.00  0.00    -0.229 N  
HETATM    9  C   UNL     1     -10.282  11.059  68.363  1.00  0.00    -0.185 A  
HETATM   10  O   UNL     1      -9.823  14.448  69.091  1.00  0.00    -0.155 OA 
HETATM   11  C   UNL     1      -9.035  10.708  67.917  1.00  0.00    -0.138 A  
HETATM   12  C   UNL     1     -11.959  12.680  69.154  1.00  0.00    -0.243 C  
HETATM   13  C   UNL     1      -8.076  11.729  67.576  1.00  0.00    -0.152 C  
HETATM   14  C   UNL     1      -9.684  13.359  68.523  1.00  0.00    -0.156 C  
HETATM   15  O   UNL     1      -6.944  11.464  67.187  1.00  0.00    -0.108 OA 
HETATM   16  N   UNL     1      -8.543  13.049  67.766  1.00  0.00    -0.175 N  
BRANCH   6  17
HETATM   17  N   UNL     1     -10.880   7.662  68.348  1.00  0.00    -0.034 NA 
HETATM   18  N   UNL     1      -8.512   6.235  69.947  1.00  0.00    -0.128 NA 
HETATM   19  C   UNL     1     -10.007   4.857  68.551  1.00  0.00    -0.185 C  
HETATM   20  C   UNL     1     -10.901   6.962  69.645  1.00  0.00    -0.259 C  
HETATM   21  C   UNL     1      -9.793   5.640  67.265  1.00  0.00    -0.163 C  
HETATM   22  C   UNL     1     -10.787   6.799  67.145  1.00  0.00    -0.392 C  
HETATM   23  C   UNL     1      -9.898   5.780  69.765  1.00  0.00    -0.178 C  
HETATM   24  H1  UNL     1      -8.439   6.851  70.756  1.00  0.00     0.000 HD 
HETATM   25  H2  UNL     1      -8.144   6.674  69.102  1.00  0.00     0.000 HD 
ENDBRANCH   6  17
BRANCH  16  26
HETATM   26  C   UNL     1      -7.669  14.209  67.460  1.00  0.00    -0.185 C  
BRANCH  26  27
HETATM   27  C   UNL     1      -8.342  15.468  66.862  1.00  0.00    -0.255 A  
HETATM   28  N   UNL     1      -8.018  16.675  67.389  1.00  0.00    -0.158 NA 
HETATM   29  C   UNL     1      -8.736  17.761  67.022  1.00  0.00    -0.244 A  
HETATM   30  C   UNL     1      -9.812  17.680  66.127  1.00  0.00    -0.253 A  
HETATM   31  C   UNL     1     -10.575  18.856  65.837  1.00  0.00    -0.438 A  
HETATM   32  C   UNL     1     -10.039  16.402  65.599  1.00  0.00    -0.286 A  
HETATM   33  C   UNL     1     -10.266  20.090  66.405  1.00  0.00    -0.598 A  
HETATM   34  C   UNL     1     -11.189  16.104  64.679  1.00  0.00    -0.307 C  
HETATM   35  N   UNL     1      -9.305  15.315  65.936  1.00  0.00    -0.319 NA 
HETATM   36  C   UNL     1      -9.183  20.174  67.263  1.00  0.00    -0.504 A  
HETATM   37  C   UNL     1      -8.439  19.019  67.556  1.00  0.00    -0.307 A  
ENDBRANCH  26  27
ENDBRANCH  16  26
ENDBRANCH   4   5
ENDBRANCH   3   4
TORSDOF 5
ENDMDL
MODEL      111
REMARK 921   NORMALIZED FREE ENERGY PREDICTED BY IDOCK:   -5.70 KCAL/MOL
REMARK 922        TOTAL FREE ENERGY PREDICTED BY IDOCK:   -7.87 KCAL/MOL
REMARK 923 INTER-LIGAND FREE ENERGY PREDICTED BY IDOCK:   -7.48 KCAL/MOL
REMARK 924 INTRA-LIGAND FREE ENERGY PREDICTED BY IDOCK:   -0.39 KCAL/MOL
REMARK 927      BINDING AFFINITY PREDICTED BY RF-SCORE:    0.00 PKD
ROOT
HETATM    1  C   UNL     1      -9.459   8.870  66.396  1.00  0.00    -0.283 C  
HETATM    2  C   UNL     1      -9.790   7.453  66.838  1.00  0.00    -0.284 C  
HETATM    3  C   UNL     1     -10.074   6.239  67.219  1.00  0.00    -0.203 C  
ENDROOT
BRANCH   3   4
HETATM    4  C   UNL     1     -10.405   4.823  67.661  1.00  0.00     0.035 C  
BRANCH   4   5
HETATM    5  N   UNL     1     -10.073   4.744  69.135  1.00  0.00    -0.169 NA 
HETATM    6  C   UNL     1      -9.141   3.872  69.753  1.00  0.00    -0.120 A  
HETATM    7  N   UNL     1      -8.998   4.178  71.028  1.00  0.00    -0.104 NA 
HETATM    8  N   UNL     1      -9.992   5.812  72.499  1.00  0.00    -0.169 N  
HETATM    9  C   UNL     1      -9.876   5.171  71.281  1.00  0.00    -0.177 A  
HETATM   10  O   UNL     1     -10.708   7.725  73.519  1.00  0.00    -0.292 OA 
HETATM   11  C   UNL     1     -10.607   5.530  70.178  1.00  0.00    -0.297 A  
HETATM   12  C   UNL     1      -9.160   5.426  73.624  1.00  0.00    -0.124 C  
HETATM   13  C   UNL     1     -11.649   6.518  70.295  1.00  0.00    -0.409 C  
HETATM   14  C   UNL     1     -10.833   6.906  72.602  1.00  0.00    -0.257 C  
HETATM   15  O   UNL     1     -12.320   6.882  69.335  1.00  0.00     0.640 OA 
HETATM   16  N   UNL     1     -11.800   7.052  71.594  1.00  0.00    -0.294 N  
BRANCH   6  17
HETATM   17  N   UNL     1      -8.386   2.909  69.144  1.00  0.00    -0.058 NA 
HETATM   18  N   UNL     1      -7.236   4.564  66.668  1.00  0.00    -0.078 NA 
HETATM   19  C   UNL     1      -7.391   2.109  66.491  1.00  0.00    -0.061 C  
HETATM   20  C   UNL     1      -6.991   3.181  68.754  1.00  0.00    -0.048 C  
HETATM   21  C   UNL     1      -8.874   2.018  66.819  1.00  0.00    -0.139 C  
HETATM   22  C   UNL     1      -9.106   1.902  68.328  1.00  0.00    -0.163 C  
HETATM   23  C   UNL     1      -6.753   3.291  67.222  1.00  0.00    -0.045 C  
HETATM   24  H1  UNL     1      -6.811   5.353  67.155  1.00  0.00     0.000 HD 
HETATM   25  H2  UNL     1      -8.255   4.618  66.677  1.00  0.00     0.000 HD 
ENDBRANCH   6  17
BRANCH  16  26
HETATM   26  C   UNL     1     -12.832   8.082  71.871  1.00  0.00    -0.320 C  
BRANCH  26  27
HETATM   27  C   UNL     1     -12.489   9.548  71.511  1.00  0.00    -0.376 A  
HETATM   28  N   UNL     1     -13.216  10.534  72.093  1.00  0.00    -0.405 NA 
HETATM   29  C   UNL     1     -13.070  11.802  71.647  1.00  0.00    -0.338 A  
HETATM   30  C   UNL     1     -12.204  12.131  70.594  1.00  0.00    -0.392 A  
HETATM   31  C   UNL     1     -12.151  13.482  70.123  1.00  0.00    -0.425 A  
HETATM   32  C   UNL     1     -11.460  11.054  70.090  1.00  0.00    -0.296 A  
HETATM   33  C   UNL     1     -12.923  14.489  70.695  1.00  0.00    -0.358 A  
HETATM   34  C   UNL     1     -10.533  11.196  68.916  1.00  0.00    -0.233 C  
HETATM   35  N   UNL     1     -11.576   9.788  70.553  1.00  0.00    -0.281 NA 
HETATM   36  C   UNL     1     -13.753  14.169  71.756  1.00  0.00    -0.492 A  
HETATM   37  C   UNL     1     -13.814  12.842  72.214  1.00  0.00    -0.464 A  
ENDBRANCH  26  27
ENDBRANCH  16  26
ENDBRANCH   4   5
ENDBRANCH   3   4
TORSDOF 5
ENDMDL
MODEL      112
REMARK 921   NORMALIZED FREE ENERGY PREDICTED BY IDOCK:   -5.69 KCAL/MOL
REMARK 922        TOTAL FREE ENERGY PREDICTED BY IDOCK:   -7.85 KCAL/MOL
REMARK 923 INTER-LIGAND FREE ENERGY PREDICTED BY IDOCK:   -7.66 KCAL/MOL
REMARK 924 INTRA-LIGAND FREE ENERGY PREDICTED BY IDOCK:   -0.19 KCAL/MOL
REMARK 927      BINDING AFFINITY PREDICTED BY RF-SCORE:    0.00 PKD
ROOT
HETATM    1  C   UNL     1     -13.299  14.882  70.674  1.00  0.00    -0.253 C  
HETATM    2  C   UNL     1     -12.082  14.118  70.176  1.00  0.00    -0.411 C  
HETATM    3  C   UNL     1     -11.038  13.463  69.751  1.00  0.00     0.065 C  
ENDROOT
BRANCH   3   4
HETATM    4  C   UNL     1      -9.822  12.698  69.253  1.00  0.00     0.672 C  
BRANCH   4   5
HETATM    5  N   UNL     1     -10.106  12.330  67.813  1.00  0.00    -0.197 NA 
HETATM    6  C   UNL     1     -10.081  11.031  67.245  1.00  0.00    -0.189 A  
HETATM    7  N   UNL     1     -10.523  11.063  66.002  1.00  0.00    -0.256 NA 
HETATM    8  N   UNL     1     -11.281  12.807  64.519  1.00  0.00    -0.317 N  
HETATM    9  C   UNL     1     -10.753  12.360  65.714  1.00  0.00    -0.267 A  
HETATM   10  O   UNL     1     -12.390  14.535  63.520  1.00  0.00    -0.648 OA 
HETATM   11  C   UNL     1     -10.465  13.197  66.760  1.00  0.00    -0.261 A  
HETATM   12  C   UNL     1     -11.613  11.873  63.458  1.00  0.00    -0.441 C  
HETATM   13  C   UNL     1     -10.574  14.625  66.592  1.00  0.00    -0.289 C  
HETATM   14  C   UNL     1     -11.598  14.148  64.387  1.00  0.00    -0.362 C  
HETATM   15  O   UNL     1     -10.343  15.414  67.502  1.00  0.00    -0.255 OA 
HETATM   16  N   UNL     1     -11.007  15.027  65.308  1.00  0.00    -0.359 N  
BRANCH   6  17
HETATM   17  N   UNL     1      -9.765   9.861  67.878  1.00  0.00    -0.139 NA 
HETATM   18  N   UNL     1      -9.039   8.029  65.367  1.00  0.00    -0.396 NA 
HETATM   19  C   UNL     1      -9.777   6.947  67.457  1.00  0.00    -0.162 C  
HETATM   20  C   UNL     1      -8.518   9.145  67.560  1.00  0.00    -0.116 C  
HETATM   21  C   UNL     1     -11.086   7.715  67.580  1.00  0.00     0.092 C  
HETATM   22  C   UNL     1     -10.895   9.023  68.351  1.00  0.00    -0.011 C  
HETATM   23  C   UNL     1      -8.711   7.812  66.783  1.00  0.00    -0.135 C  
HETATM   24  H1  UNL     1      -8.328   8.606  64.917  1.00  0.00     0.000 HD 
HETATM   25  H2  UNL     1      -9.973   8.420  65.250  1.00  0.00     0.000 HD 
ENDBRANCH   6  17
BRANCH  16  26
HETATM   26  C   UNL     1     -11.170  16.466  64.983  1.00  0.00    -0.134 C  
BRANCH  26  27
HETATM   27  C   UNL     1     -10.207  17.463  65.672  1.00  0.00    -0.101 A  
HETATM   28  N   UNL     1      -8.876  17.203  65.620  1.00  0.00    -0.329 NA 
HETATM   29  C   UNL     1      -8.037  17.944  66.377  1.00  0.00    -0.261 A  
HETATM   30  C   UNL     1      -8.495  18.962  67.226  1.00  0.00    -0.293 A  
HETATM   31  C   UNL     1      -7.560  19.660  68.056  1.00  0.00    -0.334 A  
HETATM   32  C   UNL     1      -9.878  19.188  67.176  1.00  0.00    -0.338 A  
HETATM   33  C   UNL     1      -6.198  19.371  68.030  1.00  0.00    -0.231 A  
HETATM   34  C   UNL     1     -10.562  20.189  68.064  1.00  0.00    -0.287 C  
HETATM   35  N   UNL     1     -10.721  18.473  66.396  1.00  0.00    -0.291 NA 
HETATM   36  C   UNL     1      -5.743  18.389  67.166  1.00  0.00    -0.150 A  
HETATM   37  C   UNL     1      -6.661  17.696  66.359  1.00  0.00    -0.278 A  
ENDBRANCH  26  27
ENDBRANCH  16  26
ENDBRANCH   4   5
ENDBRANCH   3   4
TORSDOF 5
ENDMDL
MODEL      113
REMARK 921   NORMALIZED FREE ENERGY PREDICTED BY IDOCK:   -5.67 KCAL/MOL
REMARK 922        TOTAL FREE ENERGY PREDICTED BY IDOCK:   -7.83 KCAL/MOL
REMARK 923 INTER-LIGAND FREE ENERGY PREDICTED BY IDOCK:   -6.95 KCAL/MOL
REMARK 924 INTRA-LIGAND FREE ENERGY PREDICTED BY IDOCK:   -0.88 KCAL/MOL
REMARK 927      BINDING AFFINITY PREDICTED BY RF-SCORE:    0.00 PKD
ROOT
HETATM    1  C   UNL     1     -10.726  14.407  64.868  1.00  0.00    -0.444 C  
HETATM    2  C   UNL     1     -10.076  13.438  65.842  1.00  0.00    -0.300 C  
HETATM    3  C   UNL     1      -9.520  12.605  66.678  1.00  0.00    -0.244 C  
ENDROOT
BRANCH   3   4
HETATM    4  C   UNL     1      -8.870  11.636  67.651  1.00  0.00    -0.159 C  
BRANCH   4   5
HETATM    5  N   UNL     1      -9.254  10.245  67.194  1.00  0.00    -0.145 NA 
HETATM    6  C   UNL     1      -9.023   9.673  65.918  1.00  0.00    -0.167 A  
HETATM    7  N   UNL     1      -9.355   8.397  65.918  1.00  0.00    -0.177 NA 
HETATM    8  N   UNL     1     -10.297   6.892  67.551  1.00  0.00    -0.191 N  
HETATM    9  C   UNL     1      -9.879   8.140  67.134  1.00  0.00    -0.217 A  
HETATM   10  O   UNL     1     -10.719   5.602  69.387  1.00  0.00    -0.297 OA 
HETATM   11  C   UNL     1      -9.900   9.242  67.948  1.00  0.00    -0.167 A  
HETATM   12  C   UNL     1     -10.211   5.745  66.664  1.00  0.00    -0.212 C  
HETATM   13  C   UNL     1     -10.506   9.163  69.254  1.00  0.00    -0.221 C  
HETATM   14  C   UNL     1     -10.693   6.723  68.866  1.00  0.00    -0.240 C  
HETATM   15  O   UNL     1     -10.536  10.117  70.024  1.00  0.00    -0.264 OA 
HETATM   16  N   UNL     1     -11.022   7.888  69.577  1.00  0.00    -0.139 N  
BRANCH   6  17
HETATM   17  N   UNL     1      -8.437  10.276  64.840  1.00  0.00    -0.171 NA 
HETATM   18  N   UNL     1      -8.745   7.967  62.656  1.00  0.00    -0.410 NA 
HETATM   19  C   UNL     1      -6.950   9.636  62.380  1.00  0.00    -0.102 C  
HETATM   20  C   UNL     1      -9.111  10.297  63.530  1.00  0.00    -0.264 C  
HETATM   21  C   UNL     1      -6.315   9.414  63.745  1.00  0.00    -0.094 C  
HETATM   22  C   UNL     1      -6.954  10.311  64.810  1.00  0.00    -0.093 C  
HETATM   23  C   UNL     1      -8.458   9.393  62.446  1.00  0.00    -0.193 C  
HETATM   24  H1  UNL     1      -9.751   7.805  62.700  1.00  0.00     0.000 HD 
HETATM   25  H2  UNL     1      -8.267   7.602  63.479  1.00  0.00     0.000 HD 
ENDBRANCH   6  17
BRANCH  16  26
HETATM   26  C   UNL     1     -11.675   7.649  70.889  1.00  0.00    -0.271 C  
BRANCH  26  27
HETATM   27  C   UNL     1     -10.845   6.921  71.974  1.00  0.00    -0.225 A  
HETATM   28  N   UNL     1      -9.574   7.342  72.193  1.00  0.00    -0.145 NA 
HETATM   29  C   UNL     1      -8.769   6.601  72.987  1.00  0.00    -0.120 A  
HETATM   30  C   UNL     1      -9.198   5.405  73.580  1.00  0.00    -0.130 A  
HETATM   31  C   UNL     1      -8.272   4.630  74.350  1.00  0.00    -0.098 A  
HETATM   32  C   UNL     1     -10.538   5.077  73.335  1.00  0.00    -0.246 A  
HETATM   33  C   UNL     1      -6.956   5.043  74.548  1.00  0.00    -0.077 A  
HETATM   34  C   UNL     1     -11.158   3.799  73.826  1.00  0.00    -0.285 C  
HETATM   35  N   UNL     1     -11.361   5.830  72.568  1.00  0.00    -0.297 NA 
HETATM   36  C   UNL     1      -6.545   6.241  73.990  1.00  0.00    -0.071 A  
HETATM   37  C   UNL     1      -7.449   6.997  73.225  1.00  0.00    -0.077 A  
ENDBRANCH  26  27
ENDBRANCH  16  26
ENDBRANCH   4   5
ENDBRANCH   3   4
TORSDOF 5
ENDMDL
MODEL      114
REMARK 921   NORMALIZED FREE ENERGY PREDICTED BY IDOCK:   -5.67 KCAL/MOL
REMARK 922        TOTAL FREE ENERGY PREDICTED BY IDOCK:   -7.82 KCAL/MOL
REMARK 923 INTER-LIGAND FREE ENERGY PREDICTED BY IDOCK:   -7.58 KCAL/MOL
REMARK 924 INTRA-LIGAND FREE ENERGY PREDICTED BY IDOCK:   -0.24 KCAL/MOL
REMARK 927      BINDING AFFINITY PREDICTED BY RF-SCORE:    0.00 PKD
ROOT
HETATM    1  C   UNL     1      -5.326  13.625  68.160  1.00  0.00    -0.109 C  
HETATM    2  C   UNL     1      -6.516  12.744  67.816  1.00  0.00    -0.136 C  
HETATM    3  C   UNL     1      -7.537  11.988  67.521  1.00  0.00    -0.147 C  
ENDROOT
BRANCH   3   4
HETATM    4  C   UNL     1      -8.728  11.108  67.178  1.00  0.00    -0.141 C  
BRANCH   4   5
HETATM    5  N   UNL     1      -9.896  11.629  67.988  1.00  0.00    -0.184 NA 
HETATM    6  C   UNL     1     -10.615  10.933  68.991  1.00  0.00    -0.216 A  
HETATM    7  N   UNL     1     -11.470  11.741  69.590  1.00  0.00    -0.281 NA 
HETATM    8  N   UNL     1     -12.092  14.055  69.313  1.00  0.00    -0.347 N  
HETATM    9  C   UNL     1     -11.390  12.923  68.946  1.00  0.00    -0.288 A  
HETATM   10  O   UNL     1     -12.131  16.333  69.167  1.00  0.00    -0.143 OA 
HETATM   11  C   UNL     1     -10.485  12.909  67.917  1.00  0.00    -0.224 A  
HETATM   12  C   UNL     1     -13.004  14.029  70.442  1.00  0.00    -0.065 C  
HETATM   13  C   UNL     1     -10.337  14.067  67.071  1.00  0.00    -0.267 C  
HETATM   14  C   UNL     1     -11.828  15.247  68.661  1.00  0.00    -0.305 C  
HETATM   15  O   UNL     1      -9.531  14.109  66.148  1.00  0.00    -0.272 OA 
HETATM   16  N   UNL     1     -11.169  15.154  67.425  1.00  0.00    -0.327 N  
BRANCH   6  17
HETATM   17  N   UNL     1     -10.418   9.645  69.402  1.00  0.00    -0.209 NA 
HETATM   18  N   UNL     1      -7.569   9.924  70.816  1.00  0.00    -0.382 NA 
HETATM   19  C   UNL     1      -8.262   7.718  69.959  1.00  0.00    -0.121 C  
HETATM   20  C   UNL     1     -10.017   9.348  70.788  1.00  0.00    -0.289 C  
HETATM   21  C   UNL     1      -8.536   8.179  68.535  1.00  0.00    -0.130 C  
HETATM   22  C   UNL     1      -9.978   8.668  68.375  1.00  0.00    -0.184 C  
HETATM   23  C   UNL     1      -8.556   8.843  70.951  1.00  0.00    -0.199 C  
HETATM   24  H1  UNL     1      -7.764  10.675  71.478  1.00  0.00     0.000 HD 
HETATM   25  H2  UNL     1      -7.514  10.269  69.858  1.00  0.00     0.000 HD 
ENDBRANCH   6  17
BRANCH  16  26
HETATM   26  C   UNL     1     -11.129  16.418  66.647  1.00  0.00     0.156 C  
BRANCH  26  27
HETATM   27  C   UNL     1     -10.088  17.481  67.073  1.00  0.00    -0.323 A  
HETATM   28  N   UNL     1      -8.787  17.262  66.755  1.00  0.00    -0.237 NA 
HETATM   29  C   UNL     1      -7.842  18.070  67.286  1.00  0.00    -0.214 A  
HETATM   30  C   UNL     1      -8.157  19.116  68.164  1.00  0.00    -0.351 A  
HETATM   31  C   UNL     1      -7.101  19.888  68.747  1.00  0.00    -0.332 A  
HETATM   32  C   UNL     1      -9.528  19.294  68.394  1.00  0.00    -0.376 A  
HETATM   33  C   UNL     1      -5.763  19.642  68.449  1.00  0.00    -0.235 A  
HETATM   34  C   UNL     1     -10.056  20.318  69.359  1.00  0.00     0.033 C  
HETATM   35  N   UNL     1     -10.484  18.511  67.842  1.00  0.00    -0.394 NA 
HETATM   36  C   UNL     1      -5.455  18.630  67.556  1.00  0.00    -0.147 A  
HETATM   37  C   UNL     1      -6.490  17.866  66.991  1.00  0.00    -0.194 A  
ENDBRANCH  26  27
ENDBRANCH  16  26
ENDBRANCH   4   5
ENDBRANCH   3   4
TORSDOF 5
ENDMDL
MODEL      115
REMARK 921   NORMALIZED FREE ENERGY PREDICTED BY IDOCK:   -5.61 KCAL/MOL
REMARK 922        TOTAL FREE ENERGY PREDICTED BY IDOCK:   -7.75 KCAL/MOL
REMARK 923 INTER-LIGAND FREE ENERGY PREDICTED BY IDOCK:   -6.29 KCAL/MOL
REMARK 924 INTRA-LIGAND FREE ENERGY PREDICTED BY IDOCK:   -1.46 KCAL/MOL
REMARK 927      BINDING AFFINITY PREDICTED BY RF-SCORE:    0.00 PKD
ROOT
HETATM    1  C   UNL     1     -12.872   6.564  71.653  1.00  0.00    -0.106 C  
HETATM    2  C   UNL     1     -11.830   6.479  70.549  1.00  0.00    -0.393 C  
HETATM    3  C   UNL     1     -10.937   6.406  69.601  1.00  0.00    -0.420 C  
ENDROOT
BRANCH   3   4
HETATM    4  C   UNL     1      -9.896   6.320  68.498  1.00  0.00    -0.139 C  
BRANCH   4   5
HETATM    5  N   UNL     1      -8.867   7.390  68.793  1.00  0.00    -0.131 NA 
HETATM    6  C   UNL     1      -7.821   7.327  69.747  1.00  0.00    -0.117 A  
HETATM    7  N   UNL     1      -7.027   8.374  69.632  1.00  0.00    -0.047 NA 
HETATM    8  N   UNL     1      -7.009  10.339  68.233  1.00  0.00    -0.073 N  
HETATM    9  C   UNL     1      -7.576   9.164  68.687  1.00  0.00    -0.084 A  
HETATM   10  O   UNL     1      -6.959  11.814  66.491  1.00  0.00    -0.036 OA 
HETATM   11  C   UNL     1      -8.736   8.650  68.170  1.00  0.00    -0.142 A  
HETATM   12  C   UNL     1      -5.753  10.818  68.781  1.00  0.00    -0.040 C  
HETATM   13  C   UNL     1      -9.497   9.409  67.209  1.00  0.00    -0.133 C  
HETATM   14  C   UNL     1      -7.595  10.997  67.166  1.00  0.00    -0.117 C  
HETATM   15  O   UNL     1     -10.532   8.984  66.707  1.00  0.00    -0.257 OA 
HETATM   16  N   UNL     1      -8.925  10.657  66.872  1.00  0.00    -0.137 N  
BRANCH   6  17
HETATM   17  N   UNL     1      -7.555   6.300  70.610  1.00  0.00    -0.094 NA 
HETATM   18  N   UNL     1      -5.701   7.801  72.732  1.00  0.00    -0.040 NA 
HETATM   19  C   UNL     1      -5.492   5.356  72.488  1.00  0.00    -0.018 C  
HETATM   20  C   UNL     1      -7.729   6.473  72.063  1.00  0.00    -0.098 C  
HETATM   21  C   UNL     1      -5.225   5.368  70.990  1.00  0.00    -0.005 C  
HETATM   22  C   UNL     1      -6.530   5.314  70.190  1.00  0.00    -0.034 C  
HETATM   23  C   UNL     1      -6.405   6.520  72.877  1.00  0.00    -0.059 C  
HETATM   24  H1  UNL     1      -6.309   8.578  72.992  1.00  0.00     0.000 HD 
HETATM   25  H2  UNL     1      -5.317   7.919  71.794  1.00  0.00     0.000 HD 
ENDBRANCH   6  17
BRANCH  16  26
HETATM   26  C   UNL     1      -9.592  11.552  65.893  1.00  0.00    -0.230 C  
BRANCH  26  27
HETATM   27  C   UNL     1     -10.165  12.887  66.427  1.00  0.00    -0.267 A  
HETATM   28  N   UNL     1      -9.726  14.039  65.861  1.00  0.00    -0.263 NA 
HETATM   29  C   UNL     1     -10.057  15.216  66.438  1.00  0.00    -0.273 A  
HETATM   30  C   UNL     1     -10.825  15.286  67.609  1.00  0.00    -0.295 A  
HETATM   31  C   UNL     1     -11.078  16.562  68.208  1.00  0.00    -0.321 A  
HETATM   32  C   UNL     1     -11.272  14.049  68.092  1.00  0.00    -0.275 A  
HETATM   33  C   UNL     1     -10.600  17.744  67.648  1.00  0.00    -0.385 A  
HETATM   34  C   UNL     1     -12.047  13.916  69.372  1.00  0.00    -0.384 C  
HETATM   35  N   UNL     1     -10.972  12.868  67.502  1.00  0.00    -0.249 NA 
HETATM   36  C   UNL     1      -9.870  17.675  66.474  1.00  0.00    -0.323 A  
HETATM   37  C   UNL     1      -9.612  16.424  65.890  1.00  0.00    -0.309 A  
ENDBRANCH  26  27
ENDBRANCH  16  26
ENDBRANCH   4   5
ENDBRANCH   3   4
TORSDOF 5
ENDMDL
MODEL      116
REMARK 921   NORMALIZED FREE ENERGY PREDICTED BY IDOCK:   -5.58 KCAL/MOL
REMARK 922        TOTAL FREE ENERGY PREDICTED BY IDOCK:   -7.72 KCAL/MOL
REMARK 923 INTER-LIGAND FREE ENERGY PREDICTED BY IDOCK:   -7.33 KCAL/MOL
REMARK 924 INTRA-LIGAND FREE ENERGY PREDICTED BY IDOCK:   -0.39 KCAL/MOL
REMARK 927      BINDING AFFINITY PREDICTED BY RF-SCORE:    0.00 PKD
ROOT
HETATM    1  C   UNL     1     -12.172  11.143  70.521  1.00  0.00    -0.475 C  
HETATM    2  C   UNL     1     -11.097  11.530  69.518  1.00  0.00    -0.256 C  
HETATM    3  C   UNL     1     -10.175  11.862  68.657  1.00  0.00    -0.202 C  
ENDROOT
BRANCH   3   4
HETATM    4  C   UNL     1      -9.102  12.249  67.653  1.00  0.00    -0.184 C  
BRANCH   4   5
HETATM    5  N   UNL     1      -8.998  11.102  66.671  1.00  0.00    -0.164 NA 
HETATM    6  C   UNL     1      -9.379  11.111  65.306  1.00  0.00    -0.219 A  
HETATM    7  N   UNL     1      -9.012   9.990  64.716  1.00  0.00    -0.193 NA 
HETATM    8  N   UNL     1      -7.920   7.969  65.453  1.00  0.00    -0.113 N  
HETATM    9  C   UNL     1      -8.478   9.212  65.680  1.00  0.00    -0.139 A  
HETATM   10  O   UNL     1      -6.467   6.416  66.284  1.00  0.00    -0.040 OA 
HETATM   11  C   UNL     1      -8.489   9.808  66.914  1.00  0.00    -0.120 A  
HETATM   12  C   UNL     1      -7.891   7.401  64.117  1.00  0.00    -0.120 C  
HETATM   13  C   UNL     1      -8.033   9.080  68.071  1.00  0.00    -0.101 C  
HETATM   14  C   UNL     1      -7.283   7.320  66.496  1.00  0.00    -0.079 C  
HETATM   15  O   UNL     1      -8.009   9.575  69.193  1.00  0.00    -0.086 OA 
HETATM   16  N   UNL     1      -7.583   7.769  67.792  1.00  0.00    -0.110 N  
BRANCH   6  17
HETATM   17  N   UNL     1      -9.945  12.147  64.617  1.00  0.00    -0.238 NA 
HETATM   18  N   UNL     1     -12.535  12.681  66.407  1.00  0.00    -0.336 NA 
HETATM   19  C   UNL     1     -12.566  13.358  64.036  1.00  0.00    -0.192 C  
HETATM   20  C   UNL     1     -10.376  13.371  65.315  1.00  0.00    -0.319 C  
HETATM   21  C   UNL     1     -12.206  11.991  63.474  1.00  0.00    -0.653 C  
HETATM   22  C   UNL     1     -10.689  11.808  63.378  1.00  0.00    -0.402 C  
HETATM   23  C   UNL     1     -11.917  13.561  65.406  1.00  0.00    -0.379 C  
HETATM   24  H1  UNL     1     -12.102  12.815  67.321  1.00  0.00     0.000 HD 
HETATM   25  H2  UNL     1     -12.510  11.703  66.118  1.00  0.00     0.000 HD 
ENDBRANCH   6  17
BRANCH  16  26
HETATM   26  C   UNL     1      -7.081   6.896  68.882  1.00  0.00    -0.089 C  
BRANCH  26  27
HETATM   27  C   UNL     1      -8.132   6.253  69.818  1.00  0.00    -0.120 A  
HETATM   28  N   UNL     1      -8.514   6.947  70.919  1.00  0.00    -0.134 NA 
HETATM   29  C   UNL     1      -9.274   6.327  71.850  1.00  0.00    -0.146 A  
HETATM   30  C   UNL     1      -9.668   4.987  71.723  1.00  0.00    -0.218 A  
HETATM   31  C   UNL     1     -10.412   4.370  72.780  1.00  0.00    -0.253 A  
HETATM   32  C   UNL     1      -9.267   4.369  70.531  1.00  0.00    -0.125 A  
HETATM   33  C   UNL     1     -10.775   5.071  73.928  1.00  0.00    -0.356 A  
HETATM   34  C   UNL     1      -9.535   2.918  70.247  1.00  0.00    -0.200 C  
HETATM   35  N   UNL     1      -8.534   4.992  69.579  1.00  0.00    -0.088 NA 
HETATM   36  C   UNL     1     -10.413   6.403  74.036  1.00  0.00    -0.286 A  
HETATM   37  C   UNL     1      -9.675   7.007  73.004  1.00  0.00    -0.198 A  
ENDBRANCH  26  27
ENDBRANCH  16  26
ENDBRANCH   4   5
ENDBRANCH   3   4
TORSDOF 5
ENDMDL
MODEL      117
REMARK 921   NORMALIZED FREE ENERGY PREDICTED BY IDOCK:   -5.57 KCAL/MOL
REMARK 922        TOTAL FREE ENERGY PREDICTED BY IDOCK:   -7.70 KCAL/MOL
REMARK 923 INTER-LIGAND FREE ENERGY PREDICTED BY IDOCK:   -6.66 KCAL/MOL
REMARK 924 INTRA-LIGAND FREE ENERGY PREDICTED BY IDOCK:   -1.04 KCAL/MOL
REMARK 927      BINDING AFFINITY PREDICTED BY RF-SCORE:    0.00 PKD
ROOT
HETATM    1  C   UNL     1     -10.920   5.722  71.450  1.00  0.00    -0.304 C  
HETATM    2  C   UNL     1     -11.020   6.069  69.973  1.00  0.00    -0.450 C  
HETATM    3  C   UNL     1     -11.107   6.368  68.706  1.00  0.00    -0.404 C  
ENDROOT
BRANCH   3   4
HETATM    4  C   UNL     1     -11.206   6.716  67.230  1.00  0.00    -0.228 C  
BRANCH   4   5
HETATM    5  N   UNL     1      -9.793   6.976  66.754  1.00  0.00    -0.187 NA 
HETATM    6  C   UNL     1      -8.974   6.100  65.998  1.00  0.00    -0.145 A  
HETATM    7  N   UNL     1      -7.862   6.708  65.633  1.00  0.00    -0.098 NA 
HETATM    8  N   UNL     1      -6.926   8.898  66.015  1.00  0.00    -0.083 N  
HETATM    9  C   UNL     1      -7.892   7.929  66.205  1.00  0.00    -0.094 A  
HETATM   10  O   UNL     1      -6.515  11.142  66.114  1.00  0.00    -0.118 OA 
HETATM   11  C   UNL     1      -9.021   8.140  66.951  1.00  0.00    -0.140 A  
HETATM   12  C   UNL     1      -5.770   8.640  65.175  1.00  0.00    -0.047 C  
HETATM   13  C   UNL     1      -9.173   9.363  67.699  1.00  0.00    -0.127 C  
HETATM   14  C   UNL     1      -7.131  10.160  66.545  1.00  0.00    -0.103 C  
HETATM   15  O   UNL     1     -10.172   9.604  68.370  1.00  0.00    -0.173 OA 
HETATM   16  N   UNL     1      -8.096  10.267  67.559  1.00  0.00    -0.110 N  
BRANCH   6  17
HETATM   17  N   UNL     1      -9.287   4.837  65.578  1.00  0.00    -0.156 NA 
HETATM   18  N   UNL     1      -6.729   3.236  66.622  1.00  0.00    -0.047 NA 
HETATM   19  C   UNL     1      -8.017   2.320  64.729  1.00  0.00    -0.078 C  
HETATM   20  C   UNL     1      -9.200   3.693  66.502  1.00  0.00    -0.171 C  
HETATM   21  C   UNL     1      -7.925   3.563  63.857  1.00  0.00    -0.085 C  
HETATM   22  C   UNL     1      -9.077   4.531  64.142  1.00  0.00    -0.132 C  
HETATM   23  C   UNL     1      -8.036   2.705  66.209  1.00  0.00    -0.082 C  
HETATM   24  H1  UNL     1      -6.741   3.493  67.609  1.00  0.00     0.000 HD 
HETATM   25  H2  UNL     1      -6.433   4.014  66.032  1.00  0.00     0.000 HD 
ENDBRANCH   6  17
BRANCH  16  26
HETATM   26  C   UNL     1      -8.109  11.571  68.267  1.00  0.00    -0.148 C  
BRANCH  26  27
HETATM   27  C   UNL     1      -8.755  12.772  67.535  1.00  0.00    -0.185 A  
HETATM   28  N   UNL     1      -8.013  13.897  67.379  1.00  0.00    -0.179 NA 
HETATM   29  C   UNL     1      -8.616  15.018  66.925  1.00  0.00    -0.249 A  
HETATM   30  C   UNL     1      -9.985  15.062  66.622  1.00  0.00    -0.266 A  
HETATM   31  C   UNL     1     -10.576  16.301  66.214  1.00  0.00    -0.256 A  
HETATM   32  C   UNL     1     -10.656  13.840  66.768  1.00  0.00    -0.273 A  
HETATM   33  C   UNL     1      -9.823  17.466  66.088  1.00  0.00    -0.260 A  
HETATM   34  C   UNL     1     -12.138  13.706  66.558  1.00  0.00    -0.469 C  
HETATM   35  N   UNL     1     -10.053  12.705  67.191  1.00  0.00    -0.221 NA 
HETATM   36  C   UNL     1      -8.466  17.413  66.355  1.00  0.00    -0.292 A  
HETATM   37  C   UNL     1      -7.886  16.200  66.765  1.00  0.00    -0.296 A  
ENDBRANCH  26  27
ENDBRANCH  16  26
ENDBRANCH   4   5
ENDBRANCH   3   4
TORSDOF 5
ENDMDL
MODEL      118
REMARK 921   NORMALIZED FREE ENERGY PREDICTED BY IDOCK:   -5.56 KCAL/MOL
REMARK 922        TOTAL FREE ENERGY PREDICTED BY IDOCK:   -7.70 KCAL/MOL
REMARK 923 INTER-LIGAND FREE ENERGY PREDICTED BY IDOCK:   -6.81 KCAL/MOL
REMARK 924 INTRA-LIGAND FREE ENERGY PREDICTED BY IDOCK:   -0.88 KCAL/MOL
REMARK 927      BINDING AFFINITY PREDICTED BY RF-SCORE:    0.00 PKD
ROOT
HETATM    1  C   UNL     1      -5.789  10.186  62.345  1.00  0.00    -0.108 C  
HETATM    2  C   UNL     1      -5.822  10.282  63.863  1.00  0.00    -0.142 C  
HETATM    3  C   UNL     1      -5.852  10.365  65.164  1.00  0.00    -0.135 C  
ENDROOT
BRANCH   3   4
HETATM    4  C   UNL     1      -5.886  10.460  66.680  1.00  0.00    -0.061 C  
BRANCH   4   5
HETATM    5  N   UNL     1      -7.214  11.089  67.042  1.00  0.00    -0.115 NA 
HETATM    6  C   UNL     1      -8.486  10.463  67.028  1.00  0.00    -0.127 A  
HETATM    7  N   UNL     1      -9.400  11.263  67.543  1.00  0.00    -0.161 NA 
HETATM    8  N   UNL     1      -9.383  13.511  68.418  1.00  0.00    -0.197 N  
HETATM    9  C   UNL     1      -8.776  12.428  67.812  1.00  0.00    -0.176 A  
HETATM   10  O   UNL     1      -8.995  15.416  69.614  1.00  0.00    -0.263 OA 
HETATM   11  C   UNL     1      -7.447  12.411  67.478  1.00  0.00    -0.150 A  
HETATM   12  C   UNL     1     -10.784  13.461  68.795  1.00  0.00    -0.232 C  
HETATM   13  C   UNL     1      -6.652  13.604  67.622  1.00  0.00    -0.165 C  
HETATM   14  C   UNL     1      -8.610  14.604  68.766  1.00  0.00    -0.160 C  
HETATM   15  O   UNL     1      -5.456  13.635  67.351  1.00  0.00    -0.348 OA 
HETATM   16  N   UNL     1      -7.359  14.714  68.137  1.00  0.00    -0.113 N  
BRANCH   6  17
HETATM   17  N   UNL     1      -8.766   9.178  66.655  1.00  0.00    -0.126 NA 
HETATM   18  N   UNL     1     -11.157   8.507  68.661  1.00  0.00    -0.377 NA 
HETATM   19  C   UNL     1      -9.821   6.652  67.738  1.00  0.00    -0.144 C  
HETATM   20  C   UNL     1     -10.150   8.761  66.371  1.00  0.00    -0.243 C  
HETATM   21  C   UNL     1      -8.471   7.183  68.196  1.00  0.00    -0.123 C  
HETATM   22  C   UNL     1      -7.855   8.117  67.150  1.00  0.00    -0.101 C  
HETATM   23  C   UNL     1     -10.774   7.807  67.428  1.00  0.00    -0.230 C  
HETATM   24  H1  UNL     1     -11.793   9.278  68.455  1.00  0.00     0.000 HD 
HETATM   25  H2  UNL     1     -10.342   8.820  69.188  1.00  0.00     0.000 HD 
ENDBRANCH   6  17
BRANCH  16  26
HETATM   26  C   UNL     1      -6.674  16.015  68.343  1.00  0.00    -0.120 C  
BRANCH  26  27
HETATM   27  C   UNL     1      -6.935  17.129  67.301  1.00  0.00    -0.167 A  
HETATM   28  N   UNL     1      -6.008  17.319  66.328  1.00  0.00    -0.242 NA 
HETATM   29  C   UNL     1      -6.113  18.407  65.532  1.00  0.00    -0.246 A  
HETATM   30  C   UNL     1      -7.138  19.351  65.685  1.00  0.00    -0.292 A  
HETATM   31  C   UNL     1      -7.149  20.518  64.855  1.00  0.00     0.011 A  
HETATM   32  C   UNL     1      -8.073  19.044  66.683  1.00  0.00    -0.274 A  
HETATM   33  C   UNL     1      -6.178  20.734  63.880  1.00  0.00    -0.331 A  
HETATM   34  C   UNL     1      -9.201  19.969  67.042  1.00  0.00    -0.491 C  
HETATM   35  N   UNL     1      -7.994  17.941  67.463  1.00  0.00    -0.212 NA 
HETATM   36  C   UNL     1      -5.186  19.784  63.708  1.00  0.00    -0.252 A  
HETATM   37  C   UNL     1      -5.168  18.643  64.528  1.00  0.00    -0.202 A  
ENDBRANCH  26  27
ENDBRANCH  16  26
ENDBRANCH   4   5
ENDBRANCH   3   4
TORSDOF 5
ENDMDL
MODEL      119
REMARK 921   NORMALIZED FREE ENERGY PREDICTED BY IDOCK:   -5.55 KCAL/MOL
REMARK 922        TOTAL FREE ENERGY PREDICTED BY IDOCK:   -7.68 KCAL/MOL
REMARK 923 INTER-LIGAND FREE ENERGY PREDICTED BY IDOCK:   -6.70 KCAL/MOL
REMARK 924 INTRA-LIGAND FREE ENERGY PREDICTED BY IDOCK:   -0.98 KCAL/MOL
REMARK 927      BINDING AFFINITY PREDICTED BY RF-SCORE:    0.00 PKD
ROOT
HETATM    1  C   UNL     1      -5.221  11.327  66.307  1.00  0.00    -0.126 C  
HETATM    2  C   UNL     1      -6.222  10.184  66.243  1.00  0.00    -0.078 C  
HETATM    3  C   UNL     1      -7.080   9.203  66.189  1.00  0.00    -0.087 C  
ENDROOT
BRANCH   3   4
HETATM    4  C   UNL     1      -8.080   8.061  66.125  1.00  0.00    -0.111 C  
BRANCH   4   5
HETATM    5  N   UNL     1      -8.743   7.994  67.484  1.00  0.00    -0.125 NA 
HETATM    6  C   UNL     1      -8.515   7.029  68.497  1.00  0.00    -0.121 A  
HETATM    7  N   UNL     1      -9.153   7.361  69.603  1.00  0.00    -0.141 NA 
HETATM    8  N   UNL     1     -10.623   9.167  70.232  1.00  0.00    -0.210 N  
HETATM    9  C   UNL     1      -9.862   8.471  69.313  1.00  0.00    -0.185 A  
HETATM   10  O   UNL     1     -11.564  11.196  70.694  1.00  0.00    -0.286 OA 
HETATM   11  C   UNL     1      -9.702   8.882  68.016  1.00  0.00    -0.156 A  
HETATM   12  C   UNL     1     -10.723   8.715  71.608  1.00  0.00    -0.303 C  
HETATM   13  C   UNL     1     -10.456  10.005  67.516  1.00  0.00    -0.254 C  
HETATM   14  C   UNL     1     -11.199  10.367  69.852  1.00  0.00    -0.306 C  
HETATM   15  O   UNL     1     -10.336  10.419  66.368  1.00  0.00    -0.236 OA 
HETATM   16  N   UNL     1     -11.307  10.603  68.472  1.00  0.00    -0.284 N  
BRANCH   6  17
HETATM   17  N   UNL     1      -7.676   5.951  68.434  1.00  0.00    -0.093 NA 
HETATM   18  N   UNL     1      -9.656   3.627  69.365  1.00  0.00    -0.174 NA 
HETATM   19  C   UNL     1      -7.229   3.315  69.666  1.00  0.00    -0.041 C  
HETATM   20  C   UNL     1      -8.083   4.720  67.736  1.00  0.00    -0.093 C  
HETATM   21  C   UNL     1      -7.002   4.589  70.466  1.00  0.00    -0.037 C  
HETATM   22  C   UNL     1      -6.712   5.780  69.548  1.00  0.00    -0.059 C  
HETATM   23  C   UNL     1      -8.369   3.507  68.666  1.00  0.00    -0.077 C  
HETATM   24  H1  UNL     1     -10.418   3.755  68.699  1.00  0.00     0.000 HD 
HETATM   25  H2  UNL     1      -9.639   4.367  70.067  1.00  0.00     0.000 HD 
ENDBRANCH   6  17
BRANCH  16  26
HETATM   26  C   UNL     1     -12.147  11.772  68.108  1.00  0.00     0.030 C  
BRANCH  26  27
HETATM   27  C   UNL     1     -11.415  13.077  67.713  1.00  0.00    -0.316 A  
HETATM   28  N   UNL     1     -11.219  14.013  68.675  1.00  0.00    -0.253 NA 
HETATM   29  C   UNL     1     -10.765  15.234  68.313  1.00  0.00    -0.254 A  
HETATM   30  C   UNL     1     -10.504  15.571  66.977  1.00  0.00    -0.304 A  
HETATM   31  C   UNL     1     -10.094  16.905  66.655  1.00  0.00    -0.306 A  
HETATM   32  C   UNL     1     -10.690  14.525  66.063  1.00  0.00    -0.305 A  
HETATM   33  C   UNL     1      -9.927  17.878  67.637  1.00  0.00    -0.324 A  
HETATM   34  C   UNL     1     -10.527  14.713  64.581  1.00  0.00    -0.207 C  
HETATM   35  N   UNL     1     -11.112  13.290  66.420  1.00  0.00    -0.292 NA 
HETATM   36  C   UNL     1     -10.153  17.534  68.959  1.00  0.00    -0.291 A  
HETATM   37  C   UNL     1     -10.565  16.229  69.276  1.00  0.00    -0.293 A  
ENDBRANCH  26  27
ENDBRANCH  16  26
ENDBRANCH   4   5
ENDBRANCH   3   4
TORSDOF 5
ENDMDL
MODEL      120
REMARK 921   NORMALIZED FREE ENERGY PREDICTED BY IDOCK:   -5.54 KCAL/MOL
REMARK 922        TOTAL FREE ENERGY PREDICTED BY IDOCK:   -7.67 KCAL/MOL
REMARK 923 INTER-LIGAND FREE ENERGY PREDICTED BY IDOCK:   -7.13 KCAL/MOL
REMARK 924 INTRA-LIGAND FREE ENERGY PREDICTED BY IDOCK:   -0.54 KCAL/MOL
REMARK 927      BINDING AFFINITY PREDICTED BY RF-SCORE:    0.00 PKD
ROOT
HETATM    1  C   UNL     1     -12.548  14.384  68.231  1.00  0.00     0.476 C  
HETATM    2  C   UNL     1     -11.227  14.849  67.637  1.00  0.00    -0.330 C  
HETATM    3  C   UNL     1     -10.095  15.247  67.127  1.00  0.00    -0.240 C  
ENDROOT
BRANCH   3   4
HETATM    4  C   UNL     1      -8.776  15.712  66.532  1.00  0.00    -0.307 C  
BRANCH   4   5
HETATM    5  N   UNL     1      -7.757  15.654  67.650  1.00  0.00    -0.143 NA 
HETATM    6  C   UNL     1      -7.150  16.754  68.308  1.00  0.00    -0.167 A  
HETATM    7  N   UNL     1      -6.426  16.339  69.329  1.00  0.00    -0.175 NA 
HETATM    8  N   UNL     1      -5.882  14.177  70.251  1.00  0.00    -0.134 N  
HETATM    9  C   UNL     1      -6.472  14.991  69.304  1.00  0.00    -0.124 A  
HETATM   10  O   UNL     1      -5.931  12.095  71.187  1.00  0.00    -0.305 OA 
HETATM   11  C   UNL     1      -7.225  14.503  68.268  1.00  0.00    -0.119 A  
HETATM   12  C   UNL     1      -5.133  14.746  71.357  1.00  0.00    -0.147 C  
HETATM   13  C   UNL     1      -7.310  13.081  68.046  1.00  0.00    -0.123 C  
HETATM   14  C   UNL     1      -6.109  12.813  70.197  1.00  0.00    -0.090 C  
HETATM   15  O   UNL     1      -7.982  12.596  67.142  1.00  0.00    -0.170 OA 
HETATM   16  N   UNL     1      -6.587  12.303  68.979  1.00  0.00    -0.094 N  
BRANCH   6  17
HETATM   17  N   UNL     1      -7.341  18.081  68.039  1.00  0.00    -0.226 NA 
HETATM   18  N   UNL     1     -10.405  18.400  68.878  1.00  0.00    -0.454 NA 
HETATM   19  C   UNL     1      -9.445  19.983  67.249  1.00  0.00    -0.509 C  
HETATM   20  C   UNL     1      -7.960  18.970  69.038  1.00  0.00    -0.214 C  
HETATM   21  C   UNL     1      -8.953  18.927  66.271  1.00  0.00    -0.267 C  
HETATM   22  C   UNL     1      -7.536  18.461  66.619  1.00  0.00    -0.229 C  
HETATM   23  C   UNL     1      -9.396  19.450  68.681  1.00  0.00    -0.390 C  
HETATM   24  H1  UNL     1     -10.373  18.044  69.833  1.00  0.00     0.000 HD 
HETATM   25  H2  UNL     1     -10.311  17.651  68.192  1.00  0.00     0.000 HD 
ENDBRANCH   6  17
BRANCH  16  26
HETATM   26  C   UNL     1      -6.580  10.822  68.881  1.00  0.00    -0.057 C  
BRANCH  26  27
HETATM   27  C   UNL     1      -7.877  10.078  69.277  1.00  0.00    -0.125 A  
HETATM   28  N   UNL     1      -8.042   9.733  70.579  1.00  0.00    -0.249 NA 
HETATM   29  C   UNL     1      -9.064   8.913  70.911  1.00  0.00    -0.230 A  
HETATM   30  C   UNL     1      -9.951   8.396  69.956  1.00  0.00    -0.188 A  
HETATM   31  C   UNL     1     -10.968   7.475  70.367  1.00  0.00    -0.264 A  
HETATM   32  C   UNL     1      -9.731   8.847  68.648  1.00  0.00    -0.161 A  
HETATM   33  C   UNL     1     -11.117   7.092  71.697  1.00  0.00    -0.264 A  
HETATM   34  C   UNL     1     -10.533   8.349  67.479  1.00  0.00    -0.328 C  
HETATM   35  N   UNL     1      -8.730   9.693  68.310  1.00  0.00    -0.119 NA 
HETATM   36  C   UNL     1     -10.261   7.630  72.644  1.00  0.00    -0.321 A  
HETATM   37  C   UNL     1      -9.257   8.525  72.241  1.00  0.00    -0.343 A  
ENDBRANCH  26  27
ENDBRANCH  16  26
ENDBRANCH   4   5
ENDBRANCH   3   4
TORSDOF 5
ENDMDL
MODEL      121
REMARK 921   NORMALIZED FREE ENERGY PREDICTED BY IDOCK:   -5.53 KCAL/MOL
REMARK 922        TOTAL FREE ENERGY PREDICTED BY IDOCK:   -7.65 KCAL/MOL
REMARK 923 INTER-LIGAND FREE ENERGY PREDICTED BY IDOCK:   -7.46 KCAL/MOL
REMARK 924 INTRA-LIGAND FREE ENERGY PREDICTED BY IDOCK:   -0.20 KCAL/MOL
REMARK 927      BINDING AFFINITY PREDICTED BY RF-SCORE:    0.00 PKD
ROOT
HETATM    1  C   UNL     1      -9.327  16.174  68.913  1.00  0.00    -0.235 C  
HETATM    2  C   UNL     1     -10.218  14.942  68.942  1.00  0.00    -0.238 C  
HETATM    3  C   UNL     1     -10.983  13.886  68.967  1.00  0.00    -0.281 C  
ENDROOT
BRANCH   3   4
HETATM    4  C   UNL     1     -11.873  12.655  68.995  1.00  0.00    -0.294 C  
BRANCH   4   5
HETATM    5  N   UNL     1     -11.261  11.660  68.033  1.00  0.00    -0.242 NA 
HETATM    6  C   UNL     1     -11.439  11.612  66.627  1.00  0.00    -0.206 A  
HETATM    7  N   UNL     1     -10.642  10.709  66.091  1.00  0.00    -0.187 NA 
HETATM    8  N   UNL     1      -9.041   9.131  66.967  1.00  0.00    -0.122 N  
HETATM    9  C   UNL     1     -10.010  10.103  67.118  1.00  0.00    -0.196 A  
HETATM   10  O   UNL     1      -7.273   8.109  67.989  1.00  0.00    -0.090 OA 
HETATM   11  C   UNL     1     -10.383  10.598  68.340  1.00  0.00    -0.175 A  
HETATM   12  C   UNL     1      -8.647   8.674  65.646  1.00  0.00    -0.168 C  
HETATM   13  C   UNL     1      -9.866  10.005  69.547  1.00  0.00    -0.229 C  
HETATM   14  C   UNL     1      -8.366   8.678  68.087  1.00  0.00    -0.127 C  
HETATM   15  O   UNL     1     -10.159  10.421  70.663  1.00  0.00     0.213 OA 
HETATM   16  N   UNL     1      -8.968   8.935  69.329  1.00  0.00    -0.142 N  
BRANCH   6  17
HETATM   17  N   UNL     1     -12.224  12.435  65.869  1.00  0.00    -0.632 NA 
HETATM   18  N   UNL     1     -10.763  12.176  63.042  1.00  0.00    -0.582 NA 
HETATM   19  C   UNL     1     -12.099  14.195  63.512  1.00  0.00     0.113 C  
HETATM   20  C   UNL     1     -12.752  11.985  64.569  1.00  0.00    -0.021 C  
HETATM   21  C   UNL     1     -11.374  14.572  64.795  1.00  0.00    -0.397 C  
HETATM   22  C   UNL     1     -12.009  13.896  66.014  1.00  0.00    -0.412 C  
HETATM   23  C   UNL     1     -12.114  12.677  63.331  1.00  0.00    -0.525 C  
HETATM   24  H1  UNL     1     -10.772  11.163  62.922  1.00  0.00     0.000 HD 
HETATM   25  H2  UNL     1     -10.091  12.467  63.753  1.00  0.00     0.000 HD 
ENDBRANCH   6  17
BRANCH  16  26
HETATM   26  C   UNL     1      -8.351   8.223  70.476  1.00  0.00    -0.124 C  
BRANCH  26  27
HETATM   27  C   UNL     1      -9.272   7.321  71.332  1.00  0.00    -0.142 A  
HETATM   28  N   UNL     1      -8.724   6.227  71.919  1.00  0.00    -0.135 NA 
HETATM   29  C   UNL     1      -9.543   5.322  72.501  1.00  0.00    -0.149 A  
HETATM   30  C   UNL     1     -10.937   5.468  72.508  1.00  0.00    -0.316 A  
HETATM   31  C   UNL     1     -11.750   4.436  73.079  1.00  0.00    -0.031 A  
HETATM   32  C   UNL     1     -11.405   6.652  71.922  1.00  0.00    -0.279 A  
HETATM   33  C   UNL     1     -11.192   3.295  73.650  1.00  0.00    -0.280 A  
HETATM   34  C   UNL     1     -12.869   6.953  71.773  1.00  0.00    -0.349 C  
HETATM   35  N   UNL     1     -10.591   7.579  71.365  1.00  0.00    -0.211 NA 
HETATM   36  C   UNL     1      -9.813   3.168  73.672  1.00  0.00    -0.154 A  
HETATM   37  C   UNL     1      -9.015   4.175  73.103  1.00  0.00    -0.113 A  
ENDBRANCH  26  27
ENDBRANCH  16  26
ENDBRANCH   4   5
ENDBRANCH   3   4
TORSDOF 5
ENDMDL
MODEL      122
REMARK 921   NORMALIZED FREE ENERGY PREDICTED BY IDOCK:   -5.51 KCAL/MOL
REMARK 922        TOTAL FREE ENERGY PREDICTED BY IDOCK:   -7.62 KCAL/MOL
REMARK 923 INTER-LIGAND FREE ENERGY PREDICTED BY IDOCK:   -8.41 KCAL/MOL
REMARK 924 INTRA-LIGAND FREE ENERGY PREDICTED BY IDOCK:    0.78 KCAL/MOL
REMARK 927      BINDING AFFINITY PREDICTED BY RF-SCORE:    0.00 PKD
ROOT
HETATM    1  C   UNL     1     -10.630  11.402  63.710  1.00  0.00    -0.464 C  
HETATM    2  C   UNL     1     -10.123  10.757  64.991  1.00  0.00    -0.377 C  
HETATM    3  C   UNL     1      -9.689  10.204  66.089  1.00  0.00    -0.275 C  
ENDROOT
BRANCH   3   4
HETATM    4  C   UNL     1      -9.182   9.560  67.369  1.00  0.00    -0.133 C  
BRANCH   4   5
HETATM    5  N   UNL     1     -10.273   9.741  68.402  1.00  0.00    -0.177 NA 
HETATM    6  C   UNL     1     -10.895   8.727  69.173  1.00  0.00    -0.053 A  
HETATM    7  N   UNL     1     -11.695   9.258  70.077  1.00  0.00     0.012 NA 
HETATM    8  N   UNL     1     -12.351  11.509  70.643  1.00  0.00    -0.373 N  
HETATM    9  C   UNL     1     -11.680  10.590  69.861  1.00  0.00    -0.294 A  
HETATM   10  O   UNL     1     -12.415  13.704  71.271  1.00  0.00    -0.352 OA 
HETATM   11  C   UNL     1     -10.873  10.951  68.814  1.00  0.00    -0.209 A  
HETATM   12  C   UNL     1     -13.157  11.078  71.771  1.00  0.00    -0.449 C  
HETATM   13  C   UNL     1     -10.809  12.328  68.394  1.00  0.00    -0.230 C  
HETATM   14  C   UNL     1     -12.154  12.859  70.407  1.00  0.00    -0.306 C  
HETATM   15  O   UNL     1     -10.091  12.703  67.473  1.00  0.00    -0.208 OA 
HETATM   16  N   UNL     1     -11.611  13.206  69.160  1.00  0.00    -0.297 N  
BRANCH   6  17
HETATM   17  N   UNL     1     -10.654   7.382  69.111  1.00  0.00    -0.218 NA 
HETATM   18  N   UNL     1     -11.014   6.593  72.183  1.00  0.00    -0.236 NA 
HETATM   19  C   UNL     1      -9.622   5.158  70.740  1.00  0.00    -0.241 C  
HETATM   20  C   UNL     1     -11.578   6.422  69.738  1.00  0.00    -0.327 C  
HETATM   21  C   UNL     1      -8.691   6.264  70.266  1.00  0.00    -0.142 C  
HETATM   22  C   UNL     1      -9.237   6.954  69.013  1.00  0.00    -0.137 C  
HETATM   23  C   UNL     1     -11.021   5.714  71.005  1.00  0.00    -0.177 C  
HETATM   24  H1  UNL     1     -11.948   6.965  72.361  1.00  0.00     0.000 HD 
HETATM   25  H2  UNL     1     -10.322   7.337  72.097  1.00  0.00     0.000 HD 
ENDBRANCH   6  17
BRANCH  16  26
HETATM   26  C   UNL     1     -11.648  14.657  68.849  1.00  0.00    -0.310 C  
BRANCH  26  27
HETATM   27  C   UNL     1     -10.292  15.383  68.681  1.00  0.00    -0.234 A  
HETATM   28  N   UNL     1      -9.185  14.792  69.197  1.00  0.00    -0.137 NA 
HETATM   29  C   UNL     1      -8.030  15.494  69.238  1.00  0.00    -0.238 A  
HETATM   30  C   UNL     1      -7.940  16.816  68.779  1.00  0.00    -0.250 A  
HETATM   31  C   UNL     1      -6.705  17.526  68.919  1.00  0.00    -0.239 A  
HETATM   32  C   UNL     1      -9.121  17.323  68.220  1.00  0.00    -0.262 A  
HETATM   33  C   UNL     1      -5.577  16.934  69.481  1.00  0.00    -0.177 A  
HETATM   34  C   UNL     1      -9.240  18.741  67.739  1.00  0.00    -0.316 C  
HETATM   35  N   UNL     1     -10.273  16.616  68.145  1.00  0.00    -0.267 NA 
HETATM   36  C   UNL     1      -5.658  15.617  69.903  1.00  0.00    -0.132 A  
HETATM   37  C   UNL     1      -6.872  14.922  69.776  1.00  0.00    -0.182 A  
ENDBRANCH  26  27
ENDBRANCH  16  26
ENDBRANCH   4   5
ENDBRANCH   3   4
TORSDOF 5
ENDMDL
MODEL      123
REMARK 921   NORMALIZED FREE ENERGY PREDICTED BY IDOCK:   -5.50 KCAL/MOL
REMARK 922        TOTAL FREE ENERGY PREDICTED BY IDOCK:   -7.61 KCAL/MOL
REMARK 923 INTER-LIGAND FREE ENERGY PREDICTED BY IDOCK:   -7.11 KCAL/MOL
REMARK 924 INTRA-LIGAND FREE ENERGY PREDICTED BY IDOCK:   -0.50 KCAL/MOL
REMARK 927      BINDING AFFINITY PREDICTED BY RF-SCORE:    0.00 PKD
ROOT
HETATM    1  C   UNL     1      -9.588   4.833  65.689  1.00  0.00    -0.184 C  
HETATM    2  C   UNL     1      -9.676   4.869  67.207  1.00  0.00    -0.194 C  
HETATM    3  C   UNL     1      -9.750   4.900  68.508  1.00  0.00    -0.218 C  
ENDROOT
BRANCH   3   4
HETATM    4  C   UNL     1      -9.837   4.937  70.025  1.00  0.00    -0.233 C  
BRANCH   4   5
HETATM    5  N   UNL     1      -8.888   6.024  70.483  1.00  0.00    -0.144 NA 
HETATM    6  C   UNL     1      -7.743   5.866  71.304  1.00  0.00    -0.110 A  
HETATM    7  N   UNL     1      -7.069   6.997  71.379  1.00  0.00    -0.069 NA 
HETATM    8  N   UNL     1      -7.388   9.220  70.497  1.00  0.00    -0.102 N  
HETATM    9  C   UNL     1      -7.789   7.914  70.700  1.00  0.00    -0.095 A  
HETATM   10  O   UNL     1      -7.666  11.051  69.162  1.00  0.00    -0.131 OA 
HETATM   11  C   UNL     1      -8.944   7.399  70.172  1.00  0.00    -0.148 A  
HETATM   12  C   UNL     1      -6.131   9.703  71.039  1.00  0.00    -0.077 C  
HETATM   13  C   UNL     1      -9.873   8.264  69.488  1.00  0.00    -0.181 C  
HETATM   14  C   UNL     1      -8.145  10.032  69.671  1.00  0.00    -0.172 C  
HETATM   15  O   UNL     1     -10.912   7.849  68.986  1.00  0.00    -0.072 OA 
HETATM   16  N   UNL     1      -9.461   9.615  69.415  1.00  0.00    -0.180 N  
BRANCH   6  17
HETATM   17  N   UNL     1      -7.290   4.707  71.870  1.00  0.00    -0.068 NA 
HETATM   18  N   UNL     1      -7.183   2.817  69.299  1.00  0.00    -0.044 NA 
HETATM   19  C   UNL     1      -7.410   1.785  71.527  1.00  0.00    -0.032 C  
HETATM   20  C   UNL     1      -6.155   3.975  71.281  1.00  0.00    -0.014 C  
HETATM   21  C   UNL     1      -8.650   2.565  71.939  1.00  0.00    -0.093 C  
HETATM   22  C   UNL     1      -8.277   3.888  72.615  1.00  0.00    -0.094 C  
HETATM   23  C   UNL     1      -6.531   2.627  70.602  1.00  0.00    -0.027 C  
HETATM   24  H1  UNL     1      -6.597   3.379  68.681  1.00  0.00     0.000 HD 
HETATM   25  H2  UNL     1      -8.118   3.214  69.398  1.00  0.00     0.000 HD 
ENDBRANCH   6  17
BRANCH  16  26
HETATM   26  C   UNL     1     -10.312  10.626  68.739  1.00  0.00    -0.193 C  
BRANCH  26  27
HETATM   27  C   UNL     1     -11.436  11.283  69.575  1.00  0.00    -0.307 A  
HETATM   28  N   UNL     1     -11.553  12.634  69.535  1.00  0.00    -0.293 NA 
HETATM   29  C   UNL     1     -12.391  13.242  70.404  1.00  0.00    -0.295 A  
HETATM   30  C   UNL     1     -13.132  12.527  71.355  1.00  0.00    -0.303 A  
HETATM   31  C   UNL     1     -13.945  13.239  72.294  1.00  0.00    -0.559 A  
HETATM   32  C   UNL     1     -12.982  11.135  71.289  1.00  0.00    -0.357 A  
HETATM   33  C   UNL     1     -14.040  14.629  72.277  1.00  0.00    -0.588 A  
HETATM   34  C   UNL     1     -13.640  10.206  72.269  1.00  0.00    -0.224 C  
HETATM   35  N   UNL     1     -12.170  10.516  70.400  1.00  0.00    -0.311 NA 
HETATM   36  C   UNL     1     -13.333  15.331  71.316  1.00  0.00    -0.586 A  
HETATM   37  C   UNL     1     -12.527  14.635  70.400  1.00  0.00    -0.410 A  
ENDBRANCH  26  27
ENDBRANCH  16  26
ENDBRANCH   4   5
ENDBRANCH   3   4
TORSDOF 5
ENDMDL
MODEL      124
REMARK 921   NORMALIZED FREE ENERGY PREDICTED BY IDOCK:   -5.50 KCAL/MOL
REMARK 922        TOTAL FREE ENERGY PREDICTED BY IDOCK:   -7.61 KCAL/MOL
REMARK 923 INTER-LIGAND FREE ENERGY PREDICTED BY IDOCK:   -7.87 KCAL/MOL
REMARK 924 INTRA-LIGAND FREE ENERGY PREDICTED BY IDOCK:    0.26 KCAL/MOL
REMARK 927      BINDING AFFINITY PREDICTED BY RF-SCORE:    0.00 PKD
ROOT
HETATM    1  C   UNL     1      -6.911   8.696  72.466  1.00  0.00    -0.028 C  
HETATM    2  C   UNL     1      -8.273   8.715  71.790  1.00  0.00    -0.184 C  
HETATM    3  C   UNL     1      -9.440   8.731  71.210  1.00  0.00    -0.320 C  
ENDROOT
BRANCH   3   4
HETATM    4  C   UNL     1     -10.801   8.749  70.533  1.00  0.00    -0.233 C  
BRANCH   4   5
HETATM    5  N   UNL     1     -10.561   9.156  69.096  1.00  0.00    -0.223 NA 
HETATM    6  C   UNL     1     -10.101   8.328  68.041  1.00  0.00    -0.198 A  
HETATM    7  N   UNL     1     -10.149   8.975  66.892  1.00  0.00    -0.244 NA 
HETATM    8  N   UNL     1     -10.775  11.209  66.232  1.00  0.00    -0.261 N  
HETATM    9  C   UNL     1     -10.546  10.232  67.180  1.00  0.00    -0.260 A  
HETATM   10  O   UNL     1     -11.868  13.173  65.829  1.00  0.00    -0.356 OA 
HETATM   11  C   UNL     1     -10.762  10.428  68.519  1.00  0.00    -0.221 A  
HETATM   12  C   UNL     1     -10.576  10.936  64.820  1.00  0.00    -0.246 C  
HETATM   13  C   UNL     1     -11.108  11.739  69.009  1.00  0.00    -0.246 C  
HETATM   14  C   UNL     1     -11.308  12.421  66.635  1.00  0.00    -0.339 C  
HETATM   15  O   UNL     1     -11.326  11.962  70.195  1.00  0.00    -0.131 OA 
HETATM   16  N   UNL     1     -11.212  12.726  68.002  1.00  0.00    -0.253 N  
BRANCH   6  17
HETATM   17  N   UNL     1      -9.754   7.008  68.122  1.00  0.00    -0.132 NA 
HETATM   18  N   UNL     1     -11.328   6.162  70.767  1.00  0.00    -0.319 NA 
HETATM   19  C   UNL     1      -9.346   4.859  70.092  1.00  0.00    -0.217 C  
HETATM   20  C   UNL     1     -10.779   5.970  68.320  1.00  0.00    -0.279 C  
HETATM   21  C   UNL     1      -8.390   6.041  70.032  1.00  0.00    -0.123 C  
HETATM   22  C   UNL     1      -8.402   6.697  68.648  1.00  0.00    -0.123 C  
HETATM   23  C   UNL     1     -10.764   5.297  69.722  1.00  0.00    -0.109 C  
HETATM   24  H1  UNL     1     -12.274   6.455  70.521  1.00  0.00     0.000 HD 
HETATM   25  H2  UNL     1     -10.724   6.961  70.965  1.00  0.00     0.000 HD 
ENDBRANCH   6  17
BRANCH  16  26
HETATM   26  C   UNL     1     -11.564  14.125  68.351  1.00  0.00    -0.318 C  
BRANCH  26  27
HETATM   27  C   UNL     1     -10.437  15.182  68.272  1.00  0.00    -0.241 A  
HETATM   28  N   UNL     1      -9.152  14.748  68.327  1.00  0.00    -0.177 NA 
HETATM   29  C   UNL     1      -8.162  15.659  68.460  1.00  0.00    -0.153 A  
HETATM   30  C   UNL     1      -8.417  17.034  68.559  1.00  0.00    -0.257 A  
HETATM   31  C   UNL     1      -7.327  17.938  68.771  1.00  0.00    -0.271 A  
HETATM   32  C   UNL     1      -9.768  17.389  68.444  1.00  0.00    -0.304 A  
HETATM   33  C   UNL     1      -6.011  17.492  68.863  1.00  0.00    -0.186 A  
HETATM   34  C   UNL     1     -10.244  18.806  68.594  1.00  0.00    -0.366 C  
HETATM   35  N   UNL     1     -10.763  16.486  68.277  1.00  0.00    -0.330 NA 
HETATM   36  C   UNL     1      -5.758  16.137  68.732  1.00  0.00    -0.109 A  
HETATM   37  C   UNL     1      -6.827  15.247  68.534  1.00  0.00    -0.112 A  
ENDBRANCH  26  27
ENDBRANCH  16  26
ENDBRANCH   4   5
ENDBRANCH   3   4
TORSDOF 5
ENDMDL
MODEL      125
REMARK 921   NORMALIZED FREE ENERGY PREDICTED BY IDOCK:   -5.49 KCAL/MOL
REMARK 922        TOTAL FREE ENERGY PREDICTED BY IDOCK:   -7.59 KCAL/MOL
REMARK 923 INTER-LIGAND FREE ENERGY PREDICTED BY IDOCK:   -6.30 KCAL/MOL
REMARK 924 INTRA-LIGAND FREE ENERGY PREDICTED BY IDOCK:   -1.29 KCAL/MOL
REMARK 927      BINDING AFFINITY PREDICTED BY RF-SCORE:    0.00 PKD
ROOT
HETATM    1  C   UNL     1     -12.264  11.294  68.879  1.00  0.00    -0.160 C  
HETATM    2  C   UNL     1     -11.188  12.037  68.104  1.00  0.00    -0.316 C  
HETATM    3  C   UNL     1     -10.264  12.674  67.439  1.00  0.00    -0.219 C  
ENDROOT
BRANCH   3   4
HETATM    4  C   UNL     1      -9.188  13.416  66.663  1.00  0.00    -0.214 C  
BRANCH   4   5
HETATM    5  N   UNL     1      -8.203  13.937  67.687  1.00  0.00    -0.163 NA 
HETATM    6  C   UNL     1      -7.978  15.291  68.041  1.00  0.00    -0.131 A  
HETATM    7  N   UNL     1      -7.158  15.369  69.071  1.00  0.00    -0.132 NA 
HETATM    8  N   UNL     1      -5.950  13.757  70.399  1.00  0.00    -0.160 N  
HETATM    9  C   UNL     1      -6.771  14.106  69.344  1.00  0.00    -0.116 A  
HETATM   10  O   UNL     1      -5.331  12.038  71.768  1.00  0.00    -0.369 OA 
HETATM   11  C   UNL     1      -7.330  13.183  68.499  1.00  0.00    -0.111 A  
HETATM   12  C   UNL     1      -5.421  14.770  71.294  1.00  0.00    -0.100 C  
HETATM   13  C   UNL     1      -6.957  11.794  68.599  1.00  0.00    -0.093 C  
HETATM   14  C   UNL     1      -5.730  12.416  70.661  1.00  0.00    -0.138 C  
HETATM   15  O   UNL     1      -7.440  10.930  67.876  1.00  0.00    -0.087 OA 
HETATM   16  N   UNL     1      -6.022  11.517  69.623  1.00  0.00    -0.088 N  
BRANCH   6  17
HETATM   17  N   UNL     1      -8.583  16.394  67.505  1.00  0.00    -0.172 NA 
HETATM   18  N   UNL     1      -6.929  18.713  68.945  1.00  0.00    -0.286 NA 
HETATM   19  C   UNL     1      -9.203  19.204  68.129  1.00  0.00    -0.377 C  
HETATM   20  C   UNL     1      -7.782  17.485  66.923  1.00  0.00    -0.217 C  
HETATM   21  C   UNL     1      -9.891  18.075  68.885  1.00  0.00    -0.321 C  
HETATM   22  C   UNL     1      -9.901  16.781  68.066  1.00  0.00    -0.265 C  
HETATM   23  C   UNL     1      -7.778  18.802  67.749  1.00  0.00    -0.237 C  
HETATM   24  H1  UNL     1      -5.977  18.446  68.692  1.00  0.00     0.000 HD 
HETATM   25  H2  UNL     1      -7.324  18.086  69.645  1.00  0.00     0.000 HD 
ENDBRANCH   6  17
BRANCH  16  26
HETATM   26  C   UNL     1      -5.542  10.131  69.850  1.00  0.00    -0.043 C  
BRANCH  26  27
HETATM   27  C   UNL     1      -6.613   9.036  70.075  1.00  0.00    -0.043 A  
HETATM   28  N   UNL     1      -6.748   8.073  69.129  1.00  0.00    -0.047 NA 
HETATM   29  C   UNL     1      -7.801   7.229  69.204  1.00  0.00    -0.117 A  
HETATM   30  C   UNL     1      -8.765   7.322  70.217  1.00  0.00    -0.147 A  
HETATM   31  C   UNL     1      -9.895   6.442  70.196  1.00  0.00    -0.191 A  
HETATM   32  C   UNL     1      -8.515   8.315  71.174  1.00  0.00    -0.141 A  
HETATM   33  C   UNL     1     -10.054   5.476  69.206  1.00  0.00    -0.293 A  
HETATM   34  C   UNL     1      -9.471   8.613  72.295  1.00  0.00    -0.336 C  
HETATM   35  N   UNL     1      -7.446   9.144  71.125  1.00  0.00    -0.246 NA 
HETATM   36  C   UNL     1      -9.083   5.364  68.225  1.00  0.00    -0.116 A  
HETATM   37  C   UNL     1      -7.980   6.233  68.238  1.00  0.00    -0.108 A  
ENDBRANCH  26  27
ENDBRANCH  16  26
ENDBRANCH   4   5
ENDBRANCH   3   4
TORSDOF 5
ENDMDL
MODEL      126
REMARK 921   NORMALIZED FREE ENERGY PREDICTED BY IDOCK:   -5.48 KCAL/MOL
REMARK 922        TOTAL FREE ENERGY PREDICTED BY IDOCK:   -7.58 KCAL/MOL
REMARK 923 INTER-LIGAND FREE ENERGY PREDICTED BY IDOCK:   -6.89 KCAL/MOL
REMARK 924 INTRA-LIGAND FREE ENERGY PREDICTED BY IDOCK:   -0.69 KCAL/MOL
REMARK 927      BINDING AFFINITY PREDICTED BY RF-SCORE:    0.00 PKD
ROOT
HETATM    1  C   UNL     1     -10.618   5.725  66.805  1.00  0.00    -0.373 C  
HETATM    2  C   UNL     1     -10.753   6.696  67.968  1.00  0.00    -0.330 C  
HETATM    3  C   UNL     1     -10.869   7.529  68.964  1.00  0.00    -0.082 C  
ENDROOT
BRANCH   3   4
HETATM    4  C   UNL     1     -11.005   8.499  70.126  1.00  0.00    -0.216 C  
BRANCH   4   5
HETATM    5  N   UNL     1      -9.599   8.891  70.526  1.00  0.00    -0.187 NA 
HETATM    6  C   UNL     1      -8.861   8.405  71.634  1.00  0.00    -0.186 A  
HETATM    7  N   UNL     1      -7.620   8.849  71.593  1.00  0.00    -0.301 NA 
HETATM    8  N   UNL     1      -6.393  10.311  70.117  1.00  0.00    -0.100 N  
HETATM    9  C   UNL     1      -7.550   9.683  70.534  1.00  0.00    -0.132 A  
HETATM   10  O   UNL     1      -5.369  11.301  68.332  1.00  0.00    -0.043 OA 
HETATM   11  C   UNL     1      -8.742   9.799  69.868  1.00  0.00    -0.217 A  
HETATM   12  C   UNL     1      -5.144  10.118  70.831  1.00  0.00    -0.061 C  
HETATM   13  C   UNL     1      -8.864  10.716  68.763  1.00  0.00    -0.161 C  
HETATM   14  C   UNL     1      -6.413  11.037  68.939  1.00  0.00    -0.054 C  
HETATM   15  O   UNL     1      -9.904  10.844  68.126  1.00  0.00    -0.166 OA 
HETATM   16  N   UNL     1      -7.676  11.418  68.457  1.00  0.00    -0.126 N  
BRANCH   6  17
HETATM   17  N   UNL     1      -9.286   7.513  72.579  1.00  0.00    -0.145 NA 
HETATM   18  N   UNL     1      -9.473   4.857  70.816  1.00  0.00    -0.158 NA 
HETATM   19  C   UNL     1     -10.849   5.033  72.854  1.00  0.00    -0.322 C  
HETATM   20  C   UNL     1      -8.609   6.216  72.748  1.00  0.00    -0.123 C  
HETATM   21  C   UNL     1     -11.533   6.337  72.474  1.00  0.00    -0.300 C  
HETATM   22  C   UNL     1     -10.724   7.549  72.944  1.00  0.00    -0.358 C  
HETATM   23  C   UNL     1      -9.433   4.983  72.279  1.00  0.00    -0.139 C  
HETATM   24  H1  UNL     1      -8.528   4.825  70.431  1.00  0.00     0.000 HD 
HETATM   25  H2  UNL     1     -10.030   5.597  70.387  1.00  0.00     0.000 HD 
ENDBRANCH   6  17
BRANCH  16  26
HETATM   26  C   UNL     1      -7.644  12.397  67.342  1.00  0.00    -0.160 C  
BRANCH  26  27
HETATM   27  C   UNL     1      -7.736  13.897  67.711  1.00  0.00    -0.172 A  
HETATM   28  N   UNL     1      -8.963  14.414  67.974  1.00  0.00    -0.176 NA 
HETATM   29  C   UNL     1      -9.092  15.754  68.102  1.00  0.00    -0.185 A  
HETATM   30  C   UNL     1      -8.005  16.628  67.958  1.00  0.00    -0.173 A  
HETATM   31  C   UNL     1      -8.224  18.041  68.034  1.00  0.00    -0.261 A  
HETATM   32  C   UNL     1      -6.772  15.999  67.737  1.00  0.00    -0.154 A  
HETATM   33  C   UNL     1      -9.489  18.576  68.268  1.00  0.00    -0.360 A  
HETATM   34  C   UNL     1      -5.507  16.771  67.488  1.00  0.00    -0.164 C  
HETATM   35  N   UNL     1      -6.629  14.657  67.640  1.00  0.00    -0.211 NA 
HETATM   36  C   UNL     1     -10.555  17.710  68.443  1.00  0.00    -0.318 A  
HETATM   37  C   UNL     1     -10.343  16.324  68.359  1.00  0.00    -0.271 A  
ENDBRANCH  26  27
ENDBRANCH  16  26
ENDBRANCH   4   5
ENDBRANCH   3   4
TORSDOF 5
ENDMDL
MODEL      127
REMARK 921   NORMALIZED FREE ENERGY PREDICTED BY IDOCK:   -5.48 KCAL/MOL
REMARK 922        TOTAL FREE ENERGY PREDICTED BY IDOCK:   -7.58 KCAL/MOL
REMARK 923 INTER-LIGAND FREE ENERGY PREDICTED BY IDOCK:   -7.03 KCAL/MOL
REMARK 924 INTRA-LIGAND FREE ENERGY PREDICTED BY IDOCK:   -0.55 KCAL/MOL
REMARK 927      BINDING AFFINITY PREDICTED BY RF-SCORE:    0.00 PKD
ROOT
HETATM    1  C   UNL     1     -10.424   4.437  65.432  1.00  0.00    -0.219 C  
HETATM    2  C   UNL     1     -10.657   5.219  66.715  1.00  0.00    -0.309 C  
HETATM    3  C   UNL     1     -10.856   5.890  67.815  1.00  0.00    -0.326 C  
ENDROOT
BRANCH   3   4
HETATM    4  C   UNL     1     -11.090   6.671  69.097  1.00  0.00    -0.275 C  
BRANCH   4   5
HETATM    5  N   UNL     1      -9.789   7.380  69.412  1.00  0.00    -0.166 NA 
HETATM    6  C   UNL     1      -8.889   7.081  70.465  1.00  0.00    -0.154 A  
HETATM    7  N   UNL     1      -7.790   7.801  70.351  1.00  0.00    -0.089 NA 
HETATM    8  N   UNL     1      -7.032   9.503  68.818  1.00  0.00    -0.066 N  
HETATM    9  C   UNL     1      -7.983   8.625  69.300  1.00  0.00    -0.103 A  
HETATM   10  O   UNL     1      -6.383  10.699  66.984  1.00  0.00    -0.065 OA 
HETATM   11  C   UNL     1      -9.210   8.459  68.712  1.00  0.00    -0.143 A  
HETATM   12  C   UNL     1      -5.729   9.607  69.449  1.00  0.00    -0.034 C  
HETATM   13  C   UNL     1      -9.612   9.320  67.628  1.00  0.00    -0.142 C  
HETATM   14  C   UNL     1      -7.296  10.202  67.653  1.00  0.00    -0.089 C  
HETATM   15  O   UNL     1     -10.693   9.202  67.060  1.00  0.00    -0.234 OA 
HETATM   16  N   UNL     1      -8.641  10.278  67.257  1.00  0.00    -0.125 N  
BRANCH   6  17
HETATM   17  N   UNL     1      -9.034   6.117  71.423  1.00  0.00    -0.143 NA 
HETATM   18  N   UNL     1     -11.230   7.491  73.291  1.00  0.00    -0.585 NA 
HETATM   19  C   UNL     1      -9.730   5.793  74.266  1.00  0.00    -0.195 C  
HETATM   20  C   UNL     1     -10.371   5.641  71.818  1.00  0.00    -0.215 C  
HETATM   21  C   UNL     1      -8.432   6.476  73.863  1.00  0.00    -0.129 C  
HETATM   22  C   UNL     1      -7.981   6.038  72.466  1.00  0.00    -0.105 C  
HETATM   23  C   UNL     1     -10.826   6.078  73.239  1.00  0.00    -0.252 C  
HETATM   24  H1  UNL     1     -11.961   7.682  72.605  1.00  0.00     0.000 HD 
HETATM   25  H2  UNL     1     -10.432   8.117  73.177  1.00  0.00     0.000 HD 
ENDBRANCH   6  17
BRANCH  16  26
HETATM   26  C   UNL     1      -8.909  11.235  66.154  1.00  0.00    -0.190 C  
BRANCH  26  27
HETATM   27  C   UNL     1      -9.263  12.690  66.546  1.00  0.00    -0.200 A  
HETATM   28  N   UNL     1      -9.972  13.434  65.660  1.00  0.00    -0.268 NA 
HETATM   29  C   UNL     1     -10.120  14.757  65.892  1.00  0.00    -0.321 A  
HETATM   30  C   UNL     1      -9.554  15.391  67.007  1.00  0.00    -0.227 A  
HETATM   31  C   UNL     1      -9.687  16.809  67.154  1.00  0.00    -0.251 A  
HETATM   32  C   UNL     1      -8.882  14.533  67.890  1.00  0.00    -0.176 A  
HETATM   33  C   UNL     1     -10.385  17.580  66.227  1.00  0.00    -0.335 A  
HETATM   34  C   UNL     1      -8.153  15.036  69.103  1.00  0.00    -0.192 C  
HETATM   35  N   UNL     1      -8.757  13.201  67.683  1.00  0.00    -0.179 NA 
HETATM   36  C   UNL     1     -10.971  16.948  65.144  1.00  0.00    -0.060 A  
HETATM   37  C   UNL     1     -10.832  15.558  64.993  1.00  0.00    -0.468 A  
ENDBRANCH  26  27
ENDBRANCH  16  26
ENDBRANCH   4   5
ENDBRANCH   3   4
TORSDOF 5
ENDMDL
MODEL      128
REMARK 921   NORMALIZED FREE ENERGY PREDICTED BY IDOCK:   -5.47 KCAL/MOL
REMARK 922        TOTAL FREE ENERGY PREDICTED BY IDOCK:   -7.58 KCAL/MOL
REMARK 923 INTER-LIGAND FREE ENERGY PREDICTED BY IDOCK:   -6.45 KCAL/MOL
REMARK 924 INTRA-LIGAND FREE ENERGY PREDICTED BY IDOCK:   -1.13 KCAL/MOL
REMARK 927      BINDING AFFINITY PREDICTED BY RF-SCORE:    0.00 PKD
ROOT
HETATM    1  C   UNL     1      -9.605   5.643  71.786  1.00  0.00    -0.184 C  
HETATM    2  C   UNL     1     -10.126   5.907  70.382  1.00  0.00    -0.259 C  
HETATM    3  C   UNL     1     -10.573   6.133  69.178  1.00  0.00    -0.345 C  
ENDROOT
BRANCH   3   4
HETATM    4  C   UNL     1     -11.093   6.397  67.775  1.00  0.00    -0.276 C  
BRANCH   4   5
HETATM    5  N   UNL     1      -9.878   6.497  66.878  1.00  0.00    -0.156 NA 
HETATM    6  C   UNL     1      -9.400   5.513  65.977  1.00  0.00    -0.148 A  
HETATM    7  N   UNL     1      -8.409   5.993  65.251  1.00  0.00    -0.148 NA 
HETATM    8  N   UNL     1      -7.235   8.099  65.172  1.00  0.00    -0.070 N  
HETATM    9  C   UNL     1      -8.169   7.237  65.714  1.00  0.00    -0.135 A  
HETATM   10  O   UNL     1      -6.642  10.296  64.977  1.00  0.00    -0.125 OA 
HETATM   11  C   UNL     1      -8.996   7.590  66.748  1.00  0.00    -0.144 A  
HETATM   12  C   UNL     1      -6.416   7.693  64.045  1.00  0.00    -0.053 C  
HETATM   13  C   UNL     1      -8.817   8.856  67.415  1.00  0.00    -0.129 C  
HETATM   14  C   UNL     1      -7.170   9.399  65.644  1.00  0.00    -0.091 C  
HETATM   15  O   UNL     1      -9.540   9.223  68.335  1.00  0.00    -0.145 OA 
HETATM   16  N   UNL     1      -7.767   9.645  66.891  1.00  0.00    -0.098 N  
BRANCH   6  17
HETATM   17  N   UNL     1      -9.923   4.267  65.765  1.00  0.00    -0.221 NA 
HETATM   18  N   UNL     1      -7.681   3.020  63.865  1.00  0.00    -0.075 NA 
HETATM   19  C   UNL     1      -9.970   2.107  63.765  1.00  0.00    -0.135 C  
HETATM   20  C   UNL     1      -9.095   3.062  65.945  1.00  0.00    -0.141 C  
HETATM   21  C   UNL     1     -10.659   3.434  63.484  1.00  0.00    -0.260 C  
HETATM   22  C   UNL     1     -11.029   4.157  64.782  1.00  0.00    -0.023 C  
HETATM   23  C   UNL     1      -8.726   2.323  64.628  1.00  0.00    -0.102 C  
HETATM   24  H1  UNL     1      -6.851   3.164  64.440  1.00  0.00     0.000 HD 
HETATM   25  H2  UNL     1      -8.023   3.895  63.468  1.00  0.00     0.000 HD 
ENDBRANCH   6  17
BRANCH  16  26
HETATM   26  C   UNL     1      -7.462  10.976  67.472  1.00  0.00    -0.102 C  
BRANCH  26  27
HETATM   27  C   UNL     1      -8.541  12.076  67.333  1.00  0.00    -0.171 A  
HETATM   28  N   UNL     1      -8.500  13.122  68.198  1.00  0.00    -0.167 NA 
HETATM   29  C   UNL     1      -9.539  13.986  68.226  1.00  0.00    -0.224 A  
HETATM   30  C   UNL     1     -10.664  13.831  67.404  1.00  0.00    -0.279 A  
HETATM   31  C   UNL     1     -11.762  14.741  67.536  1.00  0.00    -0.370 A  
HETATM   32  C   UNL     1     -10.594  12.752  66.512  1.00  0.00    -0.254 A  
HETATM   33  C   UNL     1     -11.737  15.794  68.447  1.00  0.00    -0.279 A  
HETATM   34  C   UNL     1     -11.732  12.385  65.602  1.00  0.00    -0.468 C  
HETATM   35  N   UNL     1      -9.543  11.901  66.454  1.00  0.00    -0.220 NA 
HETATM   36  C   UNL     1     -10.611  15.965  69.234  1.00  0.00    -0.252 A  
HETATM   37  C   UNL     1      -9.537  15.067  69.113  1.00  0.00    -0.202 A  
ENDBRANCH  26  27
ENDBRANCH  16  26
ENDBRANCH   4   5
ENDBRANCH   3   4
TORSDOF 5
ENDMDL
MODEL      129
REMARK 921   NORMALIZED FREE ENERGY PREDICTED BY IDOCK:   -5.40 KCAL/MOL
REMARK 922        TOTAL FREE ENERGY PREDICTED BY IDOCK:   -7.48 KCAL/MOL
REMARK 923 INTER-LIGAND FREE ENERGY PREDICTED BY IDOCK:   -7.12 KCAL/MOL
REMARK 924 INTRA-LIGAND FREE ENERGY PREDICTED BY IDOCK:   -0.37 KCAL/MOL
REMARK 927      BINDING AFFINITY PREDICTED BY RF-SCORE:    0.00 PKD
ROOT
HETATM    1  C   UNL     1     -10.383  19.963  65.542  1.00  0.00    -0.297 C  
HETATM    2  C   UNL     1     -10.423  18.889  66.617  1.00  0.00    -0.496 C  
HETATM    3  C   UNL     1     -10.458  17.967  67.539  1.00  0.00    -0.408 C  
ENDROOT
BRANCH   3   4
HETATM    4  C   UNL     1     -10.498  16.893  68.614  1.00  0.00    -0.352 C  
BRANCH   4   5
HETATM    5  N   UNL     1      -9.229  16.082  68.458  1.00  0.00    -0.199 NA 
HETATM    6  C   UNL     1      -7.902  16.523  68.688  1.00  0.00    -0.226 A  
HETATM    7  N   UNL     1      -7.058  15.513  68.599  1.00  0.00    -0.114 NA 
HETATM    8  N   UNL     1      -7.275  13.166  68.087  1.00  0.00    -0.103 N  
HETATM    9  C   UNL     1      -7.788  14.440  68.231  1.00  0.00    -0.138 A  
HETATM   10  O   UNL     1      -7.817  10.948  68.061  1.00  0.00    -0.102 OA 
HETATM   11  C   UNL     1      -9.118  14.729  68.072  1.00  0.00    -0.179 A  
HETATM   12  C   UNL     1      -5.865  12.903  68.312  1.00  0.00    -0.079 C  
HETATM   13  C   UNL     1     -10.025  13.714  67.599  1.00  0.00    -0.239 C  
HETATM   14  C   UNL     1      -8.144  12.119  67.837  1.00  0.00    -0.153 C  
HETATM   15  O   UNL     1     -11.226  13.920  67.456  1.00  0.00    -0.284 OA 
HETATM   16  N   UNL     1      -9.419  12.461  67.356  1.00  0.00    -0.182 N  
BRANCH   6  17
HETATM   17  N   UNL     1      -7.504  17.776  69.063  1.00  0.00    -0.219 NA 
HETATM   18  N   UNL     1      -5.141  18.277  66.975  1.00  0.00    -0.125 NA 
HETATM   19  C   UNL     1      -5.126  19.511  69.110  1.00  0.00    -0.194 C  
HETATM   20  C   UNL     1      -7.337  18.845  68.063  1.00  0.00    -0.250 C  
HETATM   21  C   UNL     1      -5.203  18.283  70.005  1.00  0.00    -0.224 C  
HETATM   22  C   UNL     1      -6.655  17.880  70.275  1.00  0.00     0.715 C  
HETATM   23  C   UNL     1      -5.863  19.261  67.794  1.00  0.00    -0.197 C  
HETATM   24  H1  UNL     1      -5.633  18.109  66.097  1.00  0.00     0.000 HD 
HETATM   25  H2  UNL     1      -4.973  17.410  67.486  1.00  0.00     0.000 HD 
ENDBRANCH   6  17
BRANCH  16  26
HETATM   26  C   UNL     1     -10.225  11.315  66.867  1.00  0.00    -0.219 C  
BRANCH  26  27
HETATM   27  C   UNL     1     -10.661  10.257  67.909  1.00  0.00    -0.264 A  
HETATM   28  N   UNL     1     -11.478  10.655  68.917  1.00  0.00    -0.271 NA 
HETATM   29  C   UNL     1     -11.709   9.804  69.942  1.00  0.00    -0.018 A  
HETATM   30  C   UNL     1     -11.124   8.532  70.007  1.00  0.00    -0.152 A  
HETATM   31  C   UNL     1     -11.353   7.709  71.156  1.00  0.00    -0.286 A  
HETATM   32  C   UNL     1     -10.336   8.192  68.898  1.00  0.00    -0.211 A  
HETATM   33  C   UNL     1     -12.162   8.130  72.209  1.00  0.00    -0.397 A  
HETATM   34  C   UNL     1      -9.572   6.901  68.818  1.00  0.00    -0.134 C  
HETATM   35  N   UNL     1     -10.125   9.025  67.852  1.00  0.00    -0.186 NA 
HETATM   36  C   UNL     1     -12.766   9.373  72.128  1.00  0.00    -0.460 A  
HETATM   37  C   UNL     1     -12.534  10.185  71.006  1.00  0.00    -0.474 A  
ENDBRANCH  26  27
ENDBRANCH  16  26
ENDBRANCH   4   5
ENDBRANCH   3   4
TORSDOF 5
ENDMDL
MODEL      130
REMARK 921   NORMALIZED FREE ENERGY PREDICTED BY IDOCK:   -5.37 KCAL/MOL
REMARK 922        TOTAL FREE ENERGY PREDICTED BY IDOCK:   -7.44 KCAL/MOL
REMARK 923 INTER-LIGAND FREE ENERGY PREDICTED BY IDOCK:   -7.26 KCAL/MOL
REMARK 924 INTRA-LIGAND FREE ENERGY PREDICTED BY IDOCK:   -0.19 KCAL/MOL
REMARK 927      BINDING AFFINITY PREDICTED BY RF-SCORE:    0.00 PKD
ROOT
HETATM    1  C   UNL     1     -12.951  14.925  71.329  1.00  0.00    -0.431 C  
HETATM    2  C   UNL     1     -12.475  14.436  69.970  1.00  0.00    -0.353 C  
HETATM    3  C   UNL     1     -12.068  14.016  68.805  1.00  0.00    -0.338 C  
ENDROOT
BRANCH   3   4
HETATM    4  C   UNL     1     -11.592  13.527  67.447  1.00  0.00    -0.356 C  
BRANCH   4   5
HETATM    5  N   UNL     1     -10.217  12.932  67.662  1.00  0.00    -0.217 NA 
HETATM    6  C   UNL     1      -8.980  13.458  67.210  1.00  0.00    -0.221 A  
HETATM    7  N   UNL     1      -7.974  12.762  67.704  1.00  0.00    -0.152 NA 
HETATM    8  N   UNL     1      -7.795  10.814  69.115  1.00  0.00    -0.148 N  
HETATM    9  C   UNL     1      -8.522  11.742  68.395  1.00  0.00    -0.155 A  
HETATM   10  O   UNL     1      -7.905   9.300  70.820  1.00  0.00    -0.142 OA 
HETATM   11  C   UNL     1      -9.892  11.753  68.366  1.00  0.00    -0.199 A  
HETATM   12  C   UNL     1      -6.345  10.874  69.153  1.00  0.00    -0.058 C  
HETATM   13  C   UNL     1     -10.635  10.684  68.984  1.00  0.00    -0.219 C  
HETATM   14  C   UNL     1      -8.471   9.892  69.895  1.00  0.00    -0.191 C  
HETATM   15  O   UNL     1     -11.862  10.657  68.997  1.00  0.00    -0.270 OA 
HETATM   16  N   UNL     1      -9.831   9.700  69.603  1.00  0.00    -0.201 N  
BRANCH   6  17
HETATM   17  N   UNL     1      -8.790  14.588  66.464  1.00  0.00    -0.184 NA 
HETATM   18  N   UNL     1      -9.027  16.821  68.733  1.00  0.00    -0.257 NA 
HETATM   19  C   UNL     1      -9.509  17.442  66.396  1.00  0.00    -0.279 C  
HETATM   20  C   UNL     1      -7.821  15.615  66.885  1.00  0.00    -0.223 C  
HETATM   21  C   UNL     1     -10.567  16.374  66.162  1.00  0.00    -0.259 C  
HETATM   22  C   UNL     1      -9.942  15.069  65.662  1.00  0.00    -0.355 C  
HETATM   23  C   UNL     1      -8.455  16.943  67.385  1.00  0.00    -0.190 C  
HETATM   24  H1  UNL     1      -8.324  16.488  69.393  1.00  0.00     0.000 HD 
HETATM   25  H2  UNL     1      -9.860  16.233  68.739  1.00  0.00     0.000 HD 
ENDBRANCH   6  17
BRANCH  16  26
HETATM   26  C   UNL     1     -10.453   8.537  70.285  1.00  0.00    -0.220 C  
BRANCH  26  27
HETATM   27  C   UNL     1      -9.976   7.127  69.861  1.00  0.00    -0.182 A  
HETATM   28  N   UNL     1      -9.569   6.952  68.578  1.00  0.00    -0.132 NA 
HETATM   29  C   UNL     1      -9.339   5.696  68.134  1.00  0.00    -0.111 A  
HETATM   30  C   UNL     1      -9.522   4.568  68.946  1.00  0.00    -0.225 A  
HETATM   31  C   UNL     1      -9.332   3.262  68.391  1.00  0.00    -0.241 A  
HETATM   32  C   UNL     1      -9.897   4.852  70.267  1.00  0.00    -0.236 A  
HETATM   33  C   UNL     1      -8.948   3.078  67.065  1.00  0.00    -0.176 A  
HETATM   34  C   UNL     1     -10.207   3.774  71.266  1.00  0.00     0.080 C  
HETATM   35  N   UNL     1     -10.097   6.108  70.730  1.00  0.00    -0.188 NA 
HETATM   36  C   UNL     1      -8.735   4.194  66.273  1.00  0.00    -0.115 A  
HETATM   37  C   UNL     1      -8.931   5.476  66.814  1.00  0.00    -0.114 A  
ENDBRANCH  26  27
ENDBRANCH  16  26
ENDBRANCH   4   5
ENDBRANCH   3   4
TORSDOF 5
ENDMDL
MODEL      131
REMARK 921   NORMALIZED FREE ENERGY PREDICTED BY IDOCK:   -5.37 KCAL/MOL
REMARK 922        TOTAL FREE ENERGY PREDICTED BY IDOCK:   -7.44 KCAL/MOL
REMARK 923 INTER-LIGAND FREE ENERGY PREDICTED BY IDOCK:   -6.76 KCAL/MOL
REMARK 924 INTRA-LIGAND FREE ENERGY PREDICTED BY IDOCK:   -0.68 KCAL/MOL
REMARK 927      BINDING AFFINITY PREDICTED BY RF-SCORE:    0.00 PKD
ROOT
HETATM    1  C   UNL     1      -8.346   8.302  74.079  1.00  0.00    -0.259 C  
HETATM    2  C   UNL     1      -9.149   8.073  72.809  1.00  0.00    -0.303 C  
HETATM    3  C   UNL     1      -9.839   7.877  71.719  1.00  0.00    -0.223 C  
ENDROOT
BRANCH   3   4
HETATM    4  C   UNL     1     -10.641   7.648  70.449  1.00  0.00    -0.230 C  
BRANCH   4   5
HETATM    5  N   UNL     1      -9.637   7.391  69.346  1.00  0.00    -0.155 NA 
HETATM    6  C   UNL     1      -9.300   6.138  68.775  1.00  0.00    -0.123 A  
HETATM    7  N   UNL     1      -8.500   6.302  67.740  1.00  0.00    -0.117 NA 
HETATM    8  N   UNL     1      -7.473   8.211  66.681  1.00  0.00    -0.088 N  
HETATM    9  C   UNL     1      -8.235   7.623  67.672  1.00  0.00    -0.121 A  
HETATM   10  O   UNL     1      -7.042  10.177  65.603  1.00  0.00    -0.119 OA 
HETATM   11  C   UNL     1      -8.854   8.343  68.659  1.00  0.00    -0.136 A  
HETATM   12  C   UNL     1      -6.876   7.408  65.628  1.00  0.00    -0.056 C  
HETATM   13  C   UNL     1      -8.609   9.758  68.783  1.00  0.00    -0.127 C  
HETATM   14  C   UNL     1      -7.380   9.591  66.637  1.00  0.00    -0.090 C  
HETATM   15  O   UNL     1      -9.151  10.447  69.640  1.00  0.00    -0.163 OA 
HETATM   16  N   UNL     1      -7.727  10.281  67.810  1.00  0.00    -0.090 N  
BRANCH   6  17
HETATM   17  N   UNL     1      -9.792   4.912  69.131  1.00  0.00    -0.186 NA 
HETATM   18  N   UNL     1      -7.420   3.861  70.992  1.00  0.00    -0.040 NA 
HETATM   19  C   UNL     1      -8.895   2.215  69.900  1.00  0.00    -0.132 C  
HETATM   20  C   UNL     1      -9.813   4.490  70.542  1.00  0.00    -0.227 C  
HETATM   21  C   UNL     1      -8.681   2.724  68.482  1.00  0.00    -0.136 C  
HETATM   22  C   UNL     1      -9.685   3.825  68.127  1.00  0.00    -0.046 C  
HETATM   23  C   UNL     1      -8.800   3.366  70.902  1.00  0.00    -0.084 C  
HETATM   24  H1  UNL     1      -7.356   4.630  71.660  1.00  0.00     0.000 HD 
HETATM   25  H2  UNL     1      -7.051   4.124  70.078  1.00  0.00     0.000 HD 
ENDBRANCH   6  17
BRANCH  16  26
HETATM   26  C   UNL     1      -7.378  11.724  67.806  1.00  0.00    -0.106 C  
BRANCH  26  27
HETATM   27  C   UNL     1      -8.407  12.701  67.188  1.00  0.00    -0.172 A  
HETATM   28  N   UNL     1      -9.494  12.175  66.570  1.00  0.00    -0.226 NA 
HETATM   29  C   UNL     1     -10.297  12.994  65.854  1.00  0.00    -0.288 A  
HETATM   30  C   UNL     1     -10.037  14.365  65.717  1.00  0.00    -0.361 A  
HETATM   31  C   UNL     1     -10.888  15.162  64.884  1.00  0.00    -0.437 A  
HETATM   32  C   UNL     1      -8.921  14.824  66.429  1.00  0.00    -0.188 A  
HETATM   33  C   UNL     1     -11.984  14.617  64.220  1.00  0.00    -0.406 A  
HETATM   34  C   UNL     1      -8.444  16.247  66.350  1.00  0.00    -0.365 C  
HETATM   35  N   UNL     1      -8.131  14.017  67.175  1.00  0.00    -0.147 NA 
HETATM   36  C   UNL     1     -12.258  13.270  64.384  1.00  0.00    -0.449 A  
HETATM   37  C   UNL     1     -11.419  12.484  65.192  1.00  0.00    -0.369 A  
ENDBRANCH  26  27
ENDBRANCH  16  26
ENDBRANCH   4   5
ENDBRANCH   3   4
TORSDOF 5
ENDMDL
MODEL      132
REMARK 921   NORMALIZED FREE ENERGY PREDICTED BY IDOCK:   -5.35 KCAL/MOL
REMARK 922        TOTAL FREE ENERGY PREDICTED BY IDOCK:   -7.42 KCAL/MOL
REMARK 923 INTER-LIGAND FREE ENERGY PREDICTED BY IDOCK:   -8.41 KCAL/MOL
REMARK 924 INTRA-LIGAND FREE ENERGY PREDICTED BY IDOCK:    0.99 KCAL/MOL
REMARK 927      BINDING AFFINITY PREDICTED BY RF-SCORE:    0.00 PKD
ROOT
HETATM    1  C   UNL     1     -12.123  12.275  64.022  1.00  0.00    -0.563 C  
HETATM    2  C   UNL     1     -11.323  12.195  65.313  1.00  0.00    -0.386 C  
HETATM    3  C   UNL     1     -10.637  12.126  66.420  1.00  0.00    -0.275 C  
ENDROOT
BRANCH   3   4
HETATM    4  C   UNL     1      -9.837  12.047  67.709  1.00  0.00    -0.190 C  
BRANCH   4   5
HETATM    5  N   UNL     1     -10.811  12.313  68.837  1.00  0.00    -0.218 NA 
HETATM    6  C   UNL     1     -11.571  11.353  69.551  1.00  0.00    -0.331 A  
HETATM    7  N   UNL     1     -12.199  11.921  70.562  1.00  0.00    -0.363 NA 
HETATM    8  N   UNL     1     -12.375  14.179  71.393  1.00  0.00    -0.352 N  
HETATM    9  C   UNL     1     -11.940  13.242  70.476  1.00  0.00    -0.240 A  
HETATM   10  O   UNL     1     -11.977  16.264  72.234  1.00  0.00    -0.511 OA 
HETATM   11  C   UNL     1     -11.141  13.560  69.409  1.00  0.00    -0.119 A  
HETATM   12  C   UNL     1     -13.182  13.783  72.533  1.00  0.00    -0.498 C  
HETATM   13  C   UNL     1     -10.836  14.939  69.122  1.00  0.00    -0.250 C  
HETATM   14  C   UNL     1     -11.935  15.486  71.275  1.00  0.00    -0.388 C  
HETATM   15  O   UNL     1     -10.114  15.272  68.188  1.00  0.00    -0.225 OA 
HETATM   16  N   UNL     1     -11.407  15.860  70.028  1.00  0.00    -0.331 N  
BRANCH   6  17
HETATM   17  N   UNL     1     -11.598  10.002  69.340  1.00  0.00    -0.092 NA 
HETATM   18  N   UNL     1     -10.499   8.961  72.151  1.00  0.00    -0.317 NA 
HETATM   19  C   UNL     1     -10.242   7.522  70.164  1.00  0.00    -0.206 C  
HETATM   20  C   UNL     1     -12.221   9.099  70.323  1.00  0.00     0.338 C  
HETATM   21  C   UNL     1      -9.515   8.553  69.314  1.00  0.00    -0.158 C  
HETATM   22  C   UNL     1     -10.500   9.423  68.528  1.00  0.00    -0.208 C  
HETATM   23  C   UNL     1     -11.222   8.209  71.115  1.00  0.00    -0.257 C  
HETATM   24  H1  UNL     1     -11.153   9.419  72.786  1.00  0.00     0.000 HD 
HETATM   25  H2  UNL     1      -9.838   9.623  71.745  1.00  0.00     0.000 HD 
ENDBRANCH   6  17
BRANCH  16  26
HETATM   26  C   UNL     1     -11.181  17.318  69.864  1.00  0.00     0.976 C  
BRANCH  26  27
HETATM   27  C   UNL     1     -10.243  17.768  68.719  1.00  0.00    -0.373 A  
HETATM   28  N   UNL     1      -8.904  17.696  68.927  1.00  0.00    -0.188 NA 
HETATM   29  C   UNL     1      -8.073  18.265  68.025  1.00  0.00    -0.270 A  
HETATM   30  C   UNL     1      -8.546  18.938  66.891  1.00  0.00    -0.300 A  
HETATM   31  C   UNL     1      -7.614  19.581  66.014  1.00  0.00    -0.326 A  
HETATM   32  C   UNL     1      -9.939  18.918  66.736  1.00  0.00    -0.360 A  
HETATM   33  C   UNL     1      -6.241  19.539  66.245  1.00  0.00    -0.184 A  
HETATM   34  C   UNL     1     -10.637  19.644  65.621  1.00  0.00    -0.462 C  
HETATM   35  N   UNL     1     -10.777  18.322  67.617  1.00  0.00    -0.403 NA 
HETATM   36  C   UNL     1      -5.774  18.845  67.348  1.00  0.00    -0.160 A  
HETATM   37  C   UNL     1      -6.687  18.223  68.214  1.00  0.00    -0.218 A  
ENDBRANCH  26  27
ENDBRANCH  16  26
ENDBRANCH   4   5
ENDBRANCH   3   4
TORSDOF 5
ENDMDL
MODEL      133
REMARK 921   NORMALIZED FREE ENERGY PREDICTED BY IDOCK:   -5.28 KCAL/MOL
REMARK 922        TOTAL FREE ENERGY PREDICTED BY IDOCK:   -7.33 KCAL/MOL
REMARK 923 INTER-LIGAND FREE ENERGY PREDICTED BY IDOCK:   -6.87 KCAL/MOL
REMARK 924 INTRA-LIGAND FREE ENERGY PREDICTED BY IDOCK:   -0.46 KCAL/MOL
REMARK 927      BINDING AFFINITY PREDICTED BY RF-SCORE:    0.00 PKD
ROOT
HETATM    1  C   UNL     1      -6.973  14.084  68.609  1.00  0.00    -0.106 C  
HETATM    2  C   UNL     1      -8.320  13.399  68.441  1.00  0.00    -0.137 C  
HETATM    3  C   UNL     1      -9.475  12.811  68.296  1.00  0.00    -0.203 C  
ENDROOT
BRANCH   3   4
HETATM    4  C   UNL     1     -10.821  12.126  68.129  1.00  0.00    -0.222 C  
BRANCH   4   5
HETATM    5  N   UNL     1     -11.043  11.303  69.380  1.00  0.00    -0.255 NA 
HETATM    6  C   UNL     1     -11.985  11.554  70.409  1.00  0.00    -0.368 A  
HETATM    7  N   UNL     1     -12.006  10.555  71.270  1.00  0.00    -0.327 NA 
HETATM    8  N   UNL     1     -10.783   8.487  71.493  1.00  0.00    -0.241 N  
HETATM    9  C   UNL     1     -11.041   9.697  70.878  1.00  0.00    -0.352 A  
HETATM   10  O   UNL     1      -9.853   6.423  71.192  1.00  0.00    -0.178 OA 
HETATM   11  C   UNL     1     -10.374  10.120  69.759  1.00  0.00    -0.259 A  
HETATM   12  C   UNL     1     -11.551   8.063  72.649  1.00  0.00    -0.387 C  
HETATM   13  C   UNL     1      -9.256   9.362  69.256  1.00  0.00    -0.159 C  
HETATM   14  C   UNL     1      -9.859   7.630  70.921  1.00  0.00    -0.176 C  
HETATM   15  O   UNL     1      -8.637   9.692  68.250  1.00  0.00    -0.118 OA 
HETATM   16  N   UNL     1      -8.966   8.194  69.997  1.00  0.00    -0.142 N  
BRANCH   6  17
HETATM   17  N   UNL     1     -12.854  12.606  70.491  1.00  0.00     0.049 NA 
HETATM   18  N   UNL     1     -10.806  15.003  70.997  1.00  0.00    -0.554 NA 
HETATM   19  C   UNL     1     -13.141  15.253  71.748  1.00  0.00    -0.488 C  
HETATM   20  C   UNL     1     -12.625  13.835  69.711  1.00  0.00    -0.031 C  
HETATM   21  C   UNL     1     -13.173  13.990  72.595  1.00  0.00    -0.606 C  
HETATM   22  C   UNL     1     -13.594  12.773  71.766  1.00  0.00    -0.127 C  
HETATM   23  C   UNL     1     -12.206  15.073  70.553  1.00  0.00    -0.337 C  
HETATM   24  H1  UNL     1     -10.181  14.883  70.199  1.00  0.00     0.000 HD 
HETATM   25  H2  UNL     1     -10.667  14.277  71.699  1.00  0.00     0.000 HD 
ENDBRANCH   6  17
BRANCH  16  26
HETATM   26  C   UNL     1      -7.843   7.309  69.601  1.00  0.00    -0.118 C  
BRANCH  26  27
HETATM   27  C   UNL     1      -8.019   6.472  68.311  1.00  0.00    -0.110 A  
HETATM   28  N   UNL     1      -6.957   6.361  67.473  1.00  0.00    -0.076 NA 
HETATM   29  C   UNL     1      -7.144   5.807  66.254  1.00  0.00    -0.068 A  
HETATM   30  C   UNL     1      -8.399   5.357  65.820  1.00  0.00    -0.126 A  
HETATM   31  C   UNL     1      -8.541   4.847  64.489  1.00  0.00    -0.146 A  
HETATM   32  C   UNL     1      -9.422   5.469  66.771  1.00  0.00    -0.140 A  
HETATM   33  C   UNL     1      -7.460   4.766  63.615  1.00  0.00    -0.055 A  
HETATM   34  C   UNL     1     -10.848   5.103  66.467  1.00  0.00    -0.146 C  
HETATM   35  N   UNL     1      -9.237   5.991  68.006  1.00  0.00    -0.116 NA 
HETATM   36  C   UNL     1      -6.215   5.180  64.057  1.00  0.00    -0.022 A  
HETATM   37  C   UNL     1      -6.076   5.690  65.359  1.00  0.00    -0.026 A  
ENDBRANCH  26  27
ENDBRANCH  16  26
ENDBRANCH   4   5
ENDBRANCH   3   4
TORSDOF 5
ENDMDL
MODEL      134
REMARK 921   NORMALIZED FREE ENERGY PREDICTED BY IDOCK:   -5.22 KCAL/MOL
REMARK 922        TOTAL FREE ENERGY PREDICTED BY IDOCK:   -7.25 KCAL/MOL
REMARK 923 INTER-LIGAND FREE ENERGY PREDICTED BY IDOCK:   -6.42 KCAL/MOL
REMARK 924 INTRA-LIGAND FREE ENERGY PREDICTED BY IDOCK:   -0.83 KCAL/MOL
REMARK 927      BINDING AFFINITY PREDICTED BY RF-SCORE:    0.00 PKD
ROOT
HETATM    1  C   UNL     1     -14.039   8.918  72.008  1.00  0.00    -0.477 C  
HETATM    2  C   UNL     1     -12.819   8.071  71.682  1.00  0.00    -0.350 C  
HETATM    3  C   UNL     1     -11.773   7.346  71.402  1.00  0.00    -0.316 C  
ENDROOT
BRANCH   3   4
HETATM    4  C   UNL     1     -10.553   6.499  71.077  1.00  0.00    -0.231 C  
BRANCH   4   5
HETATM    5  N   UNL     1      -9.344   7.316  71.480  1.00  0.00    -0.149 NA 
HETATM    6  C   UNL     1      -8.579   7.179  72.666  1.00  0.00    -0.118 A  
HETATM    7  N   UNL     1      -7.512   7.952  72.619  1.00  0.00    -0.098 NA 
HETATM    8  N   UNL     1      -6.641   9.541  71.027  1.00  0.00    -0.085 N  
HETATM    9  C   UNL     1      -7.603   8.656  71.472  1.00  0.00    -0.106 A  
HETATM   10  O   UNL     1      -5.811  10.592  69.177  1.00  0.00    -0.041 OA 
HETATM   11  C   UNL     1      -8.730   8.357  70.752  1.00  0.00    -0.150 A  
HETATM   12  C   UNL     1      -5.442   9.788  71.806  1.00  0.00    -0.041 C  
HETATM   13  C   UNL     1      -9.025   9.081  69.541  1.00  0.00    -0.147 C  
HETATM   14  C   UNL     1      -6.780  10.105  69.771  1.00  0.00    -0.096 C  
HETATM   15  O   UNL     1     -10.012   8.840  68.854  1.00  0.00    -0.180 OA 
HETATM   16  N   UNL     1      -8.062  10.057  69.199  1.00  0.00    -0.115 N  
BRANCH   6  17
HETATM   17  N   UNL     1      -8.804   6.305  73.693  1.00  0.00    -0.124 NA 
HETATM   18  N   UNL     1      -9.233   3.596  72.059  1.00  0.00    -0.108 NA 
HETATM   19  C   UNL     1     -10.225   3.801  74.308  1.00  0.00    -0.237 C  
HETATM   20  C   UNL     1      -8.073   5.029  73.770  1.00  0.00    -0.106 C  
HETATM   21  C   UNL     1     -11.001   5.079  74.024  1.00  0.00    -0.155 C  
HETATM   22  C   UNL     1     -10.153   6.321  74.310  1.00  0.00    -0.335 C  
HETATM   23  C   UNL     1      -8.935   3.766  73.488  1.00  0.00    -0.095 C  
HETATM   24  H1  UNL     1      -8.373   3.573  71.512  1.00  0.00     0.000 HD 
HETATM   25  H2  UNL     1      -9.878   4.310  71.720  1.00  0.00     0.000 HD 
ENDBRANCH   6  17
BRANCH  16  26
HETATM   26  C   UNL     1      -8.226  10.884  67.977  1.00  0.00    -0.121 C  
BRANCH  26  27
HETATM   27  C   UNL     1      -8.514  12.392  68.172  1.00  0.00    -0.180 A  
HETATM   28  N   UNL     1      -9.759  12.757  68.568  1.00  0.00    -0.175 NA 
HETATM   29  C   UNL     1     -10.091  14.067  68.553  1.00  0.00    -0.236 A  
HETATM   30  C   UNL     1      -9.197  15.061  68.128  1.00  0.00    -0.183 A  
HETATM   31  C   UNL     1      -9.636  16.422  68.068  1.00  0.00    -0.226 A  
HETATM   32  C   UNL     1      -7.921  14.593  67.785  1.00  0.00    -0.156 A  
HETATM   33  C   UNL     1     -10.926  16.795  68.440  1.00  0.00    -0.325 A  
HETATM   34  C   UNL     1      -6.851  15.497  67.241  1.00  0.00    -0.168 C  
HETATM   35  N   UNL     1      -7.570  13.286  67.829  1.00  0.00    -0.144 NA 
HETATM   36  C   UNL     1     -11.796  15.817  68.891  1.00  0.00    -0.354 A  
HETATM   37  C   UNL     1     -11.370  14.479  68.941  1.00  0.00    -0.298 A  
ENDBRANCH  26  27
ENDBRANCH  16  26
ENDBRANCH   4   5
ENDBRANCH   3   4
TORSDOF 5
ENDMDL
MODEL      135
REMARK 921   NORMALIZED FREE ENERGY PREDICTED BY IDOCK:   -5.21 KCAL/MOL
REMARK 922        TOTAL FREE ENERGY PREDICTED BY IDOCK:   -7.24 KCAL/MOL
REMARK 923 INTER-LIGAND FREE ENERGY PREDICTED BY IDOCK:   -6.68 KCAL/MOL
REMARK 924 INTRA-LIGAND FREE ENERGY PREDICTED BY IDOCK:   -0.55 KCAL/MOL
REMARK 927      BINDING AFFINITY PREDICTED BY RF-SCORE:    0.00 PKD
ROOT
HETATM    1  C   UNL     1     -12.527  14.255  71.632  1.00  0.00    -0.419 C  
HETATM    2  C   UNL     1     -12.299  13.308  70.464  1.00  0.00    -0.389 C  
HETATM    3  C   UNL     1     -12.104  12.496  69.463  1.00  0.00    -0.248 C  
ENDROOT
BRANCH   3   4
HETATM    4  C   UNL     1     -11.878  11.550  68.295  1.00  0.00    -0.256 C  
BRANCH   4   5
HETATM    5  N   UNL     1     -10.379  11.454  68.104  1.00  0.00    -0.182 NA 
HETATM    6  C   UNL     1      -9.616  12.019  67.052  1.00  0.00    -0.195 A  
HETATM    7  N   UNL     1      -8.327  11.864  67.281  1.00  0.00    -0.162 NA 
HETATM    8  N   UNL     1      -7.032  10.808  69.022  1.00  0.00    -0.076 N  
HETATM    9  C   UNL     1      -8.228  11.136  68.413  1.00  0.00    -0.144 A  
HETATM   10  O   UNL     1      -6.076  10.186  71.000  1.00  0.00    -0.209 OA 
HETATM   11  C   UNL     1      -9.448  10.803  68.940  1.00  0.00    -0.181 A  
HETATM   12  C   UNL     1      -5.767  11.226  68.447  1.00  0.00    -0.042 C  
HETATM   13  C   UNL     1      -9.523   9.954  70.103  1.00  0.00    -0.163 C  
HETATM   14  C   UNL     1      -7.059  10.173  70.251  1.00  0.00    -0.138 C  
HETATM   15  O   UNL     1     -10.590   9.640  70.621  1.00  0.00    -0.278 OA 
HETATM   16  N   UNL     1      -8.267   9.554  70.612  1.00  0.00    -0.171 N  
BRANCH   6  17
HETATM   17  N   UNL     1     -10.087  12.732  65.985  1.00  0.00    -0.265 NA 
HETATM   18  N   UNL     1     -11.974  14.826  67.484  1.00  0.00    -0.508 NA 
HETATM   19  C   UNL     1     -12.431  14.291  65.120  1.00  0.00    -0.423 C  
HETATM   20  C   UNL     1     -10.050  14.205  65.988  1.00  0.00    -0.316 C  
HETATM   21  C   UNL     1     -12.534  12.785  65.314  1.00  0.00    -0.528 C  
HETATM   22  C   UNL     1     -11.167  12.110  65.180  1.00  0.00    -0.329 C  
HETATM   23  C   UNL     1     -11.439  14.892  66.117  1.00  0.00    -0.272 C  
HETATM   24  H1  UNL     1     -11.313  15.227  68.149  1.00  0.00     0.000 HD 
HETATM   25  H2  UNL     1     -12.240  13.876  67.741  1.00  0.00     0.000 HD 
ENDBRANCH   6  17
BRANCH  16  26
HETATM   26  C   UNL     1      -8.182   8.679  71.808  1.00  0.00    -0.124 C  
BRANCH  26  27
HETATM   27  C   UNL     1      -8.099   7.153  71.568  1.00  0.00    -0.103 A  
HETATM   28  N   UNL     1      -6.870   6.577  71.542  1.00  0.00    -0.065 NA 
HETATM   29  C   UNL     1      -6.761   5.292  71.139  1.00  0.00    -0.044 A  
HETATM   30  C   UNL     1      -7.871   4.537  70.734  1.00  0.00    -0.064 A  
HETATM   31  C   UNL     1      -7.675   3.203  70.249  1.00  0.00    -0.043 A  
HETATM   32  C   UNL     1      -9.101   5.200  70.841  1.00  0.00    -0.140 A  
HETATM   33  C   UNL     1      -6.411   2.623  70.188  1.00  0.00    -0.028 A  
HETATM   34  C   UNL     1     -10.393   4.579  70.388  1.00  0.00    -0.009 C  
HETATM   35  N   UNL     1      -9.224   6.476  71.274  1.00  0.00    -0.155 NA 
HETATM   36  C   UNL     1      -5.320   3.359  70.620  1.00  0.00    -0.008 A  
HETATM   37  C   UNL     1      -5.509   4.670  71.086  1.00  0.00    -0.007 A  
ENDBRANCH  26  27
ENDBRANCH  16  26
ENDBRANCH   4   5
ENDBRANCH   3   4
TORSDOF 5
ENDMDL
MODEL      136
REMARK 921   NORMALIZED FREE ENERGY PREDICTED BY IDOCK:   -5.12 KCAL/MOL
REMARK 922        TOTAL FREE ENERGY PREDICTED BY IDOCK:   -7.12 KCAL/MOL
REMARK 923 INTER-LIGAND FREE ENERGY PREDICTED BY IDOCK:   -7.36 KCAL/MOL
REMARK 924 INTRA-LIGAND FREE ENERGY PREDICTED BY IDOCK:    0.25 KCAL/MOL
REMARK 927      BINDING AFFINITY PREDICTED BY RF-SCORE:    0.00 PKD
ROOT
HETATM    1  C   UNL     1     -10.508  19.399  66.073  1.00  0.00    -0.596 C  
HETATM    2  C   UNL     1      -9.833  18.572  67.156  1.00  0.00    -0.335 C  
HETATM    3  C   UNL     1      -9.255  17.862  68.084  1.00  0.00    -0.278 C  
ENDROOT
BRANCH   3   4
HETATM    4  C   UNL     1      -8.581  17.034  69.166  1.00  0.00    -0.024 C  
BRANCH   4   5
HETATM    5  N   UNL     1      -7.848  15.916  68.457  1.00  0.00    -0.136 NA 
HETATM    6  C   UNL     1      -6.502  15.926  68.013  1.00  0.00    -0.133 A  
HETATM    7  N   UNL     1      -6.152  14.733  67.571  1.00  0.00    -0.343 NA 
HETATM    8  N   UNL     1      -7.292  12.623  67.311  1.00  0.00    -0.135 N  
HETATM    9  C   UNL     1      -7.260  13.966  67.634  1.00  0.00    -0.174 A  
HETATM   10  O   UNL     1      -8.438  10.674  67.628  1.00  0.00    -0.118 OA 
HETATM   11  C   UNL     1      -8.350  14.642  68.115  1.00  0.00    -0.144 A  
HETATM   12  C   UNL     1      -6.096  11.941  66.850  1.00  0.00    -0.120 C  
HETATM   13  C   UNL     1      -9.636  13.993  68.168  1.00  0.00    -0.220 C  
HETATM   14  C   UNL     1      -8.453  11.907  67.543  1.00  0.00    -0.161 C  
HETATM   15  O   UNL     1     -10.637  14.551  68.603  1.00  0.00    -0.240 OA 
HETATM   16  N   UNL     1      -9.629  12.655  67.712  1.00  0.00    -0.191 N  
BRANCH   6  17
HETATM   17  N   UNL     1      -5.611  16.960  68.107  1.00  0.00    -0.117 NA 
HETATM   18  N   UNL     1      -7.067  18.772  70.296  1.00  0.00     0.743 NA 
HETATM   19  C   UNL     1      -5.491  19.836  68.727  1.00  0.00    -0.228 C  
HETATM   20  C   UNL     1      -5.133  17.423  69.421  1.00  0.00    -0.164 C  
HETATM   21  C   UNL     1      -6.174  19.348  67.458  1.00  0.00    -0.208 C  
HETATM   22  C   UNL     1      -5.641  17.978  67.029  1.00  0.00    -0.136 C  
HETATM   23  C   UNL     1      -5.667  18.818  69.854  1.00  0.00    -0.243 C  
HETATM   24  H1  UNL     1      -7.185  18.093  71.049  1.00  0.00     0.000 HD 
HETATM   25  H2  UNL     1      -7.703  18.590  69.520  1.00  0.00     0.000 HD 
ENDBRANCH   6  17
BRANCH  16  26
HETATM   26  C   UNL     1     -10.879  11.854  67.707  1.00  0.00    -0.211 C  
BRANCH  26  27
HETATM   27  C   UNL     1     -11.200  11.029  68.977  1.00  0.00    -0.258 A  
HETATM   28  N   UNL     1     -10.861   9.715  68.985  1.00  0.00    -0.211 NA 
HETATM   29  C   UNL     1     -11.306   8.934  69.995  1.00  0.00    -0.040 A  
HETATM   30  C   UNL     1     -12.118   9.430  71.025  1.00  0.00    -0.373 A  
HETATM   31  C   UNL     1     -12.615   8.533  72.023  1.00  0.00    -0.414 A  
HETATM   32  C   UNL     1     -12.373  10.807  70.957  1.00  0.00    -0.404 A  
HETATM   33  C   UNL     1     -12.298   7.177  72.014  1.00  0.00    -0.298 A  
HETATM   34  C   UNL     1     -13.279  11.507  71.931  1.00  0.00    -0.479 C  
HETATM   35  N   UNL     1     -11.904  11.603  69.968  1.00  0.00    -0.344 NA 
HETATM   36  C   UNL     1     -11.469   6.695  71.015  1.00  0.00    -0.382 A  
HETATM   37  C   UNL     1     -10.989   7.572  70.029  1.00  0.00    -0.252 A  
ENDBRANCH  26  27
ENDBRANCH  16  26
ENDBRANCH   4   5
ENDBRANCH   3   4
TORSDOF 5
ENDMDL
MODEL      137
REMARK 921   NORMALIZED FREE ENERGY PREDICTED BY IDOCK:   -5.12 KCAL/MOL
REMARK 922        TOTAL FREE ENERGY PREDICTED BY IDOCK:   -7.12 KCAL/MOL
REMARK 923 INTER-LIGAND FREE ENERGY PREDICTED BY IDOCK:   -5.91 KCAL/MOL
REMARK 924 INTRA-LIGAND FREE ENERGY PREDICTED BY IDOCK:   -1.21 KCAL/MOL
REMARK 927      BINDING AFFINITY PREDICTED BY RF-SCORE:    0.00 PKD
ROOT
HETATM    1  C   UNL     1      -7.656   5.779  63.603  1.00  0.00    -0.083 C  
HETATM    2  C   UNL     1      -8.471   6.019  64.864  1.00  0.00    -0.060 C  
HETATM    3  C   UNL     1      -9.170   6.224  65.946  1.00  0.00    -0.050 C  
ENDROOT
BRANCH   3   4
HETATM    4  C   UNL     1      -9.983   6.464  67.207  1.00  0.00    -0.146 C  
BRANCH   4   5
HETATM    5  N   UNL     1      -9.245   7.521  68.000  1.00  0.00    -0.137 NA 
HETATM    6  C   UNL     1      -8.562   7.342  69.229  1.00  0.00    -0.137 A  
HETATM    7  N   UNL     1      -7.909   8.440  69.558  1.00  0.00    -0.100 NA 
HETATM    8  N   UNL     1      -7.685  10.634  68.581  1.00  0.00    -0.102 N  
HETATM    9  C   UNL     1      -8.218   9.360  68.622  1.00  0.00    -0.112 A  
HETATM   10  O   UNL     1      -7.261  12.416  67.218  1.00  0.00    -0.143 OA 
HETATM   11  C   UNL     1      -9.077   8.882  67.667  1.00  0.00    -0.134 A  
HETATM   12  C   UNL     1      -6.742  11.077  69.591  1.00  0.00    -0.137 C  
HETATM   13  C   UNL     1      -9.576   9.761  66.640  1.00  0.00    -0.187 C  
HETATM   14  C   UNL     1      -7.974  11.445  67.497  1.00  0.00    -0.127 C  
HETATM   15  O   UNL     1     -10.335   9.376  65.756  1.00  0.00    -0.139 OA 
HETATM   16  N   UNL     1      -9.086  11.084  66.720  1.00  0.00    -0.159 N  
BRANCH   6  17
HETATM   17  N   UNL     1      -8.462   6.188  69.955  1.00  0.00    -0.127 NA 
HETATM   18  N   UNL     1      -7.466   7.356  72.754  1.00  0.00    -0.075 NA 
HETATM   19  C   UNL     1      -6.960   5.008  72.195  1.00  0.00    -0.066 C  
HETATM   20  C   UNL     1      -9.070   6.085  71.293  1.00  0.00    -0.143 C  
HETATM   21  C   UNL     1      -6.267   5.304  70.873  1.00  0.00    -0.023 C  
HETATM   22  C   UNL     1      -7.269   5.340  69.715  1.00  0.00    -0.063 C  
HETATM   23  C   UNL     1      -8.054   6.040  72.469  1.00  0.00    -0.105 C  
HETATM   24  H1  UNL     1      -8.195   8.045  72.937  1.00  0.00     0.000 HD 
HETATM   25  H2  UNL     1      -6.837   7.659  72.010  1.00  0.00     0.000 HD 
ENDBRANCH   6  17
BRANCH  16  26
HETATM   26  C   UNL     1      -9.508  12.106  65.730  1.00  0.00    -0.147 C  
BRANCH  26  27
HETATM   27  C   UNL     1     -10.086  13.432  66.280  1.00  0.00    -0.299 A  
HETATM   28  N   UNL     1      -9.648  14.594  65.732  1.00  0.00    -0.281 NA 
HETATM   29  C   UNL     1      -9.984  15.762  66.324  1.00  0.00    -0.295 A  
HETATM   30  C   UNL     1     -10.757  15.814  67.493  1.00  0.00    -0.317 A  
HETATM   31  C   UNL     1     -11.016  17.080  68.109  1.00  0.00    -0.263 A  
HETATM   32  C   UNL     1     -11.203  14.568  67.956  1.00  0.00    -0.292 A  
HETATM   33  C   UNL     1     -10.538  18.271  67.568  1.00  0.00    -0.432 A  
HETATM   34  C   UNL     1     -11.983  14.415  69.231  1.00  0.00    -0.362 C  
HETATM   35  N   UNL     1     -10.898  13.396  67.351  1.00  0.00    -0.265 NA 
HETATM   36  C   UNL     1      -9.803  18.220  66.396  1.00  0.00    -0.358 A  
HETATM   37  C   UNL     1      -9.540  16.978  65.795  1.00  0.00    -0.043 A  
ENDBRANCH  26  27
ENDBRANCH  16  26
ENDBRANCH   4   5
ENDBRANCH   3   4
TORSDOF 5
ENDMDL
MODEL      138
REMARK 921   NORMALIZED FREE ENERGY PREDICTED BY IDOCK:   -5.12 KCAL/MOL
REMARK 922        TOTAL FREE ENERGY PREDICTED BY IDOCK:   -7.12 KCAL/MOL
REMARK 923 INTER-LIGAND FREE ENERGY PREDICTED BY IDOCK:   -6.93 KCAL/MOL
REMARK 924 INTRA-LIGAND FREE ENERGY PREDICTED BY IDOCK:   -0.19 KCAL/MOL
REMARK 927      BINDING AFFINITY PREDICTED BY RF-SCORE:    0.00 PKD
ROOT
HETATM    1  C   UNL     1      -9.867   5.925  66.671  1.00  0.00    -0.197 C  
HETATM    2  C   UNL     1     -10.087   6.982  67.742  1.00  0.00    -0.205 C  
HETATM    3  C   UNL     1     -10.275   7.889  68.660  1.00  0.00    -0.223 C  
ENDROOT
BRANCH   3   4
HETATM    4  C   UNL     1     -10.494   8.945  69.731  1.00  0.00    -0.212 C  
BRANCH   4   5
HETATM    5  N   UNL     1      -9.180   9.680  69.885  1.00  0.00    -0.215 NA 
HETATM    6  C   UNL     1      -8.109   9.342  70.749  1.00  0.00    -0.156 A  
HETATM    7  N   UNL     1      -7.065  10.113  70.514  1.00  0.00    -0.310 NA 
HETATM    8  N   UNL     1      -6.622  11.954  69.021  1.00  0.00    -0.084 N  
HETATM    9  C   UNL     1      -7.454  11.004  69.580  1.00  0.00    -0.026 A  
HETATM   10  O   UNL     1      -6.320  13.310  67.208  1.00  0.00    -0.284 OA 
HETATM   11  C   UNL     1      -8.756  10.833  69.189  1.00  0.00    -0.091 A  
HETATM   12  C   UNL     1      -5.235  12.065  69.436  1.00  0.00    -0.064 C  
HETATM   13  C   UNL     1      -9.357  11.755  68.258  1.00  0.00    -0.193 C  
HETATM   14  C   UNL     1      -7.095  12.727  67.974  1.00  0.00    -0.111 C  
HETATM   15  O   UNL     1     -10.513  11.635  67.867  1.00  0.00    -0.183 OA 
HETATM   16  N   UNL     1      -8.489  12.777  67.811  1.00  0.00    -0.164 N  
BRANCH   6  17
HETATM   17  N   UNL     1      -8.065   8.304  71.637  1.00  0.00    -0.123 NA 
HETATM   18  N   UNL     1      -5.988   9.460  73.769  1.00  0.00    -0.319 NA 
HETATM   19  C   UNL     1      -6.261   7.017  73.577  1.00  0.00    -0.062 C  
HETATM   20  C   UNL     1      -8.226   8.541  73.082  1.00  0.00    -0.015 C  
HETATM   21  C   UNL     1      -5.972   6.940  72.085  1.00  0.00    -0.038 C  
HETATM   22  C   UNL     1      -7.248   7.125  71.259  1.00  0.00    -0.074 C  
HETATM   23  C   UNL     1      -6.934   8.346  73.924  1.00  0.00    -0.111 C  
HETATM   24  H1  UNL     1      -6.436  10.347  74.000  1.00  0.00     0.000 HD 
HETATM   25  H2  UNL     1      -5.573   9.478  72.837  1.00  0.00     0.000 HD 
ENDBRANCH   6  17
BRANCH  16  26
HETATM   26  C   UNL     1      -8.964  13.802  66.848  1.00  0.00    -0.221 C  
BRANCH  26  27
HETATM   27  C   UNL     1      -8.655  15.282  67.176  1.00  0.00    -0.211 A  
HETATM   28  N   UNL     1      -9.700  16.106  67.444  1.00  0.00    -0.231 NA 
HETATM   29  C   UNL     1      -9.474  17.436  67.536  1.00  0.00    -0.250 A  
HETATM   30  C   UNL     1      -8.201  17.994  67.350  1.00  0.00    -0.226 A  
HETATM   31  C   UNL     1      -8.045  19.417  67.390  1.00  0.00    -0.313 A  
HETATM   32  C   UNL     1      -7.179  17.061  67.127  1.00  0.00    -0.172 A  
HETATM   33  C   UNL     1      -9.121  20.267  67.629  1.00  0.00    -0.423 A  
HETATM   34  C   UNL     1      -5.763  17.472  66.837  1.00  0.00    -0.194 C  
HETATM   35  N   UNL     1      -7.391  15.726  67.066  1.00  0.00    -0.212 NA 
HETATM   36  C   UNL     1     -10.371  19.712  67.845  1.00  0.00    -0.583 A  
HETATM   37  C   UNL     1     -10.528  18.317  67.797  1.00  0.00    -0.430 A  
ENDBRANCH  26  27
ENDBRANCH  16  26
ENDBRANCH   4   5
ENDBRANCH   3   4
TORSDOF 5
ENDMDL
MODEL      139
REMARK 921   NORMALIZED FREE ENERGY PREDICTED BY IDOCK:   -5.12 KCAL/MOL
REMARK 922        TOTAL FREE ENERGY PREDICTED BY IDOCK:   -7.11 KCAL/MOL
REMARK 923 INTER-LIGAND FREE ENERGY PREDICTED BY IDOCK:   -6.17 KCAL/MOL
REMARK 924 INTRA-LIGAND FREE ENERGY PREDICTED BY IDOCK:   -0.95 KCAL/MOL
REMARK 927      BINDING AFFINITY PREDICTED BY RF-SCORE:    0.00 PKD
ROOT
HETATM    1  C   UNL     1      -5.181  16.120  67.620  1.00  0.00    -0.151 C  
HETATM    2  C   UNL     1      -5.783  14.733  67.788  1.00  0.00    -0.085 C  
HETATM    3  C   UNL     1      -6.299  13.545  67.932  1.00  0.00    -0.155 C  
ENDROOT
BRANCH   3   4
HETATM    4  C   UNL     1      -6.902  12.159  68.099  1.00  0.00    -0.075 C  
BRANCH   4   5
HETATM    5  N   UNL     1      -8.071  12.081  67.142  1.00  0.00    -0.172 NA 
HETATM    6  C   UNL     1      -9.178  12.964  67.074  1.00  0.00    -0.226 A  
HETATM    7  N   UNL     1      -9.929  12.683  66.026  1.00  0.00    -0.257 NA 
HETATM    8  N   UNL     1      -9.859  11.007  64.293  1.00  0.00    -0.275 N  
HETATM    9  C   UNL     1      -9.391  11.585  65.457  1.00  0.00    -0.185 A  
HETATM   10  O   UNL     1      -9.289   9.659  62.541  1.00  0.00    -0.265 OA 
HETATM   11  C   UNL     1      -8.283  11.129  66.121  1.00  0.00    -0.128 A  
HETATM   12  C   UNL     1     -11.011  11.557  63.601  1.00  0.00    -0.404 C  
HETATM   13  C   UNL     1      -7.635   9.914  65.695  1.00  0.00    -0.119 C  
HETATM   14  C   UNL     1      -9.146   9.963  63.731  1.00  0.00    -0.256 C  
HETATM   15  O   UNL     1      -6.633   9.474  66.247  1.00  0.00    -0.069 OA 
HETATM   16  N   UNL     1      -8.232   9.304  64.568  1.00  0.00    -0.142 N  
BRANCH   6  17
HETATM   17  N   UNL     1      -9.423  14.041  67.880  1.00  0.00    -0.203 NA 
HETATM   18  N   UNL     1     -12.600  14.231  67.634  1.00  0.00    -0.375 NA 
HETATM   19  C   UNL     1     -11.329  16.257  68.235  1.00  0.00    -0.280 C  
HETATM   20  C   UNL     1     -10.458  13.978  68.927  1.00  0.00    -0.200 C  
HETATM   21  C   UNL     1     -10.398  16.225  67.032  1.00  0.00    -0.292 C  
HETATM   22  C   UNL     1      -9.149  15.385  67.314  1.00  0.00    -0.206 C  
HETATM   23  C   UNL     1     -11.722  14.837  68.645  1.00  0.00    -0.325 C  
HETATM   24  H1  UNL     1     -12.863  13.284  67.907  1.00  0.00     0.000 HD 
HETATM   25  H2  UNL     1     -12.180  14.254  66.705  1.00  0.00     0.000 HD 
ENDBRANCH   6  17
BRANCH  16  26
HETATM   26  C   UNL     1      -7.676   8.045  64.010  1.00  0.00    -0.137 C  
BRANCH  26  27
HETATM   27  C   UNL     1      -8.096   6.720  64.689  1.00  0.00    -0.086 A  
HETATM   28  N   UNL     1      -8.865   6.792  65.805  1.00  0.00    -0.116 NA 
HETATM   29  C   UNL     1      -9.076   5.667  66.525  1.00  0.00    -0.138 A  
HETATM   30  C   UNL     1      -8.517   4.432  66.166  1.00  0.00    -0.113 A  
HETATM   31  C   UNL     1      -8.722   3.295  67.012  1.00  0.00    -0.136 A  
HETATM   32  C   UNL     1      -7.781   4.447  64.974  1.00  0.00    -0.081 A  
HETATM   33  C   UNL     1      -9.480   3.375  68.177  1.00  0.00    -0.211 A  
HETATM   34  C   UNL     1      -7.049   3.238  64.464  1.00  0.00    -0.057 C  
HETATM   35  N   UNL     1      -7.591   5.562  64.230  1.00  0.00    -0.069 NA 
HETATM   36  C   UNL     1     -10.059   4.588  68.513  1.00  0.00    -0.026 A  
HETATM   37  C   UNL     1      -9.851   5.706  67.689  1.00  0.00    -0.154 A  
ENDBRANCH  26  27
ENDBRANCH  16  26
ENDBRANCH   4   5
ENDBRANCH   3   4
TORSDOF 5
ENDMDL
MODEL      140
REMARK 921   NORMALIZED FREE ENERGY PREDICTED BY IDOCK:   -5.10 KCAL/MOL
REMARK 922        TOTAL FREE ENERGY PREDICTED BY IDOCK:   -7.09 KCAL/MOL
REMARK 923 INTER-LIGAND FREE ENERGY PREDICTED BY IDOCK:   -6.38 KCAL/MOL
REMARK 924 INTRA-LIGAND FREE ENERGY PREDICTED BY IDOCK:   -0.71 KCAL/MOL
REMARK 927      BINDING AFFINITY PREDICTED BY RF-SCORE:    0.00 PKD
ROOT
HETATM    1  C   UNL     1      -9.143   1.825  67.651  1.00  0.00    -0.181 C  
HETATM    2  C   UNL     1      -9.410   2.814  68.774  1.00  0.00    -0.234 C  
HETATM    3  C   UNL     1      -9.639   3.663  69.737  1.00  0.00    -0.228 C  
ENDROOT
BRANCH   3   4
HETATM    4  C   UNL     1      -9.906   4.651  70.860  1.00  0.00    -0.202 C  
BRANCH   4   5
HETATM    5  N   UNL     1      -8.861   5.738  70.733  1.00  0.00    -0.136 NA 
HETATM    6  C   UNL     1      -7.817   6.030  71.647  1.00  0.00    -0.102 A  
HETATM    7  N   UNL     1      -7.006   6.942  71.147  1.00  0.00    -0.068 NA 
HETATM    8  N   UNL     1      -6.953   8.222  69.103  1.00  0.00    -0.062 N  
HETATM    9  C   UNL     1      -7.540   7.318  69.967  1.00  0.00    -0.090 A  
HETATM   10  O   UNL     1      -6.875   8.918  66.930  1.00  0.00    -0.074 OA 
HETATM   11  C   UNL     1      -8.707   6.661  69.676  1.00  0.00    -0.140 A  
HETATM   12  C   UNL     1      -5.690   8.856  69.438  1.00  0.00    -0.035 C  
HETATM   13  C   UNL     1      -9.453   7.006  68.492  1.00  0.00    -0.134 C  
HETATM   14  C   UNL     1      -7.525   8.430  67.861  1.00  0.00    -0.098 C  
HETATM   15  O   UNL     1     -10.494   6.437  68.182  1.00  0.00    -0.170 OA 
HETATM   16  N   UNL     1      -8.860   8.022  67.708  1.00  0.00    -0.126 N  
BRANCH   6  17
HETATM   17  N   UNL     1      -7.570   5.407  72.839  1.00  0.00    -0.096 NA 
HETATM   18  N   UNL     1      -7.275   2.384  71.857  1.00  0.00    -0.038 NA 
HETATM   19  C   UNL     1      -7.929   2.818  74.194  1.00  0.00    -0.064 C  
HETATM   20  C   UNL     1      -6.440   4.473  72.981  1.00  0.00    -0.042 C  
HETATM   21  C   UNL     1      -9.132   3.690  73.865  1.00  0.00    -0.093 C  
HETATM   22  C   UNL     1      -8.733   5.162  73.727  1.00  0.00    -0.116 C  
HETATM   23  C   UNL     1      -6.844   2.979  73.130  1.00  0.00    -0.034 C  
HETATM   24  H1  UNL     1      -6.551   2.491  71.146  1.00  0.00     0.000 HD 
HETATM   25  H2  UNL     1      -8.169   2.762  71.546  1.00  0.00     0.000 HD 
ENDBRANCH   6  17
BRANCH  16  26
HETATM   26  C   UNL     1      -9.510   8.485  66.457  1.00  0.00    -0.218 C  
BRANCH  26  27
HETATM   27  C   UNL     1     -10.275   9.829  66.508  1.00  0.00    -0.219 A  
HETATM   28  N   UNL     1     -10.142  10.678  65.457  1.00  0.00    -0.269 NA 
HETATM   29  C   UNL     1     -10.636  11.932  65.566  1.00  0.00    -0.269 A  
HETATM   30  C   UNL     1     -11.267  12.390  66.731  1.00  0.00    -0.363 A  
HETATM   31  C   UNL     1     -11.701  13.752  66.807  1.00  0.00    -0.420 A  
HETATM   32  C   UNL     1     -11.400  11.428  67.742  1.00  0.00    -0.287 A  
HETATM   33  C   UNL     1     -11.534  14.636  65.743  1.00  0.00    -0.338 A  
HETATM   34  C   UNL     1     -11.986  11.750  69.088  1.00  0.00    -0.356 C  
HETATM   35  N   UNL     1     -10.938  10.161  67.629  1.00  0.00    -0.297 NA 
HETATM   36  C   UNL     1     -10.941  14.172  64.581  1.00  0.00    -0.393 A  
HETATM   37  C   UNL     1     -10.504  12.838  64.509  1.00  0.00    -0.392 A  
ENDBRANCH  26  27
ENDBRANCH  16  26
ENDBRANCH   4   5
ENDBRANCH   3   4
TORSDOF 5
ENDMDL
MODEL      141
REMARK 921   NORMALIZED FREE ENERGY PREDICTED BY IDOCK:   -5.08 KCAL/MOL
REMARK 922        TOTAL FREE ENERGY PREDICTED BY IDOCK:   -7.07 KCAL/MOL
REMARK 923 INTER-LIGAND FREE ENERGY PREDICTED BY IDOCK:   -6.62 KCAL/MOL
REMARK 924 INTRA-LIGAND FREE ENERGY PREDICTED BY IDOCK:   -0.46 KCAL/MOL
REMARK 927      BINDING AFFINITY PREDICTED BY RF-SCORE:    0.00 PKD
ROOT
HETATM    1  C   UNL     1      -8.030  16.016  67.044  1.00  0.00    -0.262 C  
HETATM    2  C   UNL     1      -9.099  14.936  67.001  1.00  0.00    -0.255 C  
HETATM    3  C   UNL     1     -10.016  14.010  66.964  1.00  0.00    -0.257 C  
ENDROOT
BRANCH   3   4
HETATM    4  C   UNL     1     -11.085  12.930  66.922  1.00  0.00    -0.278 C  
BRANCH   4   5
HETATM    5  N   UNL     1     -10.923  12.115  68.186  1.00  0.00    -0.217 NA 
HETATM    6  C   UNL     1     -11.585  12.319  69.423  1.00  0.00    -0.314 A  
HETATM    7  N   UNL     1     -11.316  11.334  70.259  1.00  0.00    -0.190 NA 
HETATM    8  N   UNL     1      -9.938   9.357  70.158  1.00  0.00    -0.212 N  
HETATM    9  C   UNL     1     -10.427  10.537  69.632  1.00  0.00    -0.219 A  
HETATM   10  O   UNL     1      -8.976   7.356  69.626  1.00  0.00    -0.141 OA 
HETATM   11  C   UNL     1     -10.099  10.985  68.379  1.00  0.00    -0.184 A  
HETATM   12  C   UNL     1     -10.354   8.901  71.472  1.00  0.00    -0.324 C  
HETATM   13  C   UNL     1      -9.097  10.296  67.606  1.00  0.00    -0.137 C  
HETATM   14  C   UNL     1      -9.134   8.554  69.368  1.00  0.00    -0.150 C  
HETATM   15  O   UNL     1      -8.780  10.650  66.475  1.00  0.00    -0.139 OA 
HETATM   16  N   UNL     1      -8.547   9.162  68.246  1.00  0.00    -0.128 N  
BRANCH   6  17
HETATM   17  N   UNL     1     -12.474  13.312  69.727  1.00  0.00    -0.104 NA 
HETATM   18  N   UNL     1     -10.464  15.716  70.336  1.00  0.00    -0.310 NA 
HETATM   19  C   UNL     1     -12.716  15.763  71.340  1.00  0.00    -0.509 C  
HETATM   20  C   UNL     1     -12.367  14.638  69.095  1.00  0.00    -0.095 C  
HETATM   21  C   UNL     1     -12.619  14.402  72.014  1.00  0.00    -0.392 C  
HETATM   22  C   UNL     1     -13.084  13.282  71.079  1.00  0.00    -0.078 C  
HETATM   23  C   UNL     1     -11.903  15.778  70.045  1.00  0.00    -0.354 C  
HETATM   24  H1  UNL     1      -9.921  15.726  69.472  1.00  0.00     0.000 HD 
HETATM   25  H2  UNL     1     -10.230  14.913  70.921  1.00  0.00     0.000 HD 
ENDBRANCH   6  17
BRANCH  16  26
HETATM   26  C   UNL     1      -7.505   8.347  67.574  1.00  0.00    -0.094 C  
BRANCH  26  27
HETATM   27  C   UNL     1      -7.944   7.493  66.360  1.00  0.00    -0.107 A  
HETATM   28  N   UNL     1      -8.746   6.423  66.592  1.00  0.00    -0.123 NA 
HETATM   29  C   UNL     1      -8.978   5.552  65.584  1.00  0.00    -0.146 A  
HETATM   30  C   UNL     1      -8.407   5.708  64.313  1.00  0.00    -0.081 A  
HETATM   31  C   UNL     1      -8.635   4.710  63.312  1.00  0.00    -0.123 A  
HETATM   32  C   UNL     1      -7.634   6.867  64.156  1.00  0.00    -0.112 A  
HETATM   33  C   UNL     1      -9.430   3.593  63.558  1.00  0.00    -0.127 A  
HETATM   34  C   UNL     1      -6.886   7.171  62.889  1.00  0.00    -0.053 C  
HETATM   35  N   UNL     1      -7.423   7.761  65.150  1.00  0.00    -0.079 NA 
HETATM   36  C   UNL     1     -10.019   3.458  64.803  1.00  0.00    -0.087 A  
HETATM   37  C   UNL     1      -9.788   4.431  65.790  1.00  0.00    -0.232 A  
ENDBRANCH  26  27
ENDBRANCH  16  26
ENDBRANCH   4   5
ENDBRANCH   3   4
TORSDOF 5
ENDMDL
MODEL      142
REMARK 921   NORMALIZED FREE ENERGY PREDICTED BY IDOCK:   -5.05 KCAL/MOL
REMARK 922        TOTAL FREE ENERGY PREDICTED BY IDOCK:   -7.03 KCAL/MOL
REMARK 923 INTER-LIGAND FREE ENERGY PREDICTED BY IDOCK:   -6.61 KCAL/MOL
REMARK 924 INTRA-LIGAND FREE ENERGY PREDICTED BY IDOCK:   -0.42 KCAL/MOL
REMARK 927      BINDING AFFINITY PREDICTED BY RF-SCORE:    0.00 PKD
ROOT
HETATM    1  C   UNL     1     -11.882  15.626  64.151  1.00  0.00    -0.076 C  
HETATM    2  C   UNL     1     -10.983  15.999  65.320  1.00  0.00    -0.309 C  
HETATM    3  C   UNL     1     -10.213  16.320  66.321  1.00  0.00    -0.339 C  
ENDROOT
BRANCH   3   4
HETATM    4  C   UNL     1      -9.315  16.694  67.489  1.00  0.00    -0.219 C  
BRANCH   4   5
HETATM    5  N   UNL     1      -8.217  15.653  67.538  1.00  0.00    -0.156 NA 
HETATM    6  C   UNL     1      -6.837  15.856  67.285  1.00  0.00    -0.197 A  
HETATM    7  N   UNL     1      -6.151  14.764  67.563  1.00  0.00    -0.343 NA 
HETATM    8  N   UNL     1      -6.729  12.550  68.328  1.00  0.00    -0.071 N  
HETATM    9  C   UNL     1      -7.056  13.825  67.908  1.00  0.00    -0.158 A  
HETATM   10  O   UNL     1      -7.482  10.740  69.498  1.00  0.00    -0.142 OA 
HETATM   11  C   UNL     1      -8.346  14.285  67.861  1.00  0.00    -0.162 A  
HETATM   12  C   UNL     1      -5.343  12.127  68.405  1.00  0.00    -0.051 C  
HETATM   13  C   UNL     1      -9.442  13.385  68.118  1.00  0.00    -0.218 C  
HETATM   14  C   UNL     1      -7.735  11.717  68.784  1.00  0.00    -0.091 C  
HETATM   15  O   UNL     1     -10.612  13.753  68.102  1.00  0.00    -0.241 OA 
HETATM   16  N   UNL     1      -9.048  12.063  68.426  1.00  0.00    -0.182 N  
BRANCH   6  17
HETATM   17  N   UNL     1      -6.232  17.024  66.915  1.00  0.00    -0.184 NA 
HETATM   18  N   UNL     1      -7.523  19.035  69.033  1.00  0.00    -0.326 NA 
HETATM   19  C   UNL     1      -6.676  19.935  66.899  1.00  0.00    -0.230 C  
HETATM   20  C   UNL     1      -5.583  17.887  67.918  1.00  0.00    -0.152 C  
HETATM   21  C   UNL     1      -7.501  19.024  66.003  1.00  0.00    -0.279 C  
HETATM   22  C   UNL     1      -6.767  17.711  65.714  1.00  0.00    -0.129 C  
HETATM   23  C   UNL     1      -6.323  19.223  68.206  1.00  0.00    -0.229 C  
HETATM   24  H1  UNL     1      -7.288  18.560  69.905  1.00  0.00     0.000 HD 
HETATM   25  H2  UNL     1      -8.261  18.548  68.524  1.00  0.00     0.000 HD 
ENDBRANCH   6  17
BRANCH  16  26
HETATM   26  C   UNL     1     -10.065  11.022  68.717  1.00  0.00    -0.203 C  
BRANCH  26  27
HETATM   27  C   UNL     1      -9.933   9.672  67.972  1.00  0.00    -0.160 A  
HETATM   28  N   UNL     1     -10.227   8.536  68.654  1.00  0.00    -0.195 NA 
HETATM   29  C   UNL     1      -9.930   7.343  68.093  1.00  0.00    -0.166 A  
HETATM   30  C   UNL     1      -9.315   7.238  66.837  1.00  0.00    -0.192 A  
HETATM   31  C   UNL     1      -8.962   5.946  66.332  1.00  0.00    -0.143 A  
HETATM   32  C   UNL     1      -9.095   8.462  66.189  1.00  0.00    -0.189 A  
HETATM   33  C   UNL     1      -9.231   4.781  67.046  1.00  0.00    -0.133 A  
HETATM   34  C   UNL     1      -8.385   8.557  64.868  1.00  0.00    -0.171 C  
HETATM   35  N   UNL     1      -9.419   9.659  66.730  1.00  0.00    -0.154 NA 
HETATM   36  C   UNL     1      -9.868   4.884  68.271  1.00  0.00    -0.198 A  
HETATM   37  C   UNL     1     -10.206   6.152  68.772  1.00  0.00    -0.226 A  
ENDBRANCH  26  27
ENDBRANCH  16  26
ENDBRANCH   4   5
ENDBRANCH   3   4
TORSDOF 5
ENDMDL
MODEL      143
REMARK 921   NORMALIZED FREE ENERGY PREDICTED BY IDOCK:   -5.05 KCAL/MOL
REMARK 922        TOTAL FREE ENERGY PREDICTED BY IDOCK:   -7.02 KCAL/MOL
REMARK 923 INTER-LIGAND FREE ENERGY PREDICTED BY IDOCK:   -6.95 KCAL/MOL
REMARK 924 INTRA-LIGAND FREE ENERGY PREDICTED BY IDOCK:   -0.07 KCAL/MOL
REMARK 927      BINDING AFFINITY PREDICTED BY RF-SCORE:    0.00 PKD
ROOT
HETATM    1  C   UNL     1     -12.022  15.186  64.013  1.00  0.00    -0.048 C  
HETATM    2  C   UNL     1     -11.490  15.284  65.434  1.00  0.00    -0.184 C  
HETATM    3  C   UNL     1     -11.033  15.369  66.652  1.00  0.00    -0.275 C  
ENDROOT
BRANCH   3   4
HETATM    4  C   UNL     1     -10.502  15.467  68.073  1.00  0.00    -0.259 C  
BRANCH   4   5
HETATM    5  N   UNL     1      -9.105  14.884  68.051  1.00  0.00    -0.177 NA 
HETATM    6  C   UNL     1      -7.887  15.594  67.911  1.00  0.00    -0.133 A  
HETATM    7  N   UNL     1      -6.859  14.786  68.084  1.00  0.00    -0.112 NA 
HETATM    8  N   UNL     1      -6.615  12.425  68.513  1.00  0.00    -0.067 N  
HETATM    9  C   UNL     1      -7.371  13.549  68.246  1.00  0.00    -0.116 A  
HETATM   10  O   UNL     1      -6.683  10.317  69.387  1.00  0.00    -0.049 OA 
HETATM   11  C   UNL     1      -8.740  13.527  68.182  1.00  0.00    -0.174 A  
HETATM   12  C   UNL     1      -5.169  12.510  68.618  1.00  0.00    -0.059 C  
HETATM   13  C   UNL     1      -9.445  12.272  68.251  1.00  0.00    -0.209 C  
HETATM   14  C   UNL     1      -7.261  11.234  68.794  1.00  0.00    -0.104 C  
HETATM   15  O   UNL     1     -10.669  12.202  68.213  1.00  0.00    -0.206 OA 
HETATM   16  N   UNL     1      -8.608  11.144  68.406  1.00  0.00    -0.146 N  
BRANCH   6  17
HETATM   17  N   UNL     1      -7.735  16.942  67.735  1.00  0.00    -0.171 NA 
HETATM   18  N   UNL     1     -10.429  18.002  69.082  1.00  0.00    -0.396 NA 
HETATM   19  C   UNL     1      -9.313  19.403  67.387  1.00  0.00    -0.388 C  
HETATM   20  C   UNL     1      -7.927  17.874  68.860  1.00  0.00    -0.168 C  
HETATM   21  C   UNL     1      -9.286  18.343  66.295  1.00  0.00    -0.217 C  
HETATM   22  C   UNL     1      -8.022  17.483  66.384  1.00  0.00    -0.285 C  
HETATM   23  C   UNL     1      -9.206  18.753  68.766  1.00  0.00    -0.302 C  
HETATM   24  H1  UNL     1     -10.358  17.568  70.002  1.00  0.00     0.000 HD 
HETATM   25  H2  UNL     1     -10.650  17.319  68.358  1.00  0.00     0.000 HD 
ENDBRANCH   6  17
BRANCH  16  26
HETATM   26  C   UNL     1      -9.188   9.781  68.495  1.00  0.00    -0.134 C  
BRANCH  26  27
HETATM   27  C   UNL     1      -9.701   9.316  69.880  1.00  0.00    -0.201 A  
HETATM   28  N   UNL     1      -8.783   9.063  70.847  1.00  0.00    -0.214 NA 
HETATM   29  C   UNL     1      -9.189   8.470  71.992  1.00  0.00    -0.256 A  
HETATM   30  C   UNL     1     -10.522   8.092  72.208  1.00  0.00    -0.371 A  
HETATM   31  C   UNL     1     -10.871   7.402  73.413  1.00  0.00    -0.362 A  
HETATM   32  C   UNL     1     -11.403   8.437  71.174  1.00  0.00    -0.268 A  
HETATM   33  C   UNL     1      -9.924   7.110  74.392  1.00  0.00    -0.020 A  
HETATM   34  C   UNL     1     -12.856   8.055  71.193  1.00  0.00    -0.126 C  
HETATM   35  N   UNL     1     -11.012   9.061  70.039  1.00  0.00    -0.233 NA 
HETATM   36  C   UNL     1      -8.615   7.513  74.191  1.00  0.00    -0.276 A  
HETATM   37  C   UNL     1      -8.269   8.182  73.005  1.00  0.00    -0.248 A  
ENDBRANCH  26  27
ENDBRANCH  16  26
ENDBRANCH   4   5
ENDBRANCH   3   4
TORSDOF 5
ENDMDL
MODEL      144
REMARK 921   NORMALIZED FREE ENERGY PREDICTED BY IDOCK:   -5.04 KCAL/MOL
REMARK 922        TOTAL FREE ENERGY PREDICTED BY IDOCK:   -7.01 KCAL/MOL
REMARK 923 INTER-LIGAND FREE ENERGY PREDICTED BY IDOCK:   -5.98 KCAL/MOL
REMARK 924 INTRA-LIGAND FREE ENERGY PREDICTED BY IDOCK:   -1.04 KCAL/MOL
REMARK 927      BINDING AFFINITY PREDICTED BY RF-SCORE:    0.00 PKD
ROOT
HETATM    1  C   UNL     1      -9.076   7.841  73.568  1.00  0.00    -0.342 C  
HETATM    2  C   UNL     1      -9.669   7.939  72.171  1.00  0.00    -0.257 C  
HETATM    3  C   UNL     1     -10.177   8.023  70.974  1.00  0.00    -0.217 C  
ENDROOT
BRANCH   3   4
HETATM    4  C   UNL     1     -10.769   8.119  69.577  1.00  0.00    -0.175 C  
BRANCH   4   5
HETATM    5  N   UNL     1      -9.629   7.887  68.610  1.00  0.00    -0.153 NA 
HETATM    6  C   UNL     1      -9.303   6.675  67.951  1.00  0.00    -0.109 A  
HETATM    7  N   UNL     1      -8.342   6.872  67.069  1.00  0.00    -0.119 NA 
HETATM    8  N   UNL     1      -7.022   8.778  66.402  1.00  0.00    -0.081 N  
HETATM    9  C   UNL     1      -7.970   8.163  67.196  1.00  0.00    -0.105 A  
HETATM   10  O   UNL     1      -6.281  10.798  65.638  1.00  0.00    -0.129 OA 
HETATM   11  C   UNL     1      -8.679   8.829  68.161  1.00  0.00    -0.134 A  
HETATM   12  C   UNL     1      -6.332   8.038  65.361  1.00  0.00    -0.048 C  
HETATM   13  C   UNL     1      -8.349  10.195  68.484  1.00  0.00    -0.116 C  
HETATM   14  C   UNL     1      -6.819  10.140  66.535  1.00  0.00    -0.090 C  
HETATM   15  O   UNL     1      -8.964  10.838  69.328  1.00  0.00    -0.136 OA 
HETATM   16  N   UNL     1      -7.290  10.733  67.718  1.00  0.00    -0.091 N  
BRANCH   6  17
HETATM   17  N   UNL     1      -9.935   5.470  68.085  1.00  0.00    -0.144 NA 
HETATM   18  N   UNL     1      -7.471   3.620  68.922  1.00  0.00    -0.053 NA 
HETATM   19  C   UNL     1      -9.434   2.578  67.855  1.00  0.00    -0.181 C  
HETATM   20  C   UNL     1      -9.739   4.646  69.290  1.00  0.00    -0.196 C  
HETATM   21  C   UNL     1      -9.432   3.462  66.616  1.00  0.00    -0.151 C  
HETATM   22  C   UNL     1     -10.256   4.734  66.837  1.00  0.00    -0.186 C  
HETATM   23  C   UNL     1      -8.909   3.350  69.065  1.00  0.00    -0.107 C  
HETATM   24  H1  UNL     1      -7.120   4.136  69.730  1.00  0.00     0.000 HD 
HETATM   25  H2  UNL     1      -7.261   4.100  68.047  1.00  0.00     0.000 HD 
ENDBRANCH   6  17
BRANCH  16  26
HETATM   26  C   UNL     1      -6.837  12.130  67.935  1.00  0.00    -0.095 C  
BRANCH  26  27
HETATM   27  C   UNL     1      -7.782  13.263  67.469  1.00  0.00    -0.171 A  
HETATM   28  N   UNL     1      -7.537  14.521  67.918  1.00  0.00    -0.129 NA 
HETATM   29  C   UNL     1      -8.457  15.485  67.689  1.00  0.00    -0.166 A  
HETATM   30  C   UNL     1      -9.661  15.228  67.018  1.00  0.00    -0.233 A  
HETATM   31  C   UNL     1     -10.624  16.278  66.873  1.00  0.00    -0.270 A  
HETATM   32  C   UNL     1      -9.802  13.914  66.551  1.00  0.00    -0.290 A  
HETATM   33  C   UNL     1     -10.390  17.560  67.364  1.00  0.00    -0.351 A  
HETATM   34  C   UNL     1     -11.051  13.430  65.870  1.00  0.00    -0.293 C  
HETATM   35  N   UNL     1      -8.872  12.950  66.746  1.00  0.00    -0.187 NA 
HETATM   36  C   UNL     1      -9.187  17.820  67.998  1.00  0.00    -0.273 A  
HETATM   37  C   UNL     1      -8.245  16.789  68.149  1.00  0.00    -0.199 A  
ENDBRANCH  26  27
ENDBRANCH  16  26
ENDBRANCH   4   5
ENDBRANCH   3   4
TORSDOF 5
ENDMDL
MODEL      145
REMARK 921   NORMALIZED FREE ENERGY PREDICTED BY IDOCK:   -5.02 KCAL/MOL
REMARK 922        TOTAL FREE ENERGY PREDICTED BY IDOCK:   -6.99 KCAL/MOL
REMARK 923 INTER-LIGAND FREE ENERGY PREDICTED BY IDOCK:   -6.46 KCAL/MOL
REMARK 924 INTRA-LIGAND FREE ENERGY PREDICTED BY IDOCK:   -0.53 KCAL/MOL
REMARK 927      BINDING AFFINITY PREDICTED BY RF-SCORE:    0.00 PKD
ROOT
HETATM    1  C   UNL     1     -11.944  12.229  64.483  1.00  0.00    -0.459 C  
HETATM    2  C   UNL     1     -10.684  11.538  64.982  1.00  0.00    -0.350 C  
HETATM    3  C   UNL     1      -9.605  10.946  65.410  1.00  0.00    -0.271 C  
ENDROOT
BRANCH   3   4
HETATM    4  C   UNL     1      -8.346  10.255  65.908  1.00  0.00    -0.145 C  
BRANCH   4   5
HETATM    5  N   UNL     1      -8.582   8.768  65.754  1.00  0.00    -0.153 NA 
HETATM    6  C   UNL     1      -8.096   7.931  64.718  1.00  0.00    -0.141 A  
HETATM    7  N   UNL     1      -8.370   6.667  64.979  1.00  0.00    -0.107 NA 
HETATM    8  N   UNL     1      -9.534   5.519  66.752  1.00  0.00    -0.134 N  
HETATM    9  C   UNL     1      -9.098   6.663  66.114  1.00  0.00    -0.118 A  
HETATM   10  O   UNL     1     -10.234   4.671  68.754  1.00  0.00    -0.081 OA 
HETATM   11  C   UNL     1      -9.314   7.921  66.613  1.00  0.00    -0.193 A  
HETATM   12  C   UNL     1      -9.239   4.206  66.207  1.00  0.00    -0.155 C  
HETATM   13  C   UNL     1     -10.146   8.103  67.776  1.00  0.00    -0.204 C  
HETATM   14  C   UNL     1     -10.158   5.634  67.982  1.00  0.00    -0.171 C  
HETATM   15  O   UNL     1     -10.357   9.207  68.268  1.00  0.00    -0.199 OA 
HETATM   16  N   UNL     1     -10.660   6.902  68.315  1.00  0.00    -0.208 N  
BRANCH   6  17
HETATM   17  N   UNL     1      -7.346   8.308  63.639  1.00  0.00    -0.102 NA 
HETATM   18  N   UNL     1      -5.861  10.867  64.838  1.00  0.00    -0.370 NA 
HETATM   19  C   UNL     1      -6.151  10.694  62.395  1.00  0.00    -0.149 C  
HETATM   20  C   UNL     1      -5.906   8.585  63.781  1.00  0.00    -0.071 C  
HETATM   21  C   UNL     1      -7.661  10.514  62.425  1.00  0.00    -0.189 C  
HETATM   22  C   UNL     1      -8.046   9.037  62.553  1.00  0.00    -0.152 C  
HETATM   23  C   UNL     1      -5.514  10.083  63.644  1.00  0.00    -0.111 C  
HETATM   24  H1  UNL     1      -5.437  10.460  65.671  1.00  0.00     0.000 HD 
HETATM   25  H2  UNL     1      -6.870  10.974  64.941  1.00  0.00     0.000 HD 
ENDBRANCH   6  17
BRANCH  16  26
HETATM   26  C   UNL     1     -11.533   6.927  69.515  1.00  0.00    -0.110 C  
BRANCH  26  27
HETATM   27  C   UNL     1     -10.842   6.855  70.898  1.00  0.00    -0.244 A  
HETATM   28  N   UNL     1      -9.853   7.745  71.163  1.00  0.00    -0.169 NA 
HETATM   29  C   UNL     1      -9.105   7.576  72.277  1.00  0.00    -0.137 A  
HETATM   30  C   UNL     1      -9.307   6.505  73.159  1.00  0.00    -0.146 A  
HETATM   31  C   UNL     1      -8.432   6.344  74.281  1.00  0.00    -0.136 A  
HETATM   32  C   UNL     1     -10.381   5.667  72.828  1.00  0.00    -0.193 A  
HETATM   33  C   UNL     1      -7.393   7.236  74.536  1.00  0.00    -0.133 A  
HETATM   34  C   UNL     1     -10.708   4.429  73.613  1.00  0.00    -0.339 C  
HETATM   35  N   UNL     1     -11.155   5.848  71.733  1.00  0.00    -0.270 NA 
HETATM   36  C   UNL     1      -7.217   8.312  73.682  1.00  0.00    -0.171 A  
HETATM   37  C   UNL     1      -8.068   8.466  72.575  1.00  0.00    -0.177 A  
ENDBRANCH  26  27
ENDBRANCH  16  26
ENDBRANCH   4   5
ENDBRANCH   3   4
TORSDOF 5
ENDMDL
MODEL      146
REMARK 921   NORMALIZED FREE ENERGY PREDICTED BY IDOCK:   -5.02 KCAL/MOL
REMARK 922        TOTAL FREE ENERGY PREDICTED BY IDOCK:   -6.99 KCAL/MOL
REMARK 923 INTER-LIGAND FREE ENERGY PREDICTED BY IDOCK:   -6.70 KCAL/MOL
REMARK 924 INTRA-LIGAND FREE ENERGY PREDICTED BY IDOCK:   -0.29 KCAL/MOL
REMARK 927      BINDING AFFINITY PREDICTED BY RF-SCORE:    0.00 PKD
ROOT
HETATM    1  C   UNL     1      -9.948   5.126  70.479  1.00  0.00    -0.304 C  
HETATM    2  C   UNL     1     -10.041   5.159  68.961  1.00  0.00    -0.257 C  
HETATM    3  C   UNL     1     -10.120   5.189  67.660  1.00  0.00    -0.204 C  
ENDROOT
BRANCH   3   4
HETATM    4  C   UNL     1     -10.212   5.221  66.144  1.00  0.00    -0.184 C  
BRANCH   4   5
HETATM    5  N   UNL     1      -8.896   5.777  65.645  1.00  0.00    -0.153 NA 
HETATM    6  C   UNL     1      -7.945   5.115  64.828  1.00  0.00    -0.104 A  
HETATM    7  N   UNL     1      -6.989   5.947  64.465  1.00  0.00    -0.050 NA 
HETATM    8  N   UNL     1      -6.494   8.262  64.926  1.00  0.00    -0.056 N  
HETATM    9  C   UNL     1      -7.241   7.113  65.094  1.00  0.00    -0.073 A  
HETATM   10  O   UNL     1      -6.533  10.537  65.121  1.00  0.00    -0.118 OA 
HETATM   11  C   UNL     1      -8.364   7.064  65.878  1.00  0.00    -0.141 A  
HETATM   12  C   UNL     1      -5.339   8.276  64.047  1.00  0.00    -0.045 C  
HETATM   13  C   UNL     1      -8.730   8.199  66.686  1.00  0.00    -0.139 C  
HETATM   14  C   UNL     1      -6.927   9.435  65.519  1.00  0.00    -0.086 C  
HETATM   15  O   UNL     1      -9.733   8.209  67.392  1.00  0.00    -0.151 OA 
HETATM   16  N   UNL     1      -7.859   9.305  66.561  1.00  0.00    -0.100 N  
BRANCH   6  17
HETATM   17  N   UNL     1      -8.015   3.833  64.358  1.00  0.00    -0.085 NA 
HETATM   18  N   UNL     1     -11.173   3.526  63.998  1.00  0.00    -0.514 NA 
HETATM   19  C   UNL     1      -9.808   1.498  64.318  1.00  0.00    -0.046 C  
HETATM   20  C   UNL     1      -8.804   3.514  63.155  1.00  0.00    -0.094 C  
HETATM   21  C   UNL     1      -9.156   1.947  65.617  1.00  0.00    -0.067 C  
HETATM   22  C   UNL     1      -7.873   2.741  65.351  1.00  0.00    -0.081 C  
HETATM   23  C   UNL     1     -10.102   2.701  63.422  1.00  0.00    -0.142 C  
HETATM   24  H1  UNL     1     -11.369   4.330  63.401  1.00  0.00     0.000 HD 
HETATM   25  H2  UNL     1     -10.960   3.809  64.955  1.00  0.00     0.000 HD 
ENDBRANCH   6  17
BRANCH  16  26
HETATM   26  C   UNL     1      -8.106  10.551  67.331  1.00  0.00    -0.111 C  
BRANCH  26  27
HETATM   27  C   UNL     1      -9.344  11.393  66.940  1.00  0.00    -0.181 A  
HETATM   28  N   UNL     1      -9.761  11.352  65.650  1.00  0.00    -0.224 NA 
HETATM   29  C   UNL     1     -10.710  12.225  65.243  1.00  0.00    -0.292 A  
HETATM   30  C   UNL     1     -11.266  13.181  66.104  1.00  0.00    -0.320 A  
HETATM   31  C   UNL     1     -12.214  14.124  65.590  1.00  0.00    -0.449 A  
HETATM   32  C   UNL     1     -10.808  13.115  67.427  1.00  0.00    -0.255 A  
HETATM   33  C   UNL     1     -12.617  14.107  64.257  1.00  0.00    -0.162 A  
HETATM   34  C   UNL     1     -11.236  14.100  68.478  1.00  0.00    -0.285 C  
HETATM   35  N   UNL     1      -9.883  12.222  67.851  1.00  0.00    -0.195 NA 
HETATM   36  C   UNL     1     -12.091  13.141  63.417  1.00  0.00    -0.558 A  
HETATM   37  C   UNL     1     -11.154  12.221  63.917  1.00  0.00    -0.475 A  
ENDBRANCH  26  27
ENDBRANCH  16  26
ENDBRANCH   4   5
ENDBRANCH   3   4
TORSDOF 5
ENDMDL
MODEL      147
REMARK 921   NORMALIZED FREE ENERGY PREDICTED BY IDOCK:   -5.01 KCAL/MOL
REMARK 922        TOTAL FREE ENERGY PREDICTED BY IDOCK:   -6.98 KCAL/MOL
REMARK 923 INTER-LIGAND FREE ENERGY PREDICTED BY IDOCK:   -6.49 KCAL/MOL
REMARK 924 INTRA-LIGAND FREE ENERGY PREDICTED BY IDOCK:   -0.49 KCAL/MOL
REMARK 927      BINDING AFFINITY PREDICTED BY RF-SCORE:    0.00 PKD
ROOT
HETATM    1  C   UNL     1      -8.625   5.035  66.103  1.00  0.00    -0.118 C  
HETATM    2  C   UNL     1      -8.311   5.848  67.349  1.00  0.00    -0.105 C  
HETATM    3  C   UNL     1      -8.042   6.546  68.417  1.00  0.00    -0.111 C  
ENDROOT
BRANCH   3   4
HETATM    4  C   UNL     1      -7.728   7.359  69.662  1.00  0.00    -0.107 C  
BRANCH   4   5
HETATM    5  N   UNL     1      -9.052   7.627  70.345  1.00  0.00    -0.152 NA 
HETATM    6  C   UNL     1      -9.611   6.910  71.432  1.00  0.00    -0.166 A  
HETATM    7  N   UNL     1     -10.703   7.508  71.867  1.00  0.00    -0.214 NA 
HETATM    8  N   UNL     1     -11.945   9.464  71.194  1.00  0.00    -0.317 N  
HETATM    9  C   UNL     1     -10.922   8.550  71.038  1.00  0.00    -0.249 A  
HETATM   10  O   UNL     1     -12.629  11.579  70.671  1.00  0.00    -0.304 OA 
HETATM   11  C   UNL     1      -9.979   8.649  70.048  1.00  0.00    -0.185 A  
HETATM   12  C   UNL     1     -12.891   9.340  72.288  1.00  0.00    -0.384 C  
HETATM   13  C   UNL     1     -10.110   9.657  69.026  1.00  0.00    -0.186 C  
HETATM   14  C   UNL     1     -11.990  10.567  70.360  1.00  0.00    -0.335 C  
HETATM   15  O   UNL     1      -9.286   9.795  68.129  1.00  0.00    -0.129 OA 
HETATM   16  N   UNL     1     -11.244  10.488  69.173  1.00  0.00    -0.242 N  
BRANCH   6  17
HETATM   17  N   UNL     1      -9.081   5.815  72.055  1.00  0.00    -0.138 NA 
HETATM   18  N   UNL     1      -5.985   6.596  72.048  1.00  0.00    -0.038 NA 
HETATM   19  C   UNL     1      -6.612   4.215  72.177  1.00  0.00    -0.022 C  
HETATM   20  C   UNL     1      -8.142   5.970  73.180  1.00  0.00    -0.115 C  
HETATM   21  C   UNL     1      -7.475   4.208  70.923  1.00  0.00    -0.047 C  
HETATM   22  C   UNL     1      -8.925   4.584  71.242  1.00  0.00    -0.127 C  
HETATM   23  C   UNL     1      -6.671   5.581  72.860  1.00  0.00    -0.073 C  
HETATM   24  H1  UNL     1      -6.024   7.508  72.504  1.00  0.00     0.000 HD 
HETATM   25  H2  UNL     1      -6.353   6.632  71.097  1.00  0.00     0.000 HD 
ENDBRANCH   6  17
BRANCH  16  26
HETATM   26  C   UNL     1     -11.514  11.575  68.198  1.00  0.00    -0.315 C  
BRANCH  26  27
HETATM   27  C   UNL     1     -10.683  12.874  68.333  1.00  0.00    -0.255 A  
HETATM   28  N   UNL     1      -9.363  12.820  68.025  1.00  0.00    -0.207 NA 
HETATM   29  C   UNL     1      -8.581  13.882  68.324  1.00  0.00    -0.177 A  
HETATM   30  C   UNL     1      -9.083  15.029  68.954  1.00  0.00    -0.202 A  
HETATM   31  C   UNL     1      -8.186  16.088  69.308  1.00  0.00    -0.212 A  
HETATM   32  C   UNL     1     -10.465  15.011  69.188  1.00  0.00    -0.247 A  
HETATM   33  C   UNL     1      -6.824  16.020  69.024  1.00  0.00    -0.159 A  
HETATM   34  C   UNL     1     -11.173  16.119  69.915  1.00  0.00    -0.349 C  
HETATM   35  N   UNL     1     -11.262  13.966  68.863  1.00  0.00    -0.258 NA 
HETATM   36  C   UNL     1      -6.335  14.901  68.373  1.00  0.00    -0.105 A  
HETATM   37  C   UNL     1      -7.213  13.857  68.034  1.00  0.00    -0.141 A  
ENDBRANCH  26  27
ENDBRANCH  16  26
ENDBRANCH   4   5
ENDBRANCH   3   4
TORSDOF 5
ENDMDL
MODEL      148
REMARK 921   NORMALIZED FREE ENERGY PREDICTED BY IDOCK:   -5.01 KCAL/MOL
REMARK 922        TOTAL FREE ENERGY PREDICTED BY IDOCK:   -6.98 KCAL/MOL
REMARK 923 INTER-LIGAND FREE ENERGY PREDICTED BY IDOCK:   -6.94 KCAL/MOL
REMARK 924 INTRA-LIGAND FREE ENERGY PREDICTED BY IDOCK:   -0.04 KCAL/MOL
REMARK 927      BINDING AFFINITY PREDICTED BY RF-SCORE:    0.00 PKD
ROOT
HETATM    1  C   UNL     1     -10.319  13.800  65.144  1.00  0.00    -0.391 C  
HETATM    2  C   UNL     1     -10.082  12.316  64.912  1.00  0.00    -0.274 C  
HETATM    3  C   UNL     1      -9.878  11.043  64.713  1.00  0.00    -0.329 C  
ENDROOT
BRANCH   3   4
HETATM    4  C   UNL     1      -9.641   9.560  64.482  1.00  0.00     0.109 C  
BRANCH   4   5
HETATM    5  N   UNL     1      -8.759   9.083  65.616  1.00  0.00    -0.164 NA 
HETATM    6  C   UNL     1      -7.459   8.529  65.510  1.00  0.00    -0.085 A  
HETATM    7  N   UNL     1      -6.928   8.365  66.706  1.00  0.00    -0.072 NA 
HETATM    8  N   UNL     1      -7.694   8.736  68.964  1.00  0.00    -0.089 N  
HETATM    9  C   UNL     1      -7.880   8.715  67.595  1.00  0.00    -0.103 A  
HETATM   10  O   UNL     1      -8.465   9.625  70.920  1.00  0.00    -0.253 OA 
HETATM   11  C   UNL     1      -9.047   9.112  66.997  1.00  0.00    -0.123 A  
HETATM   12  C   UNL     1      -6.421   8.349  69.546  1.00  0.00    -0.040 C  
HETATM   13  C   UNL     1     -10.196   9.439  67.804  1.00  0.00    -0.222 C  
HETATM   14  C   UNL     1      -8.699   9.241  69.769  1.00  0.00    -0.162 C  
HETATM   15  O   UNL     1     -11.257   9.814  67.316  1.00  0.00    -0.080 OA 
HETATM   16  N   UNL     1      -9.978   9.328  69.196  1.00  0.00    -0.173 N  
BRANCH   6  17
HETATM   17  N   UNL     1      -6.759   8.286  64.361  1.00  0.00    -0.065 NA 
HETATM   18  N   UNL     1      -8.639   6.094  62.998  1.00  0.00    -0.323 NA 
HETATM   19  C   UNL     1      -6.250   6.158  62.391  1.00  0.00    -0.030 C  
HETATM   20  C   UNL     1      -7.433   8.301  63.051  1.00  0.00    -0.115 C  
HETATM   21  C   UNL     1      -5.720   6.036  63.813  1.00  0.00    -0.022 C  
HETATM   22  C   UNL     1      -5.566   7.411  64.470  1.00  0.00    -0.033 C  
HETATM   23  C   UNL     1      -7.583   6.907  62.379  1.00  0.00    -0.098 C  
HETATM   24  H1  UNL     1      -9.529   6.594  62.991  1.00  0.00     0.000 HD 
HETATM   25  H2  UNL     1      -8.383   5.793  63.939  1.00  0.00     0.000 HD 
ENDBRANCH   6  17
BRANCH  16  26
HETATM   26  C   UNL     1     -11.068   9.634  70.157  1.00  0.00    -0.269 C  
BRANCH  26  27
HETATM   27  C   UNL     1     -11.622  11.079  70.166  1.00  0.00    -0.334 A  
HETATM   28  N   UNL     1     -11.037  11.991  69.349  1.00  0.00    -0.180 NA 
HETATM   29  C   UNL     1     -11.369  13.294  69.484  1.00  0.00    -0.170 A  
HETATM   30  C   UNL     1     -12.285  13.738  70.448  1.00  0.00    -0.433 A  
HETATM   31  C   UNL     1     -12.536  15.141  70.586  1.00  0.00    -0.450 A  
HETATM   32  C   UNL     1     -12.871  12.720  71.212  1.00  0.00    -0.262 A  
HETATM   33  C   UNL     1     -11.910  16.082  69.771  1.00  0.00    -0.234 A  
HETATM   34  C   UNL     1     -13.823  13.005  72.339  1.00  0.00    -0.526 C  
HETATM   35  N   UNL     1     -12.570  11.409  71.061  1.00  0.00    -0.404 NA 
HETATM   36  C   UNL     1     -11.032  15.639  68.798  1.00  0.00    -0.281 A  
HETATM   37  C   UNL     1     -10.776  14.264  68.668  1.00  0.00    -0.256 A  
ENDBRANCH  26  27
ENDBRANCH  16  26
ENDBRANCH   4   5
ENDBRANCH   3   4
TORSDOF 5
ENDMDL
MODEL      149
REMARK 921   NORMALIZED FREE ENERGY PREDICTED BY IDOCK:   -5.01 KCAL/MOL
REMARK 922        TOTAL FREE ENERGY PREDICTED BY IDOCK:   -6.98 KCAL/MOL
REMARK 923 INTER-LIGAND FREE ENERGY PREDICTED BY IDOCK:   -6.61 KCAL/MOL
REMARK 924 INTRA-LIGAND FREE ENERGY PREDICTED BY IDOCK:   -0.37 KCAL/MOL
REMARK 927      BINDING AFFINITY PREDICTED BY RF-SCORE:    0.00 PKD
ROOT
HETATM    1  C   UNL     1      -5.212  16.788  67.542  1.00  0.00    -0.154 C  
HETATM    2  C   UNL     1      -5.727  15.551  68.260  1.00  0.00    -0.118 C  
HETATM    3  C   UNL     1      -6.168  14.490  68.877  1.00  0.00    -0.087 C  
ENDROOT
BRANCH   3   4
HETATM    4  C   UNL     1      -6.684  13.254  69.595  1.00  0.00     0.071 C  
BRANCH   4   5
HETATM    5  N   UNL     1      -7.897  12.783  68.823  1.00  0.00    -0.026 NA 
HETATM    6  C   UNL     1      -8.854  13.594  68.162  1.00  0.00    -0.189 A  
HETATM    7  N   UNL     1      -9.691  12.847  67.468  1.00  0.00    -0.201 NA 
HETATM    8  N   UNL     1      -9.970  10.473  67.141  1.00  0.00    -0.186 N  
HETATM    9  C   UNL     1      -9.361  11.565  67.727  1.00  0.00    -0.168 A  
HETATM   10  O   UNL     1      -9.705   8.264  66.626  1.00  0.00    -0.210 OA 
HETATM   11  C   UNL     1      -8.305  11.452  68.594  1.00  0.00    -0.136 A  
HETATM   12  C   UNL     1     -11.054  10.649  66.191  1.00  0.00     0.203 C  
HETATM   13  C   UNL     1      -7.878  10.151  69.044  1.00  0.00    -0.107 C  
HETATM   14  C   UNL     1      -9.458   9.211  67.382  1.00  0.00    -0.143 C  
HETATM   15  O   UNL     1      -6.930   9.997  69.807  1.00  0.00    -0.075 OA 
HETATM   16  N   UNL     1      -8.618   9.077  68.499  1.00  0.00    -0.128 N  
BRANCH   6  17
HETATM   17  N   UNL     1      -8.887  14.960  68.119  1.00  0.00    -0.169 NA 
HETATM   18  N   UNL     1     -11.979  15.477  68.725  1.00  0.00    -0.552 NA 
HETATM   19  C   UNL     1     -10.702  17.194  67.498  1.00  0.00    -0.276 C  
HETATM   20  C   UNL     1      -9.523  15.732  69.201  1.00  0.00    -0.255 C  
HETATM   21  C   UNL     1     -10.211  16.269  66.394  1.00  0.00    -0.322 C  
HETATM   22  C   UNL     1      -8.891  15.594  66.778  1.00  0.00    -0.272 C  
HETATM   23  C   UNL     1     -10.859  16.424  68.810  1.00  0.00    -0.338 C  
HETATM   24  H1  UNL     1     -12.084  14.964  69.600  1.00  0.00     0.000 HD 
HETATM   25  H2  UNL     1     -11.884  14.849  67.927  1.00  0.00     0.000 HD 
ENDBRANCH   6  17
BRANCH  16  26
HETATM   26  C   UNL     1      -8.294   7.675  68.866  1.00  0.00    -0.129 C  
BRANCH  26  27
HETATM   27  C   UNL     1      -8.945   7.109  70.151  1.00  0.00    -0.145 A  
HETATM   28  N   UNL     1      -8.797   5.785  70.409  1.00  0.00    -0.140 NA 
HETATM   29  C   UNL     1      -9.518   5.232  71.411  1.00  0.00    -0.151 A  
HETATM   30  C   UNL     1     -10.423   5.975  72.181  1.00  0.00    -0.246 A  
HETATM   31  C   UNL     1     -11.208   5.312  73.178  1.00  0.00    -0.382 A  
HETATM   32  C   UNL     1     -10.471   7.342  71.872  1.00  0.00    -0.200 A  
HETATM   33  C   UNL     1     -11.084   3.946  73.421  1.00  0.00    -0.329 A  
HETATM   34  C   UNL     1     -11.430   8.285  72.542  1.00  0.00    -0.454 C  
HETATM   35  N   UNL     1      -9.729   7.910  70.894  1.00  0.00    -0.164 NA 
HETATM   36  C   UNL     1     -10.166   3.220  72.682  1.00  0.00    -0.231 A  
HETATM   37  C   UNL     1      -9.402   3.868  71.696  1.00  0.00    -0.202 A  
ENDBRANCH  26  27
ENDBRANCH  16  26
ENDBRANCH   4   5
ENDBRANCH   3   4
TORSDOF 5
ENDMDL
MODEL      150
REMARK 921   NORMALIZED FREE ENERGY PREDICTED BY IDOCK:   -4.98 KCAL/MOL
REMARK 922        TOTAL FREE ENERGY PREDICTED BY IDOCK:   -6.94 KCAL/MOL
REMARK 923 INTER-LIGAND FREE ENERGY PREDICTED BY IDOCK:   -6.39 KCAL/MOL
REMARK 924 INTRA-LIGAND FREE ENERGY PREDICTED BY IDOCK:   -0.55 KCAL/MOL
REMARK 927      BINDING AFFINITY PREDICTED BY RF-SCORE:    0.00 PKD
ROOT
HETATM    1  C   UNL     1     -10.618  18.860  66.003  1.00  0.00    -0.470 C  
HETATM    2  C   UNL     1     -10.179  18.026  67.196  1.00  0.00    -0.366 C  
HETATM    3  C   UNL     1      -9.802  17.312  68.220  1.00  0.00    -0.304 C  
ENDROOT
BRANCH   3   4
HETATM    4  C   UNL     1      -9.364  16.479  69.413  1.00  0.00    -0.040 C  
BRANCH   4   5
HETATM    5  N   UNL     1     -10.078  15.150  69.295  1.00  0.00    -0.238 NA 
HETATM    6  C   UNL     1     -11.371  14.831  69.781  1.00  0.00    -0.283 A  
HETATM    7  N   UNL     1     -11.735  13.631  69.373  1.00  0.00    -0.304 NA 
HETATM    8  N   UNL     1     -10.683  11.895  68.069  1.00  0.00    -0.200 N  
HETATM    9  C   UNL     1     -10.679  13.121  68.705  1.00  0.00    -0.225 A  
HETATM   10  O   UNL     1      -9.674  10.659  66.436  1.00  0.00    -0.184 OA 
HETATM   11  C   UNL     1      -9.609  13.976  68.667  1.00  0.00    -0.159 A  
HETATM   12  C   UNL     1     -11.859  11.046  68.099  1.00  0.00    -0.118 C  
HETATM   13  C   UNL     1      -8.370  13.554  68.065  1.00  0.00    -0.168 C  
HETATM   14  C   UNL     1      -9.588  11.536  67.302  1.00  0.00    -0.172 C  
HETATM   15  O   UNL     1      -7.390  14.288  67.993  1.00  0.00    -0.112 OA 
HETATM   16  N   UNL     1      -8.398  12.244  67.535  1.00  0.00    -0.159 N  
BRANCH   6  17
HETATM   17  N   UNL     1     -12.213  15.650  70.480  1.00  0.00    -0.395 NA 
HETATM   18  N   UNL     1     -11.685  14.613  73.453  1.00  0.00     0.056 NA 
HETATM   19  C   UNL     1     -13.828  15.721  72.941  1.00  0.00    -0.565 C  
HETATM   20  C   UNL     1     -11.738  16.383  71.667  1.00  0.00    -0.307 C  
HETATM   21  C   UNL     1     -14.213  14.801  71.792  1.00  0.00    -0.629 C  
HETATM   22  C   UNL     1     -13.657  15.311  70.459  1.00  0.00     0.018 C  
HETATM   23  C   UNL     1     -12.308  15.871  73.020  1.00  0.00    -0.498 C  
HETATM   24  H1  UNL     1     -10.672  14.712  73.506  1.00  0.00     0.000 HD 
HETATM   25  H2  UNL     1     -11.958  13.831  72.858  1.00  0.00     0.000 HD 
ENDBRANCH   6  17
BRANCH  16  26
HETATM   26  C   UNL     1      -7.196  11.669  66.881  1.00  0.00    -0.125 C  
BRANCH  26  27
HETATM   27  C   UNL     1      -6.881  10.180  67.158  1.00  0.00    -0.082 A  
HETATM   28  N   UNL     1      -6.844   9.766  68.450  1.00  0.00    -0.060 NA 
HETATM   29  C   UNL     1      -6.379   8.527  68.725  1.00  0.00    -0.049 A  
HETATM   30  C   UNL     1      -5.919   7.660  67.724  1.00  0.00    -0.040 A  
HETATM   31  C   UNL     1      -5.371   6.389  68.090  1.00  0.00    -0.008 A  
HETATM   32  C   UNL     1      -6.041   8.156  66.418  1.00  0.00    -0.045 A  
HETATM   33  C   UNL     1      -5.300   5.977  69.419  1.00  0.00    -0.005 A  
HETATM   34  C   UNL     1      -5.538   7.402  65.220  1.00  0.00    -0.033 C  
HETATM   35  N   UNL     1      -6.536   9.383  66.131  1.00  0.00    -0.069 NA 
HETATM   36  C   UNL     1      -5.785   6.821  70.404  1.00  0.00    -0.023 A  
HETATM   37  C   UNL     1      -6.314   8.072  70.046  1.00  0.00    -0.033 A  
ENDBRANCH  26  27
ENDBRANCH  16  26
ENDBRANCH   4   5
ENDBRANCH   3   4
TORSDOF 5
ENDMDL
MODEL      151
REMARK 921   NORMALIZED FREE ENERGY PREDICTED BY IDOCK:   -4.96 KCAL/MOL
REMARK 922        TOTAL FREE ENERGY PREDICTED BY IDOCK:   -6.91 KCAL/MOL
REMARK 923 INTER-LIGAND FREE ENERGY PREDICTED BY IDOCK:   -6.95 KCAL/MOL
REMARK 924 INTRA-LIGAND FREE ENERGY PREDICTED BY IDOCK:    0.04 KCAL/MOL
REMARK 927      BINDING AFFINITY PREDICTED BY RF-SCORE:    0.00 PKD
ROOT
HETATM    1  C   UNL     1      -6.078  14.617  70.721  1.00  0.00    -0.115 C  
HETATM    2  C   UNL     1      -6.426  15.048  69.305  1.00  0.00    -0.124 C  
HETATM    3  C   UNL     1      -6.724  15.417  68.091  1.00  0.00    -0.138 C  
ENDROOT
BRANCH   3   4
HETATM    4  C   UNL     1      -7.072  15.847  66.675  1.00  0.00     0.198 C  
BRANCH   4   5
HETATM    5  N   UNL     1      -8.560  15.624  66.512  1.00  0.00    -0.287 NA 
HETATM    6  C   UNL     1      -9.540  16.600  66.203  1.00  0.00    -0.294 A  
HETATM    7  N   UNL     1     -10.710  16.030  65.991  1.00  0.00    -0.301 NA 
HETATM    8  N   UNL     1     -11.526  13.761  66.071  1.00  0.00    -0.318 N  
HETATM    9  C   UNL     1     -10.541  14.714  66.238  1.00  0.00    -0.306 A  
HETATM   10  O   UNL     1     -11.906  11.533  65.744  1.00  0.00    -0.219 OA 
HETATM   11  C   UNL     1      -9.261  14.403  66.616  1.00  0.00    -0.261 A  
HETATM   12  C   UNL     1     -12.855  14.137  65.623  1.00  0.00    -0.371 C  
HETATM   13  C   UNL     1      -8.930  13.054  66.999  1.00  0.00    -0.225 C  
HETATM   14  C   UNL     1     -11.199  12.426  66.226  1.00  0.00    -0.317 C  
HETATM   15  O   UNL     1      -7.796  12.723  67.331  1.00  0.00    -0.163 OA 
HETATM   16  N   UNL     1     -10.011  12.147  66.921  1.00  0.00    -0.202 N  
BRANCH   6  17
HETATM   17  N   UNL     1      -9.338  17.941  66.025  1.00  0.00    -0.527 NA 
HETATM   18  N   UNL     1      -9.242  18.915  69.064  1.00  0.00    -0.243 NA 
HETATM   19  C   UNL     1      -9.873  20.533  67.315  1.00  0.00    -0.581 C  
HETATM   20  C   UNL     1      -8.273  18.647  66.759  1.00  0.00    -0.267 C  
HETATM   21  C   UNL     1     -11.014  19.709  66.738  1.00  0.00    -0.371 C  
HETATM   22  C   UNL     1     -10.518  18.756  65.646  1.00  0.00    -0.132 C  
HETATM   23  C   UNL     1      -8.776  19.620  67.862  1.00  0.00    -0.324 C  
HETATM   24  H1  UNL     1      -8.510  18.305  69.430  1.00  0.00     0.000 HD 
HETATM   25  H2  UNL     1     -10.108  18.405  68.893  1.00  0.00     0.000 HD 
ENDBRANCH   6  17
BRANCH  16  26
HETATM   26  C   UNL     1      -9.825  10.719  67.282  1.00  0.00    -0.179 C  
BRANCH  26  27
HETATM   27  C   UNL     1      -8.969   9.851  66.329  1.00  0.00    -0.145 A  
HETATM   28  N   UNL     1      -8.697   8.574  66.701  1.00  0.00    -0.121 NA 
HETATM   29  C   UNL     1      -7.794   7.866  65.988  1.00  0.00    -0.095 A  
HETATM   30  C   UNL     1      -7.117   8.408  64.886  1.00  0.00    -0.079 A  
HETATM   31  C   UNL     1      -6.119   7.627  64.219  1.00  0.00    -0.048 A  
HETATM   32  C   UNL     1      -7.500   9.713  64.549  1.00  0.00    -0.128 A  
HETATM   33  C   UNL     1      -5.813   6.329  64.622  1.00  0.00    -0.022 A  
HETATM   34  C   UNL     1      -6.838  10.486  63.442  1.00  0.00     0.047 C  
HETATM   35  N   UNL     1      -8.427  10.419  65.237  1.00  0.00    -0.165 NA 
HETATM   36  C   UNL     1      -6.506   5.784  65.690  1.00  0.00    -0.043 A  
HETATM   37  C   UNL     1      -7.478   6.552  66.351  1.00  0.00    -0.085 A  
ENDBRANCH  26  27
ENDBRANCH  16  26
ENDBRANCH   4   5
ENDBRANCH   3   4
TORSDOF 5
ENDMDL
MODEL      152
REMARK 921   NORMALIZED FREE ENERGY PREDICTED BY IDOCK:   -4.96 KCAL/MOL
REMARK 922        TOTAL FREE ENERGY PREDICTED BY IDOCK:   -6.91 KCAL/MOL
REMARK 923 INTER-LIGAND FREE ENERGY PREDICTED BY IDOCK:   -5.78 KCAL/MOL
REMARK 924 INTRA-LIGAND FREE ENERGY PREDICTED BY IDOCK:   -1.14 KCAL/MOL
REMARK 927      BINDING AFFINITY PREDICTED BY RF-SCORE:    0.00 PKD
ROOT
HETATM    1  C   UNL     1      -6.352   9.647  63.993  1.00  0.00    -0.110 C  
HETATM    2  C   UNL     1      -6.418  10.422  65.300  1.00  0.00    -0.105 C  
HETATM    3  C   UNL     1      -6.476  11.086  66.420  1.00  0.00    -0.127 C  
ENDROOT
BRANCH   3   4
HETATM    4  C   UNL     1      -6.543  11.860  67.727  1.00  0.00    -0.084 C  
BRANCH   4   5
HETATM    5  N   UNL     1      -7.996  11.863  68.150  1.00  0.00    -0.142 NA 
HETATM    6  C   UNL     1      -9.013  12.741  67.700  1.00  0.00    -0.191 A  
HETATM    7  N   UNL     1     -10.188  12.363  68.165  1.00  0.00    -0.219 NA 
HETATM    8  N   UNL     1     -10.944  10.590  69.616  1.00  0.00    -0.264 N  
HETATM    9  C   UNL     1      -9.955  11.312  68.977  1.00  0.00    -0.105 A  
HETATM   10  O   UNL     1     -11.433   8.582  70.586  1.00  0.00    -0.272 OA 
HETATM   11  C   UNL     1      -8.626  10.986  69.059  1.00  0.00    -0.068 A  
HETATM   12  C   UNL     1     -12.342  10.947  69.459  1.00  0.00    -0.171 C  
HETATM   13  C   UNL     1      -8.193   9.940  69.951  1.00  0.00    -0.184 C  
HETATM   14  C   UNL     1     -10.594   9.449  70.317  1.00  0.00    -0.250 C  
HETATM   15  O   UNL     1      -7.018   9.603  70.048  1.00  0.00    -0.066 OA 
HETATM   16  N   UNL     1      -9.241   9.317  70.666  1.00  0.00    -0.253 N  
BRANCH   6  17
HETATM   17  N   UNL     1      -8.876  13.779  66.821  1.00  0.00    -0.186 NA 
HETATM   18  N   UNL     1     -10.181  16.147  68.518  1.00  0.00    -0.233 NA 
HETATM   19  C   UNL     1     -10.142  16.325  66.059  1.00  0.00    -0.377 C  
HETATM   20  C   UNL     1      -8.297  15.062  67.254  1.00  0.00    -0.205 C  
HETATM   21  C   UNL     1     -10.846  15.003  65.791  1.00  0.00    -0.355 C  
HETATM   22  C   UNL     1      -9.846  13.847  65.700  1.00  0.00    -0.205 C  
HETATM   23  C   UNL     1      -9.310  16.239  67.338  1.00  0.00    -0.221 C  
HETATM   24  H1  UNL     1      -9.627  16.089  69.372  1.00  0.00     0.000 HD 
HETATM   25  H2  UNL     1     -10.841  15.372  68.442  1.00  0.00     0.000 HD 
ENDBRANCH   6  17
BRANCH  16  26
HETATM   26  C   UNL     1      -8.952   8.219  71.623  1.00  0.00    -0.180 C  
BRANCH  26  27
HETATM   27  C   UNL     1      -8.476   6.870  71.034  1.00  0.00    -0.131 A  
HETATM   28  N   UNL     1      -9.152   6.366  69.970  1.00  0.00    -0.149 NA 
HETATM   29  C   UNL     1      -8.883   5.104  69.566  1.00  0.00    -0.099 A  
HETATM   30  C   UNL     1      -7.942   4.293  70.217  1.00  0.00    -0.055 A  
HETATM   31  C   UNL     1      -7.758   2.941  69.783  1.00  0.00    -0.045 A  
HETATM   32  C   UNL     1      -7.261   4.917  71.272  1.00  0.00    -0.060 A  
HETATM   33  C   UNL     1      -8.476   2.410  68.714  1.00  0.00    -0.095 A  
HETATM   34  C   UNL     1      -6.268   4.188  72.132  1.00  0.00    -0.020 C  
HETATM   35  N   UNL     1      -7.500   6.191  71.662  1.00  0.00    -0.093 NA 
HETATM   36  C   UNL     1      -9.381   3.222  68.052  1.00  0.00    -0.245 A  
HETATM   37  C   UNL     1      -9.570   4.546  68.483  1.00  0.00    -0.212 A  
ENDBRANCH  26  27
ENDBRANCH  16  26
ENDBRANCH   4   5
ENDBRANCH   3   4
TORSDOF 5
ENDMDL
MODEL      153
REMARK 921   NORMALIZED FREE ENERGY PREDICTED BY IDOCK:   -4.95 KCAL/MOL
REMARK 922        TOTAL FREE ENERGY PREDICTED BY IDOCK:   -6.91 KCAL/MOL
REMARK 923 INTER-LIGAND FREE ENERGY PREDICTED BY IDOCK:   -5.74 KCAL/MOL
REMARK 924 INTRA-LIGAND FREE ENERGY PREDICTED BY IDOCK:   -1.16 KCAL/MOL
REMARK 927      BINDING AFFINITY PREDICTED BY RF-SCORE:    0.00 PKD
ROOT
HETATM    1  C   UNL     1     -10.329   6.596  66.754  1.00  0.00    -0.280 C  
HETATM    2  C   UNL     1     -10.633   7.925  67.428  1.00  0.00    -0.342 C  
HETATM    3  C   UNL     1     -10.893   9.064  68.007  1.00  0.00    -0.102 C  
ENDROOT
BRANCH   3   4
HETATM    4  C   UNL     1     -11.195  10.392  68.681  1.00  0.00    -0.248 C  
BRANCH   4   5
HETATM    5  N   UNL     1     -10.089  11.342  68.275  1.00  0.00    -0.182 NA 
HETATM    6  C   UNL     1     -10.172  12.392  67.327  1.00  0.00    -0.215 A  
HETATM    7  N   UNL     1      -9.064  13.108  67.333  1.00  0.00    -0.199 NA 
HETATM    8  N   UNL     1      -6.974  12.982  68.530  1.00  0.00    -0.095 N  
HETATM    9  C   UNL     1      -8.225  12.502  68.198  1.00  0.00    -0.170 A  
HETATM   10  O   UNL     1      -5.333  12.923  70.117  1.00  0.00    -0.092 OA 
HETATM   11  C   UNL     1      -8.768  11.381  68.770  1.00  0.00    -0.076 A  
HETATM   12  C   UNL     1      -6.463  14.202  67.930  1.00  0.00    -0.165 C  
HETATM   13  C   UNL     1      -7.973  10.566  69.654  1.00  0.00    -0.063 C  
HETATM   14  C   UNL     1      -6.257  12.349  69.530  1.00  0.00    -0.126 C  
HETATM   15  O   UNL     1      -8.419   9.563  70.201  1.00  0.00    -0.171 OA 
HETATM   16  N   UNL     1      -6.660  11.046  69.863  1.00  0.00    -0.144 N  
BRANCH   6  17
HETATM   17  N   UNL     1     -11.257  12.733  66.568  1.00  0.00    -0.293 NA 
HETATM   18  N   UNL     1      -9.873  13.091  63.714  1.00  0.00    -0.678 NA 
HETATM   19  C   UNL     1     -11.988  14.274  64.169  1.00  0.00    -0.401 C  
HETATM   20  C   UNL     1     -11.530  12.048  65.293  1.00  0.00    -0.302 C  
HETATM   21  C   UNL     1     -11.507  14.985  65.425  1.00  0.00    -0.287 C  
HETATM   22  C   UNL     1     -11.742  14.131  66.674  1.00  0.00    -0.403 C  
HETATM   23  C   UNL     1     -11.299  12.917  64.024  1.00  0.00    -0.415 C  
HETATM   24  H1  UNL     1      -9.413  12.185  63.617  1.00  0.00     0.000 HD 
HETATM   25  H2  UNL     1      -9.405  13.682  64.401  1.00  0.00     0.000 HD 
ENDBRANCH   6  17
BRANCH  16  26
HETATM   26  C   UNL     1      -5.723  10.315  70.751  1.00  0.00    -0.094 C  
BRANCH  26  27
HETATM   27  C   UNL     1      -5.441   8.830  70.418  1.00  0.00    -0.024 A  
HETATM   28  N   UNL     1      -5.351   8.476  69.112  1.00  0.00    -0.035 NA 
HETATM   29  C   UNL     1      -5.305   7.163  68.794  1.00  0.00    -0.018 A  
HETATM   30  C   UNL     1      -5.362   6.154  69.766  1.00  0.00    -0.013 A  
HETATM   31  C   UNL     1      -5.382   4.782  69.356  1.00  0.00    -0.007 A  
HETATM   32  C   UNL     1      -5.405   6.617  71.088  1.00  0.00    -0.026 A  
HETATM   33  C   UNL     1      -5.325   4.417  68.013  1.00  0.00    -0.011 A  
HETATM   34  C   UNL     1      -5.539   5.689  72.262  1.00  0.00    -0.022 C  
HETATM   35  N   UNL     1      -5.418   7.930  71.417  1.00  0.00    -0.034 NA 
HETATM   36  C   UNL     1      -5.235   5.414  67.056  1.00  0.00    -0.005 A  
HETATM   37  C   UNL     1      -5.226   6.760  67.456  1.00  0.00    -0.008 A  
ENDBRANCH  26  27
ENDBRANCH  16  26
ENDBRANCH   4   5
ENDBRANCH   3   4
TORSDOF 5
ENDMDL
MODEL      154
REMARK 921   NORMALIZED FREE ENERGY PREDICTED BY IDOCK:   -4.92 KCAL/MOL
REMARK 922        TOTAL FREE ENERGY PREDICTED BY IDOCK:   -6.86 KCAL/MOL
REMARK 923 INTER-LIGAND FREE ENERGY PREDICTED BY IDOCK:   -6.05 KCAL/MOL
REMARK 924 INTRA-LIGAND FREE ENERGY PREDICTED BY IDOCK:   -0.81 KCAL/MOL
REMARK 927      BINDING AFFINITY PREDICTED BY RF-SCORE:    0.00 PKD
ROOT
HETATM    1  C   UNL     1     -12.443  13.364  63.920  1.00  0.00    -0.313 C  
HETATM    2  C   UNL     1     -12.161  13.645  65.388  1.00  0.00    -0.474 C  
HETATM    3  C   UNL     1     -11.921  13.887  66.646  1.00  0.00    -0.474 C  
ENDROOT
BRANCH   3   4
HETATM    4  C   UNL     1     -11.640  14.168  68.113  1.00  0.00    -0.331 C  
BRANCH   4   5
HETATM    5  N   UNL     1     -10.136  14.266  68.251  1.00  0.00    -0.232 NA 
HETATM    6  C   UNL     1      -9.357  15.450  68.273  1.00  0.00    -0.193 A  
HETATM    7  N   UNL     1      -8.099  15.170  68.556  1.00  0.00    -0.138 NA 
HETATM    8  N   UNL     1      -6.869  13.137  68.972  1.00  0.00    -0.104 N  
HETATM    9  C   UNL     1      -8.018  13.826  68.634  1.00  0.00    -0.095 A  
HETATM   10  O   UNL     1      -6.075  11.161  69.795  1.00  0.00    -0.077 OA 
HETATM   11  C   UNL     1      -9.217  13.205  68.403  1.00  0.00    -0.141 A  
HETATM   12  C   UNL     1      -5.634  13.846  69.254  1.00  0.00    -0.083 C  
HETATM   13  C   UNL     1      -9.289  11.766  68.364  1.00  0.00    -0.185 C  
HETATM   14  C   UNL     1      -6.939  11.767  69.151  1.00  0.00    -0.091 C  
HETATM   15  O   UNL     1     -10.341  11.165  68.176  1.00  0.00    -0.176 OA 
HETATM   16  N   UNL     1      -8.056  11.117  68.601  1.00  0.00    -0.145 N  
BRANCH   6  17
HETATM   17  N   UNL     1      -9.807  16.734  68.141  1.00  0.00    -0.256 NA 
HETATM   18  N   UNL     1     -10.364  16.825  64.998  1.00  0.00    -0.521 NA 
HETATM   19  C   UNL     1      -9.920  18.937  66.191  1.00  0.00    -0.395 C  
HETATM   20  C   UNL     1     -11.053  17.024  67.409  1.00  0.00     0.053 C  
HETATM   21  C   UNL     1      -8.590  18.505  66.791  1.00  0.00    -0.290 C  
HETATM   22  C   UNL     1      -8.787  17.811  68.142  1.00  0.00    -0.267 C  
HETATM   23  C   UNL     1     -10.854  17.737  66.042  1.00  0.00     0.041 C  
HETATM   24  H1  UNL     1     -10.987  16.024  64.898  1.00  0.00     0.000 HD 
HETATM   25  H2  UNL     1      -9.401  16.536  65.170  1.00  0.00     0.000 HD 
ENDBRANCH   6  17
BRANCH  16  26
HETATM   26  C   UNL     1      -7.970   9.635  68.595  1.00  0.00    -0.089 C  
BRANCH  26  27
HETATM   27  C   UNL     1      -7.583   8.951  67.262  1.00  0.00    -0.089 A  
HETATM   28  N   UNL     1      -6.994   9.711  66.304  1.00  0.00    -0.090 NA 
HETATM   29  C   UNL     1      -6.830   9.188  65.068  1.00  0.00    -0.080 A  
HETATM   30  C   UNL     1      -7.260   7.896  64.737  1.00  0.00    -0.074 A  
HETATM   31  C   UNL     1      -7.122   7.431  63.390  1.00  0.00    -0.070 A  
HETATM   32  C   UNL     1      -7.812   7.172  65.803  1.00  0.00    -0.109 A  
HETATM   33  C   UNL     1      -6.549   8.221  62.396  1.00  0.00    -0.088 A  
HETATM   34  C   UNL     1      -8.392   5.797  65.628  1.00  0.00    -0.138 C  
HETATM   35  N   UNL     1      -7.950   7.675  67.052  1.00  0.00    -0.115 NA 
HETATM   36  C   UNL     1      -6.095   9.485  62.732  1.00  0.00    -0.098 A  
HETATM   37  C   UNL     1      -6.239   9.947  64.051  1.00  0.00    -0.125 A  
ENDBRANCH  26  27
ENDBRANCH  16  26
ENDBRANCH   4   5
ENDBRANCH   3   4
TORSDOF 5
ENDMDL
MODEL      155
REMARK 921   NORMALIZED FREE ENERGY PREDICTED BY IDOCK:   -4.91 KCAL/MOL
REMARK 922        TOTAL FREE ENERGY PREDICTED BY IDOCK:   -6.84 KCAL/MOL
REMARK 923 INTER-LIGAND FREE ENERGY PREDICTED BY IDOCK:   -5.91 KCAL/MOL
REMARK 924 INTRA-LIGAND FREE ENERGY PREDICTED BY IDOCK:   -0.93 KCAL/MOL
REMARK 927      BINDING AFFINITY PREDICTED BY RF-SCORE:    0.00 PKD
ROOT
HETATM    1  C   UNL     1     -12.276   4.213  73.177  1.00  0.00     0.424 C  
HETATM    2  C   UNL     1     -11.676   5.593  72.961  1.00  0.00    -0.098 C  
HETATM    3  C   UNL     1     -11.162   6.777  72.775  1.00  0.00    -0.267 C  
ENDROOT
BRANCH   3   4
HETATM    4  C   UNL     1     -10.563   8.157  72.560  1.00  0.00    -0.340 C  
BRANCH   4   5
HETATM    5  N   UNL     1      -9.505   8.004  71.488  1.00  0.00    -0.153 NA 
HETATM    6  C   UNL     1      -8.201   7.473  71.647  1.00  0.00    -0.103 A  
HETATM    7  N   UNL     1      -7.605   7.353  70.477  1.00  0.00    -0.085 NA 
HETATM    8  N   UNL     1      -8.216   7.882  68.204  1.00  0.00    -0.122 N  
HETATM    9  C   UNL     1      -8.452   7.873  69.565  1.00  0.00    -0.133 A  
HETATM   10  O   UNL     1      -9.217   8.016  66.156  1.00  0.00    -0.186 OA 
HETATM   11  C   UNL     1      -9.613   8.341  70.122  1.00  0.00    -0.167 A  
HETATM   12  C   UNL     1      -6.989   7.329  67.659  1.00  0.00    -0.076 C  
HETATM   13  C   UNL     1     -10.591   9.006  69.298  1.00  0.00    -0.213 C  
HETATM   14  C   UNL     1      -9.216   8.320  67.354  1.00  0.00    -0.141 C  
HETATM   15  O   UNL     1     -11.651   9.429  69.748  1.00  0.00    -0.054 OA 
HETATM   16  N   UNL     1     -10.239   9.089  67.932  1.00  0.00    -0.208 N  
BRANCH   6  17
HETATM   17  N   UNL     1      -7.630   7.025  72.806  1.00  0.00    -0.084 NA 
HETATM   18  N   UNL     1      -5.852   9.559  73.587  1.00  0.00    -0.315 NA 
HETATM   19  C   UNL     1      -5.200   7.339  74.439  1.00  0.00    -0.050 C  
HETATM   20  C   UNL     1      -7.648   7.854  74.024  1.00  0.00    -0.168 C  
HETATM   21  C   UNL     1      -5.134   6.658  73.080  1.00  0.00    -0.036 C  
HETATM   22  C   UNL     1      -6.494   6.080  72.678  1.00  0.00    -0.063 C  
HETATM   23  C   UNL     1      -6.266   8.435  74.438  1.00  0.00    -0.125 C  
HETATM   24  H1  UNL     1      -6.563  10.291  73.585  1.00  0.00     0.000 HD 
HETATM   25  H2  UNL     1      -5.621   9.253  72.641  1.00  0.00     0.000 HD 
ENDBRANCH   6  17
BRANCH  16  26
HETATM   26  C   UNL     1     -11.147   9.745  66.958  1.00  0.00     0.173 C  
BRANCH  26  27
HETATM   27  C   UNL     1     -11.058  11.284  66.828  1.00  0.00    -0.250 A  
HETATM   28  N   UNL     1     -11.868  11.895  65.927  1.00  0.00    -0.448 NA 
HETATM   29  C   UNL     1     -11.670  13.205  65.655  1.00  0.00    -0.364 A  
HETATM   30  C   UNL     1     -10.648  13.949  66.260  1.00  0.00    -0.289 A  
HETATM   31  C   UNL     1     -10.446  15.313  65.873  1.00  0.00    -0.345 A  
HETATM   32  C   UNL     1      -9.895  13.246  67.211  1.00  0.00    -0.233 A  
HETATM   33  C   UNL     1     -11.254  15.932  64.922  1.00  0.00    -0.345 A  
HETATM   34  C   UNL     1      -8.714  13.854  67.913  1.00  0.00    -0.184 C  
HETATM   35  N   UNL     1     -10.108  11.944  67.514  1.00  0.00    -0.192 NA 
HETATM   36  C   UNL     1     -12.284  15.205  64.350  1.00  0.00    -0.289 A  
HETATM   37  C   UNL     1     -12.477  13.864  64.722  1.00  0.00    -0.386 A  
ENDBRANCH  26  27
ENDBRANCH  16  26
ENDBRANCH   4   5
ENDBRANCH   3   4
TORSDOF 5
ENDMDL
MODEL      156
REMARK 921   NORMALIZED FREE ENERGY PREDICTED BY IDOCK:   -4.90 KCAL/MOL
REMARK 922        TOTAL FREE ENERGY PREDICTED BY IDOCK:   -6.84 KCAL/MOL
REMARK 923 INTER-LIGAND FREE ENERGY PREDICTED BY IDOCK:   -5.59 KCAL/MOL
REMARK 924 INTRA-LIGAND FREE ENERGY PREDICTED BY IDOCK:   -1.25 KCAL/MOL
REMARK 927      BINDING AFFINITY PREDICTED BY RF-SCORE:    0.00 PKD
ROOT
HETATM    1  C   UNL     1     -11.918   9.440  71.763  1.00  0.00    -0.452 C  
HETATM    2  C   UNL     1     -10.482   8.938  71.749  1.00  0.00    -0.431 C  
HETATM    3  C   UNL     1      -9.252   8.508  71.737  1.00  0.00    -0.316 C  
ENDROOT
BRANCH   3   4
HETATM    4  C   UNL     1      -7.817   8.006  71.723  1.00  0.00    -0.110 C  
BRANCH   4   5
HETATM    5  N   UNL     1      -7.459   7.769  70.272  1.00  0.00    -0.077 NA 
HETATM    6  C   UNL     1      -7.439   6.526  69.590  1.00  0.00    -0.093 A  
HETATM    7  N   UNL     1      -7.227   6.710  68.302  1.00  0.00    -0.083 NA 
HETATM    8  N   UNL     1      -6.819   8.638  66.911  1.00  0.00    -0.069 N  
HETATM    9  C   UNL     1      -7.020   8.032  68.136  1.00  0.00    -0.077 A  
HETATM   10  O   UNL     1      -6.944  10.622  65.788  1.00  0.00    -0.133 OA 
HETATM   11  C   UNL     1      -7.093   8.734  69.310  1.00  0.00    -0.062 A  
HETATM   12  C   UNL     1      -6.798   7.854  65.689  1.00  0.00    -0.052 C  
HETATM   13  C   UNL     1      -6.813  10.148  69.324  1.00  0.00    -0.063 C  
HETATM   14  C   UNL     1      -6.752  10.019  66.850  1.00  0.00    -0.079 C  
HETATM   15  O   UNL     1      -6.879  10.822  70.346  1.00  0.00    -0.278 OA 
HETATM   16  N   UNL     1      -6.497  10.689  68.057  1.00  0.00    -0.062 N  
BRANCH   6  17
HETATM   17  N   UNL     1      -7.707   5.294  70.118  1.00  0.00    -0.071 NA 
HETATM   18  N   UNL     1      -7.888   3.554  67.447  1.00  0.00    -0.078 NA 
HETATM   19  C   UNL     1      -9.064   2.763  69.465  1.00  0.00    -0.189 C  
HETATM   20  C   UNL     1      -6.931   4.112  69.705  1.00  0.00    -0.045 C  
HETATM   21  C   UNL     1      -9.869   4.035  69.689  1.00  0.00    -0.159 C  
HETATM   22  C   UNL     1      -9.101   5.036  70.557  1.00  0.00    -0.138 C  
HETATM   23  C   UNL     1      -7.712   3.091  68.831  1.00  0.00    -0.047 C  
HETATM   24  H1  UNL     1      -6.986   3.772  67.023  1.00  0.00     0.000 HD 
HETATM   25  H2  UNL     1      -8.534   4.342  67.390  1.00  0.00     0.000 HD 
ENDBRANCH   6  17
BRANCH  16  26
HETATM   26  C   UNL     1      -6.187  12.133  67.910  1.00  0.00    -0.079 C  
BRANCH  26  27
HETATM   27  C   UNL     1      -7.310  13.141  68.253  1.00  0.00    -0.116 A  
HETATM   28  N   UNL     1      -8.596  12.723  68.139  1.00  0.00    -0.181 NA 
HETATM   29  C   UNL     1      -9.589  13.635  68.239  1.00  0.00    -0.215 A  
HETATM   30  C   UNL     1      -9.336  14.999  68.442  1.00  0.00    -0.193 A  
HETATM   31  C   UNL     1     -10.430  15.922  68.466  1.00  0.00    -0.241 A  
HETATM   32  C   UNL     1      -7.981  15.327  68.595  1.00  0.00    -0.149 A  
HETATM   33  C   UNL     1     -11.749  15.500  68.314  1.00  0.00    -0.287 A  
HETATM   34  C   UNL     1      -7.508  16.744  68.751  1.00  0.00    -0.231 C  
HETATM   35  N   UNL     1      -6.983  14.415  68.529  1.00  0.00    -0.092 NA 
HETATM   36  C   UNL     1     -11.999  14.149  68.147  1.00  0.00    -0.367 A  
HETATM   37  C   UNL     1     -10.926  13.243  68.113  1.00  0.00    -0.278 A  
ENDBRANCH  26  27
ENDBRANCH  16  26
ENDBRANCH   4   5
ENDBRANCH   3   4
TORSDOF 5
ENDMDL
MODEL      157
REMARK 921   NORMALIZED FREE ENERGY PREDICTED BY IDOCK:   -4.90 KCAL/MOL
REMARK 922        TOTAL FREE ENERGY PREDICTED BY IDOCK:   -6.83 KCAL/MOL
REMARK 923 INTER-LIGAND FREE ENERGY PREDICTED BY IDOCK:   -6.03 KCAL/MOL
REMARK 924 INTRA-LIGAND FREE ENERGY PREDICTED BY IDOCK:   -0.80 KCAL/MOL
REMARK 927      BINDING AFFINITY PREDICTED BY RF-SCORE:    0.00 PKD
ROOT
HETATM    1  C   UNL     1     -11.693   6.469  70.027  1.00  0.00    -0.388 C  
HETATM    2  C   UNL     1     -10.183   6.464  70.210  1.00  0.00    -0.236 C  
HETATM    3  C   UNL     1      -8.889   6.459  70.367  1.00  0.00    -0.151 C  
ENDROOT
BRANCH   3   4
HETATM    4  C   UNL     1      -7.380   6.454  70.549  1.00  0.00    -0.085 C  
BRANCH   4   5
HETATM    5  N   UNL     1      -6.977   7.885  70.832  1.00  0.00    -0.048 NA 
HETATM    6  C   UNL     1      -6.589   8.431  72.082  1.00  0.00    -0.079 A  
HETATM    7  N   UNL     1      -6.163   9.670  71.933  1.00  0.00    -0.297 NA 
HETATM    8  N   UNL     1      -5.963  11.178  70.060  1.00  0.00    -0.109 N  
HETATM    9  C   UNL     1      -6.343   9.979  70.632  1.00  0.00    -0.100 A  
HETATM   10  O   UNL     1      -5.431  12.198  68.088  1.00  0.00    -0.048 OA 
HETATM   11  C   UNL     1      -6.890   8.951  69.910  1.00  0.00    -0.046 A  
HETATM   12  C   UNL     1      -5.344  12.219  70.860  1.00  0.00    -0.157 C  
HETATM   13  C   UNL     1      -7.226   9.143  68.522  1.00  0.00    -0.073 C  
HETATM   14  C   UNL     1      -6.075  11.331  68.690  1.00  0.00    -0.043 C  
HETATM   15  O   UNL     1      -7.704   8.249  67.831  1.00  0.00    -0.100 OA 
HETATM   16  N   UNL     1      -6.922  10.430  68.024  1.00  0.00    -0.077 N  
BRANCH   6  17
HETATM   17  N   UNL     1      -6.536   7.780  73.283  1.00  0.00    -0.068 NA 
HETATM   18  N   UNL     1      -5.246   5.004  72.372  1.00  0.00    -0.008 NA 
HETATM   19  C   UNL     1      -6.606   5.068  74.428  1.00  0.00    -0.070 C  
HETATM   20  C   UNL     1      -5.295   7.122  73.728  1.00  0.00    -0.046 C  
HETATM   21  C   UNL     1      -7.847   5.665  73.781  1.00  0.00    -0.104 C  
HETATM   22  C   UNL     1      -7.801   7.195  73.791  1.00  0.00    -0.106 C  
HETATM   23  C   UNL     1      -5.344   5.568  73.726  1.00  0.00    -0.023 C  
HETATM   24  H1  UNL     1      -4.404   5.337  71.903  1.00  0.00     0.000 HD 
HETATM   25  H2  UNL     1      -6.085   5.192  71.823  1.00  0.00     0.000 HD 
ENDBRANCH   6  17
BRANCH  16  26
HETATM   26  C   UNL     1      -7.210  10.779  66.610  1.00  0.00    -0.134 C  
BRANCH  26  27
HETATM   27  C   UNL     1      -8.500  11.584  66.325  1.00  0.00    -0.108 A  
HETATM   28  N   UNL     1      -9.287  11.183  65.294  1.00  0.00    -0.220 NA 
HETATM   29  C   UNL     1     -10.305  11.981  64.903  1.00  0.00    -0.278 A  
HETATM   30  C   UNL     1     -10.568  13.215  65.515  1.00  0.00    -0.299 A  
HETATM   31  C   UNL     1     -11.618  14.045  65.004  1.00  0.00    -0.351 A  
HETATM   32  C   UNL     1      -9.735  13.520  66.600  1.00  0.00    -0.280 A  
HETATM   33  C   UNL     1     -12.403  13.651  63.923  1.00  0.00    -0.375 A  
HETATM   34  C   UNL     1      -9.818  14.827  67.337  1.00  0.00    -0.222 C  
HETATM   35  N   UNL     1      -8.733  12.712  67.020  1.00  0.00    -0.203 NA 
HETATM   36  C   UNL     1     -12.163  12.418  63.341  1.00  0.00    -0.623 A  
HETATM   37  C   UNL     1     -11.128  11.607  63.835  1.00  0.00    -0.477 A  
ENDBRANCH  26  27
ENDBRANCH  16  26
ENDBRANCH   4   5
ENDBRANCH   3   4
TORSDOF 5
ENDMDL
MODEL      158
REMARK 921   NORMALIZED FREE ENERGY PREDICTED BY IDOCK:   -4.86 KCAL/MOL
REMARK 922        TOTAL FREE ENERGY PREDICTED BY IDOCK:   -6.78 KCAL/MOL
REMARK 923 INTER-LIGAND FREE ENERGY PREDICTED BY IDOCK:   -6.27 KCAL/MOL
REMARK 924 INTRA-LIGAND FREE ENERGY PREDICTED BY IDOCK:   -0.51 KCAL/MOL
REMARK 927      BINDING AFFINITY PREDICTED BY RF-SCORE:    0.00 PKD
ROOT
HETATM    1  C   UNL     1     -10.688   5.567  66.580  1.00  0.00    -0.332 C  
HETATM    2  C   UNL     1     -10.725   7.001  67.083  1.00  0.00    -0.433 C  
HETATM    3  C   UNL     1     -10.757   8.231  67.515  1.00  0.00    -0.217 C  
ENDROOT
BRANCH   3   4
HETATM    4  C   UNL     1     -10.794   9.665  68.018  1.00  0.00    -0.196 C  
BRANCH   4   5
HETATM    5  N   UNL     1      -9.371  10.030  68.380  1.00  0.00    -0.136 NA 
HETATM    6  C   UNL     1      -8.528  10.948  67.706  1.00  0.00    -0.124 A  
HETATM    7  N   UNL     1      -7.409  11.131  68.381  1.00  0.00    -0.088 NA 
HETATM    8  N   UNL     1      -6.495  10.221  70.419  1.00  0.00    -0.131 N  
HETATM    9  C   UNL     1      -7.461  10.290  69.434  1.00  0.00    -0.128 A  
HETATM   10  O   UNL     1      -6.099   9.588  72.577  1.00  0.00    -0.300 OA 
HETATM   11  C   UNL     1      -8.610   9.545  69.466  1.00  0.00    -0.169 A  
HETATM   12  C   UNL     1      -5.317  11.067  70.365  1.00  0.00    -0.092 C  
HETATM   13  C   UNL     1      -8.788   8.535  70.479  1.00  0.00    -0.154 C  
HETATM   14  C   UNL     1      -6.720   9.417  71.523  1.00  0.00     0.116 C  
HETATM   15  O   UNL     1      -9.804   7.853  70.557  1.00  0.00    -0.185 OA 
HETATM   16  N   UNL     1      -7.712   8.431  71.390  1.00  0.00    -0.090 N  
BRANCH   6  17
HETATM   17  N   UNL     1      -8.823  11.660  66.576  1.00  0.00    -0.187 NA 
HETATM   18  N   UNL     1     -11.884  12.377  67.135  1.00  0.00    -0.534 NA 
HETATM   19  C   UNL     1     -11.080  12.320  64.804  1.00  0.00    -0.356 C  
HETATM   20  C   UNL     1      -9.486  12.973  66.665  1.00  0.00    -0.256 C  
HETATM   21  C   UNL     1     -10.531  10.902  64.859  1.00  0.00    -0.352 C  
HETATM   22  C   UNL     1      -9.076  10.885  65.337  1.00  0.00    -0.198 C  
HETATM   23  C   UNL     1     -10.961  12.993  66.172  1.00  0.00    -0.280 C  
HETATM   24  H1  UNL     1     -11.805  12.825  68.047  1.00  0.00     0.000 HD 
HETATM   25  H2  UNL     1     -11.749  11.367  67.196  1.00  0.00     0.000 HD 
ENDBRANCH   6  17
BRANCH  16  26
HETATM   26  C   UNL     1      -7.750   7.437  72.491  1.00  0.00    -0.092 C  
BRANCH  26  27
HETATM   27  C   UNL     1      -8.161   5.990  72.129  1.00  0.00    -0.107 A  
HETATM   28  N   UNL     1      -7.636   5.442  71.004  1.00  0.00    -0.087 NA 
HETATM   29  C   UNL     1      -8.130   4.263  70.563  1.00  0.00    -0.066 A  
HETATM   30  C   UNL     1      -9.174   3.596  71.218  1.00  0.00    -0.197 A  
HETATM   31  C   UNL     1      -9.699   2.387  70.656  1.00  0.00    -0.075 A  
HETATM   32  C   UNL     1      -9.617   4.214  72.395  1.00  0.00    -0.139 A  
HETATM   33  C   UNL     1      -9.186   1.841  69.482  1.00  0.00    -0.171 A  
HETATM   34  C   UNL     1     -10.774   3.686  73.197  1.00  0.00    -0.268 C  
HETATM   35  N   UNL     1      -9.107   5.377  72.863  1.00  0.00    -0.126 NA 
HETATM   36  C   UNL     1      -8.133   2.484  68.855  1.00  0.00    -0.066 A  
HETATM   37  C   UNL     1      -7.623   3.675  69.399  1.00  0.00    -0.052 A  
ENDBRANCH  26  27
ENDBRANCH  16  26
ENDBRANCH   4   5
ENDBRANCH   3   4
TORSDOF 5
ENDMDL
MODEL      159
REMARK 921   NORMALIZED FREE ENERGY PREDICTED BY IDOCK:   -4.82 KCAL/MOL
REMARK 922        TOTAL FREE ENERGY PREDICTED BY IDOCK:   -6.74 KCAL/MOL
REMARK 923 INTER-LIGAND FREE ENERGY PREDICTED BY IDOCK:   -7.96 KCAL/MOL
REMARK 924 INTRA-LIGAND FREE ENERGY PREDICTED BY IDOCK:    1.22 KCAL/MOL
REMARK 927      BINDING AFFINITY PREDICTED BY RF-SCORE:    0.00 PKD
ROOT
HETATM    1  C   UNL     1     -10.588  20.274  65.502  1.00  0.00    -0.122 C  
HETATM    2  C   UNL     1      -9.891  19.726  66.737  1.00  0.00    -0.528 C  
HETATM    3  C   UNL     1      -9.295  19.255  67.797  1.00  0.00    -0.376 C  
ENDROOT
BRANCH   3   4
HETATM    4  C   UNL     1      -8.598  18.707  69.031  1.00  0.00    -0.066 C  
BRANCH   4   5
HETATM    5  N   UNL     1      -7.808  17.498  68.578  1.00  0.00    -0.266 NA 
HETATM    6  C   UNL     1      -6.397  17.363  68.552  1.00  0.00    -0.176 A  
HETATM    7  N   UNL     1      -6.057  16.127  68.241  1.00  0.00    -0.105 NA 
HETATM    8  N   UNL     1      -7.281  14.129  67.666  1.00  0.00    -0.170 N  
HETATM    9  C   UNL     1      -7.207  15.473  67.976  1.00  0.00    -0.121 A  
HETATM   10  O   UNL     1      -8.664  12.312  67.639  1.00  0.00    -0.158 OA 
HETATM   11  C   UNL     1      -8.315  16.268  68.109  1.00  0.00    -0.172 A  
HETATM   12  C   UNL     1      -6.080  13.319  67.583  1.00  0.00    -0.135 C  
HETATM   13  C   UNL     1      -9.619  15.749  67.781  1.00  0.00    -0.214 C  
HETATM   14  C   UNL     1      -8.526  13.537  67.546  1.00  0.00    -0.192 C  
HETATM   15  O   UNL     1     -10.641  16.416  67.897  1.00  0.00    -0.299 OA 
HETATM   16  N   UNL     1      -9.617  14.401  67.355  1.00  0.00    -0.213 N  
BRANCH   6  17
HETATM   17  N   UNL     1      -5.473  18.308  68.901  1.00  0.00    -0.193 NA 
HETATM   18  N   UNL     1      -7.116  19.929  71.108  1.00  0.00     0.556 NA 
HETATM   19  C   UNL     1      -5.280  21.065  69.916  1.00  0.00    -0.372 C  
HETATM   20  C   UNL     1      -5.156  18.565  70.317  1.00  0.00    -0.222 C  
HETATM   21  C   UNL     1      -5.807  20.794  68.514  1.00  0.00    -0.388 C  
HETATM   22  C   UNL     1      -5.297  19.454  67.976  1.00  0.00    -0.177 C  
HETATM   23  C   UNL     1      -5.667  19.928  70.862  1.00  0.00    -0.291 C  
HETATM   24  H1  UNL     1      -7.374  19.170  71.739  1.00  0.00     0.000 HD 
HETATM   25  H2  UNL     1      -7.647  19.894  70.237  1.00  0.00     0.000 HD 
ENDBRANCH   6  17
BRANCH  16  26
HETATM   26  C   UNL     1     -10.885  13.725  66.984  1.00  0.00    -0.284 C  
BRANCH  26  27
HETATM   27  C   UNL     1     -11.312  12.502  67.830  1.00  0.00    -0.291 A  
HETATM   28  N   UNL     1     -11.972  12.731  68.994  1.00  0.00    -0.277 NA 
HETATM   29  C   UNL     1     -12.178  11.698  69.841  1.00  0.00    -0.239 A  
HETATM   30  C   UNL     1     -11.720  10.401  69.566  1.00  0.00    -0.259 A  
HETATM   31  C   UNL     1     -11.908   9.368  70.540  1.00  0.00    -0.207 A  
HETATM   32  C   UNL     1     -11.094  10.253  68.321  1.00  0.00    -0.254 A  
HETATM   33  C   UNL     1     -12.553   9.609  71.750  1.00  0.00    -0.497 A  
HETATM   34  C   UNL     1     -10.478   8.955  67.879  1.00  0.00    -0.281 C  
HETATM   35  N   UNL     1     -10.913  11.274  67.452  1.00  0.00    -0.264 NA 
HETATM   36  C   UNL     1     -13.033  10.883  72.005  1.00  0.00    -0.418 A  
HETATM   37  C   UNL     1     -12.841  11.900  71.055  1.00  0.00    -0.291 A  
ENDBRANCH  26  27
ENDBRANCH  16  26
ENDBRANCH   4   5
ENDBRANCH   3   4
TORSDOF 5
ENDMDL
MODEL      160
REMARK 921   NORMALIZED FREE ENERGY PREDICTED BY IDOCK:   -4.80 KCAL/MOL
REMARK 922        TOTAL FREE ENERGY PREDICTED BY IDOCK:   -6.71 KCAL/MOL
REMARK 923 INTER-LIGAND FREE ENERGY PREDICTED BY IDOCK:   -5.51 KCAL/MOL
REMARK 924 INTRA-LIGAND FREE ENERGY PREDICTED BY IDOCK:   -1.20 KCAL/MOL
REMARK 927      BINDING AFFINITY PREDICTED BY RF-SCORE:    0.00 PKD
ROOT
HETATM    1  C   UNL     1      -6.083  10.160  64.182  1.00  0.00    -0.137 C  
HETATM    2  C   UNL     1      -6.223  10.901  65.502  1.00  0.00     0.022 C  
HETATM    3  C   UNL     1      -6.343  11.537  66.634  1.00  0.00    -0.103 C  
ENDROOT
BRANCH   3   4
HETATM    4  C   UNL     1      -6.483  12.277  67.955  1.00  0.00    -0.088 C  
BRANCH   4   5
HETATM    5  N   UNL     1      -7.894  12.027  68.440  1.00  0.00    -0.143 NA 
HETATM    6  C   UNL     1      -8.970  12.950  68.445  1.00  0.00    -0.124 A  
HETATM    7  N   UNL     1     -10.091  12.351  68.797  1.00  0.00    -0.120 NA 
HETATM    8  N   UNL     1     -10.673  10.109  69.471  1.00  0.00    -0.232 N  
HETATM    9  C   UNL     1      -9.761  11.081  69.107  1.00  0.00    -0.076 A  
HETATM   10  O   UNL     1     -11.023   7.856  69.592  1.00  0.00    -0.214 OA 
HETATM   11  C   UNL     1      -8.422  10.828  68.964  1.00  0.00    -0.133 A  
HETATM   12  C   UNL     1     -12.089  10.417  69.562  1.00  0.00    -0.054 C  
HETATM   13  C   UNL     1      -7.887   9.542  69.336  1.00  0.00    -0.097 C  
HETATM   14  C   UNL     1     -10.234   8.807  69.636  1.00  0.00    -0.210 C  
HETATM   15  O   UNL     1      -6.699   9.263  69.212  1.00  0.00    -0.048 OA 
HETATM   16  N   UNL     1      -8.853   8.627  69.813  1.00  0.00    -0.135 N  
BRANCH   6  17
HETATM   17  N   UNL     1      -8.935  14.257  68.043  1.00  0.00    -0.176 NA 
HETATM   18  N   UNL     1     -12.057  14.927  68.002  1.00  0.00    -0.557 NA 
HETATM   19  C   UNL     1     -10.535  16.253  66.585  1.00  0.00    -0.290 C  
HETATM   20  C   UNL     1      -9.690  15.290  68.773  1.00  0.00    -0.212 C  
HETATM   21  C   UNL     1      -9.926  15.067  65.852  1.00  0.00    -0.353 C  
HETATM   22  C   UNL     1      -8.710  14.513  66.599  1.00  0.00    -0.129 C  
HETATM   23  C   UNL     1     -10.920  15.859  68.012  1.00  0.00    -0.336 C  
HETATM   24  H1  UNL     1     -12.314  14.664  68.954  1.00  0.00     0.000 HD 
HETATM   25  H2  UNL     1     -11.871  14.110  67.421  1.00  0.00     0.000 HD 
ENDBRANCH   6  17
BRANCH  16  26
HETATM   26  C   UNL     1      -8.455   7.260  70.232  1.00  0.00    -0.137 C  
BRANCH  26  27
HETATM   27  C   UNL     1      -8.494   6.147  69.158  1.00  0.00    -0.119 A  
HETATM   28  N   UNL     1      -8.368   6.513  67.857  1.00  0.00    -0.115 NA 
HETATM   29  C   UNL     1      -8.597   5.591  66.895  1.00  0.00    -0.110 A  
HETATM   30  C   UNL     1      -8.975   4.274  67.195  1.00  0.00    -0.133 A  
HETATM   31  C   UNL     1      -9.273   3.368  66.127  1.00  0.00    -0.169 A  
HETATM   32  C   UNL     1      -9.032   3.978  68.564  1.00  0.00    -0.117 A  
HETATM   33  C   UNL     1      -9.179   3.751  64.792  1.00  0.00    -0.146 A  
HETATM   34  C   UNL     1      -9.484   2.642  69.081  1.00  0.00    -0.148 C  
HETATM   35  N   UNL     1      -8.772   4.886  69.533  1.00  0.00    -0.086 NA 
HETATM   36  C   UNL     1      -8.774   5.042  64.498  1.00  0.00    -0.132 A  
HETATM   37  C   UNL     1      -8.491   5.936  65.544  1.00  0.00    -0.154 A  
ENDBRANCH  26  27
ENDBRANCH  16  26
ENDBRANCH   4   5
ENDBRANCH   3   4
TORSDOF 5
ENDMDL
MODEL      161
REMARK 921   NORMALIZED FREE ENERGY PREDICTED BY IDOCK:   -4.79 KCAL/MOL
REMARK 922        TOTAL FREE ENERGY PREDICTED BY IDOCK:   -6.69 KCAL/MOL
REMARK 923 INTER-LIGAND FREE ENERGY PREDICTED BY IDOCK:   -6.33 KCAL/MOL
REMARK 924 INTRA-LIGAND FREE ENERGY PREDICTED BY IDOCK:   -0.36 KCAL/MOL
REMARK 927      BINDING AFFINITY PREDICTED BY RF-SCORE:    0.00 PKD
ROOT
HETATM    1  C   UNL     1      -9.173   2.845  69.164  1.00  0.00    -0.220 C  
HETATM    2  C   UNL     1      -9.682   4.161  69.731  1.00  0.00    -0.278 C  
HETATM    3  C   UNL     1     -10.119   5.289  70.217  1.00  0.00    -0.329 C  
ENDROOT
BRANCH   3   4
HETATM    4  C   UNL     1     -10.627   6.604  70.785  1.00  0.00    -0.226 C  
BRANCH   4   5
HETATM    5  N   UNL     1      -9.415   7.340  71.316  1.00  0.00    -0.155 NA 
HETATM    6  C   UNL     1      -8.870   7.255  72.622  1.00  0.00    -0.126 A  
HETATM    7  N   UNL     1      -7.730   7.915  72.690  1.00  0.00    -0.105 NA 
HETATM    8  N   UNL     1      -6.446   9.242  71.138  1.00  0.00    -0.087 N  
HETATM    9  C   UNL     1      -7.559   8.502  71.488  1.00  0.00    -0.108 A  
HETATM   10  O   UNL     1      -5.220  10.012  69.373  1.00  0.00    -0.035 OA 
HETATM   11  C   UNL     1      -8.581   8.238  70.615  1.00  0.00    -0.136 A  
HETATM   12  C   UNL     1      -5.367   9.453  72.086  1.00  0.00    -0.075 C  
HETATM   13  C   UNL     1      -8.597   8.858  69.314  1.00  0.00    -0.133 C  
HETATM   14  C   UNL     1      -6.319   9.683  69.833  1.00  0.00    -0.054 C  
HETATM   15  O   UNL     1      -9.482   8.641  68.493  1.00  0.00    -0.141 OA 
HETATM   16  N   UNL     1      -7.490   9.698  69.058  1.00  0.00    -0.072 N  
BRANCH   6  17
HETATM   17  N   UNL     1      -9.351   6.517  73.667  1.00  0.00    -0.132 NA 
HETATM   18  N   UNL     1      -8.323   3.610  72.839  1.00  0.00    -0.085 NA 
HETATM   19  C   UNL     1     -10.282   3.802  74.325  1.00  0.00    -0.237 C  
HETATM   20  C   UNL     1      -8.476   5.581  74.394  1.00  0.00    -0.109 C  
HETATM   21  C   UNL     1     -11.097   4.695  73.401  1.00  0.00    -0.418 C  
HETATM   22  C   UNL     1     -10.795   6.176  73.645  1.00  0.00    -0.126 C  
HETATM   23  C   UNL     1      -8.788   4.077  74.153  1.00  0.00    -0.095 C  
HETATM   24  H1  UNL     1      -7.326   3.793  72.724  1.00  0.00     0.000 HD 
HETATM   25  H2  UNL     1      -8.872   4.012  72.079  1.00  0.00     0.000 HD 
ENDBRANCH   6  17
BRANCH  16  26
HETATM   26  C   UNL     1      -7.365  10.406  67.759  1.00  0.00    -0.087 C  
BRANCH  26  27
HETATM   27  C   UNL     1      -8.219  11.680  67.559  1.00  0.00    -0.148 A  
HETATM   28  N   UNL     1      -8.996  11.759  66.450  1.00  0.00    -0.209 NA 
HETATM   29  C   UNL     1      -9.593  12.935  66.153  1.00  0.00    -0.210 A  
HETATM   30  C   UNL     1      -9.425  14.080  66.945  1.00  0.00    -0.271 A  
HETATM   31  C   UNL     1     -10.026  15.314  66.534  1.00  0.00    -0.278 A  
HETATM   32  C   UNL     1      -8.646  13.889  68.094  1.00  0.00    -0.180 A  
HETATM   33  C   UNL     1     -10.795  15.405  65.376  1.00  0.00    -0.403 A  
HETATM   34  C   UNL     1      -8.296  15.014  69.027  1.00  0.00    -0.194 C  
HETATM   35  N   UNL     1      -8.071  12.707  68.416  1.00  0.00    -0.155 NA 
HETATM   36  C   UNL     1     -10.987  14.265  64.614  1.00  0.00    -0.379 A  
HETATM   37  C   UNL     1     -10.389  13.057  65.010  1.00  0.00    -0.336 A  
ENDBRANCH  26  27
ENDBRANCH  16  26
ENDBRANCH   4   5
ENDBRANCH   3   4
TORSDOF 5
ENDMDL
MODEL      162
REMARK 921   NORMALIZED FREE ENERGY PREDICTED BY IDOCK:   -4.79 KCAL/MOL
REMARK 922        TOTAL FREE ENERGY PREDICTED BY IDOCK:   -6.69 KCAL/MOL
REMARK 923 INTER-LIGAND FREE ENERGY PREDICTED BY IDOCK:   -6.10 KCAL/MOL
REMARK 924 INTRA-LIGAND FREE ENERGY PREDICTED BY IDOCK:   -0.59 KCAL/MOL
REMARK 927      BINDING AFFINITY PREDICTED BY RF-SCORE:    0.00 PKD
ROOT
HETATM    1  C   UNL     1     -12.351  13.420  69.598  1.00  0.00    -0.187 C  
HETATM    2  C   UNL     1     -11.061  13.311  68.801  1.00  0.00    -0.303 C  
HETATM    3  C   UNL     1      -9.955  13.218  68.117  1.00  0.00    -0.234 C  
ENDROOT
BRANCH   3   4
HETATM    4  C   UNL     1      -8.665  13.110  67.320  1.00  0.00    -0.210 C  
BRANCH   4   5
HETATM    5  N   UNL     1      -8.656  11.729  66.702  1.00  0.00    -0.181 NA 
HETATM    6  C   UNL     1      -9.142  11.365  65.421  1.00  0.00    -0.103 A  
HETATM    7  N   UNL     1      -8.839  10.110  65.151  1.00  0.00    -0.170 NA 
HETATM    8  N   UNL     1      -7.725   8.341  66.355  1.00  0.00    -0.090 N  
HETATM    9  C   UNL     1      -8.245   9.617  66.257  1.00  0.00    -0.116 A  
HETATM   10  O   UNL     1      -6.235   7.035  67.491  1.00  0.00    -0.038 OA 
HETATM   11  C   UNL     1      -8.150  10.539  67.267  1.00  0.00    -0.115 A  
HETATM   12  C   UNL     1      -7.810   7.417  65.239  1.00  0.00    -0.121 C  
HETATM   13  C   UNL     1      -7.616  10.152  68.549  1.00  0.00    -0.088 C  
HETATM   14  C   UNL     1      -7.018   7.992  67.493  1.00  0.00    -0.075 C  
HETATM   15  O   UNL     1      -7.497  10.944  69.478  1.00  0.00    -0.137 OA 
HETATM   16  N   UNL     1      -7.209   8.801  68.624  1.00  0.00    -0.072 N  
BRANCH   6  17
HETATM   17  N   UNL     1      -9.744  12.183  64.506  1.00  0.00    -0.103 NA 
HETATM   18  N   UNL     1     -12.636  12.488  65.824  1.00  0.00    -0.454 NA 
HETATM   19  C   UNL     1     -12.394  12.825  63.394  1.00  0.00    -0.531 C  
HETATM   20  C   UNL     1     -10.464  13.394  64.937  1.00  0.00    -0.390 C  
HETATM   21  C   UNL     1     -11.743  11.480  63.109  1.00  0.00     0.022 C  
HETATM   22  C   UNL     1     -10.220  11.556  63.249  1.00  0.00    -0.391 C  
HETATM   23  C   UNL     1     -12.010  13.321  64.788  1.00  0.00    -0.388 C  
HETATM   24  H1  UNL     1     -12.381  12.818  66.755  1.00  0.00     0.000 HD 
HETATM   25  H2  UNL     1     -12.416  11.500  65.700  1.00  0.00     0.000 HD 
ENDBRANCH   6  17
BRANCH  16  26
HETATM   26  C   UNL     1      -6.637   8.254  69.880  1.00  0.00    -0.039 C  
BRANCH  26  27
HETATM   27  C   UNL     1      -7.540   7.325  70.727  1.00  0.00    -0.084 A  
HETATM   28  N   UNL     1      -7.609   6.015  70.379  1.00  0.00    -0.093 NA 
HETATM   29  C   UNL     1      -8.536   5.231  70.974  1.00  0.00    -0.122 A  
HETATM   30  C   UNL     1      -9.438   5.727  71.926  1.00  0.00    -0.169 A  
HETATM   31  C   UNL     1     -10.442   4.860  72.463  1.00  0.00    -0.262 A  
HETATM   32  C   UNL     1      -9.258   7.078  72.254  1.00  0.00    -0.133 A  
HETATM   33  C   UNL     1     -10.538   3.523  72.081  1.00  0.00     0.120 A  
HETATM   34  C   UNL     1     -10.171   7.805  73.201  1.00  0.00    -0.398 C  
HETATM   35  N   UNL     1      -8.311   7.862  71.688  1.00  0.00    -0.109 NA 
HETATM   36  C   UNL     1      -9.625   3.027  71.166  1.00  0.00    -0.229 A  
HETATM   37  C   UNL     1      -8.645   3.879  70.631  1.00  0.00    -0.108 A  
ENDBRANCH  26  27
ENDBRANCH  16  26
ENDBRANCH   4   5
ENDBRANCH   3   4
TORSDOF 5
ENDMDL
MODEL      163
REMARK 921   NORMALIZED FREE ENERGY PREDICTED BY IDOCK:   -4.77 KCAL/MOL
REMARK 922        TOTAL FREE ENERGY PREDICTED BY IDOCK:   -6.66 KCAL/MOL
REMARK 923 INTER-LIGAND FREE ENERGY PREDICTED BY IDOCK:   -6.19 KCAL/MOL
REMARK 924 INTRA-LIGAND FREE ENERGY PREDICTED BY IDOCK:   -0.47 KCAL/MOL
REMARK 927      BINDING AFFINITY PREDICTED BY RF-SCORE:    0.00 PKD
ROOT
HETATM    1  C   UNL     1      -5.129  11.405  70.771  1.00  0.00    -0.113 C  
HETATM    2  C   UNL     1      -5.779  10.130  71.284  1.00  0.00    -0.012 C  
HETATM    3  C   UNL     1      -6.337   9.037  71.724  1.00  0.00    -0.049 C  
ENDROOT
BRANCH   3   4
HETATM    4  C   UNL     1      -6.987   7.762  72.237  1.00  0.00    -0.070 C  
BRANCH   4   5
HETATM    5  N   UNL     1      -7.429   6.984  71.017  1.00  0.00    -0.080 NA 
HETATM    6  C   UNL     1      -7.048   5.665  70.663  1.00  0.00    -0.066 A  
HETATM    7  N   UNL     1      -7.738   5.250  69.618  1.00  0.00    -0.072 NA 
HETATM    8  N   UNL     1      -9.411   6.243  68.192  1.00  0.00    -0.114 N  
HETATM    9  C   UNL     1      -8.498   6.294  69.226  1.00  0.00    -0.124 A  
HETATM   10  O   UNL     1     -11.284   7.225  67.330  1.00  0.00    -0.190 OA 
HETATM   11  C   UNL     1      -8.317   7.407  70.005  1.00  0.00    -0.137 A  
HETATM   12  C   UNL     1      -9.599   5.024  67.426  1.00  0.00    -0.145 C  
HETATM   13  C   UNL     1      -8.990   8.637  69.672  1.00  0.00    -0.145 C  
HETATM   14  C   UNL     1     -10.230   7.335  67.967  1.00  0.00    -0.185 C  
HETATM   15  O   UNL     1      -8.872   9.655  70.347  1.00  0.00    -0.235 OA 
HETATM   16  N   UNL     1      -9.821   8.554  68.532  1.00  0.00    -0.168 N  
BRANCH   6  17
HETATM   17  N   UNL     1      -6.181   4.850  71.335  1.00  0.00    -0.018 NA 
HETATM   18  N   UNL     1      -6.678   2.094  69.803  1.00  0.00    -0.033 NA 
HETATM   19  C   UNL     1      -5.810   2.034  72.110  1.00  0.00    -0.009 C  
HETATM   20  C   UNL     1      -5.234   3.991  70.604  1.00  0.00    -0.004 C  
HETATM   21  C   UNL     1      -6.930   2.862  72.724  1.00  0.00    -0.031 C  
HETATM   22  C   UNL     1      -6.611   4.359  72.667  1.00  0.00    -0.045 C  
HETATM   23  C   UNL     1      -5.551   2.470  70.668  1.00  0.00    -0.013 C  
HETATM   24  H1  UNL     1      -6.506   2.385  68.840  1.00  0.00     0.000 HD 
HETATM   25  H2  UNL     1      -7.564   2.458  70.155  1.00  0.00     0.000 HD 
ENDBRANCH   6  17
BRANCH  16  26
HETATM   26  C   UNL     1     -10.582   9.740  68.065  1.00  0.00    -0.243 C  
BRANCH  26  27
HETATM   27  C   UNL     1     -11.472  10.466  69.101  1.00  0.00    -0.196 A  
HETATM   28  N   UNL     1     -11.452  11.823  69.120  1.00  0.00    -0.271 NA 
HETATM   29  C   UNL     1     -12.062  12.470  70.138  1.00  0.00    -0.292 A  
HETATM   30  C   UNL     1     -12.702  11.788  71.182  1.00  0.00    -0.405 A  
HETATM   31  C   UNL     1     -13.266  12.533  72.268  1.00  0.00    -0.425 A  
HETATM   32  C   UNL     1     -12.714  10.393  71.051  1.00  0.00    -0.394 A  
HETATM   33  C   UNL     1     -13.215  13.925  72.307  1.00  0.00    -0.568 A  
HETATM   34  C   UNL     1     -13.291   9.489  72.104  1.00  0.00    -0.545 C  
HETATM   35  N   UNL     1     -12.134   9.738  70.018  1.00  0.00     0.029 NA 
HETATM   36  C   UNL     1     -12.611  14.597  71.258  1.00  0.00    -0.403 A  
HETATM   37  C   UNL     1     -12.049  13.867  70.198  1.00  0.00    -0.418 A  
ENDBRANCH  26  27
ENDBRANCH  16  26
ENDBRANCH   4   5
ENDBRANCH   3   4
TORSDOF 5
ENDMDL
MODEL      164
REMARK 921   NORMALIZED FREE ENERGY PREDICTED BY IDOCK:   -4.73 KCAL/MOL
REMARK 922        TOTAL FREE ENERGY PREDICTED BY IDOCK:   -6.62 KCAL/MOL
REMARK 923 INTER-LIGAND FREE ENERGY PREDICTED BY IDOCK:   -7.16 KCAL/MOL
REMARK 924 INTRA-LIGAND FREE ENERGY PREDICTED BY IDOCK:    0.53 KCAL/MOL
REMARK 927      BINDING AFFINITY PREDICTED BY RF-SCORE:    0.00 PKD
ROOT
HETATM    1  C   UNL     1     -13.136  15.460  70.125  1.00  0.00     0.005 C  
HETATM    2  C   UNL     1     -12.473  14.092  70.109  1.00  0.00    -0.380 C  
HETATM    3  C   UNL     1     -11.904  12.919  70.095  1.00  0.00    -0.319 C  
ENDROOT
BRANCH   3   4
HETATM    4  C   UNL     1     -11.241  11.551  70.080  1.00  0.00    -0.026 C  
BRANCH   4   5
HETATM    5  N   UNL     1     -10.919  11.246  68.633  1.00  0.00    -0.200 NA 
HETATM    6  C   UNL     1     -10.768  12.180  67.578  1.00  0.00    -0.232 A  
HETATM    7  N   UNL     1     -10.343  11.577  66.484  1.00  0.00    -0.224 NA 
HETATM    8  N   UNL     1      -9.842   9.292  65.897  1.00  0.00    -0.290 N  
HETATM    9  C   UNL     1     -10.296  10.260  66.771  1.00  0.00    -0.227 A  
HETATM   10  O   UNL     1      -8.989   7.178  65.762  1.00  0.00    -0.118 OA 
HETATM   11  C   UNL     1     -10.689   9.980  68.053  1.00  0.00    -0.256 A  
HETATM   12  C   UNL     1      -9.392   9.647  64.564  1.00  0.00    -0.182 C  
HETATM   13  C   UNL     1     -10.779   8.611  68.497  1.00  0.00    -0.043 C  
HETATM   14  C   UNL     1      -9.714   7.990  66.348  1.00  0.00    -0.185 C  
HETATM   15  O   UNL     1     -11.111   8.311  69.639  1.00  0.00    -0.148 OA 
HETATM   16  N   UNL     1     -10.414   7.659  67.519  1.00  0.00    -0.255 N  
BRANCH   6  17
HETATM   17  N   UNL     1     -10.915  13.537  67.653  1.00  0.00    -0.259 NA 
HETATM   18  N   UNL     1     -10.760  14.303  64.557  1.00  0.00    -0.613 NA 
HETATM   19  C   UNL     1     -10.170  16.009  66.236  1.00  0.00    -0.329 C  
HETATM   20  C   UNL     1     -11.893  14.237  66.801  1.00  0.00    -0.426 C  
HETATM   21  C   UNL     1      -9.111  15.176  66.945  1.00  0.00    -0.270 C  
HETATM   22  C   UNL     1      -9.725  14.324  68.059  1.00  0.00    -0.223 C  
HETATM   23  C   UNL     1     -11.270  15.109  65.674  1.00  0.00    -0.296 C  
HETATM   24  H1  UNL     1     -11.494  13.702  64.181  1.00  0.00     0.000 HD 
HETATM   25  H2  UNL     1      -9.933  13.768  64.822  1.00  0.00     0.000 HD 
ENDBRANCH   6  17
BRANCH  16  26
HETATM   26  C   UNL     1     -10.454   6.207  67.828  1.00  0.00    -0.231 C  
BRANCH  26  27
HETATM   27  C   UNL     1      -9.574   5.706  68.998  1.00  0.00    -0.135 A  
HETATM   28  N   UNL     1     -10.091   4.762  69.825  1.00  0.00    -0.242 NA 
HETATM   29  C   UNL     1      -9.425   4.456  70.961  1.00  0.00    -0.162 A  
HETATM   30  C   UNL     1      -8.227   5.089  71.321  1.00  0.00    -0.116 A  
HETATM   31  C   UNL     1      -7.611   4.769  72.574  1.00  0.00    -0.090 A  
HETATM   32  C   UNL     1      -7.747   6.012  70.382  1.00  0.00    -0.097 A  
HETATM   33  C   UNL     1      -8.159   3.827  73.441  1.00  0.00    -0.087 A  
HETATM   34  C   UNL     1      -6.516   6.840  70.623  1.00  0.00    -0.051 C  
HETATM   35  N   UNL     1      -8.390   6.301  69.227  1.00  0.00    -0.116 NA 
HETATM   36  C   UNL     1      -9.324   3.178  73.068  1.00  0.00    -0.122 A  
HETATM   37  C   UNL     1      -9.935   3.498  71.844  1.00  0.00    -0.212 A  
ENDBRANCH  26  27
ENDBRANCH  16  26
ENDBRANCH   4   5
ENDBRANCH   3   4
TORSDOF 5
ENDMDL
MODEL      165
REMARK 921   NORMALIZED FREE ENERGY PREDICTED BY IDOCK:   -4.66 KCAL/MOL
REMARK 922        TOTAL FREE ENERGY PREDICTED BY IDOCK:   -6.53 KCAL/MOL
REMARK 923 INTER-LIGAND FREE ENERGY PREDICTED BY IDOCK:   -6.11 KCAL/MOL
REMARK 924 INTRA-LIGAND FREE ENERGY PREDICTED BY IDOCK:   -0.42 KCAL/MOL
REMARK 927      BINDING AFFINITY PREDICTED BY RF-SCORE:    0.00 PKD
ROOT
HETATM    1  C   UNL     1     -12.441  14.914  69.462  1.00  0.00    -0.123 C  
HETATM    2  C   UNL     1     -11.220  14.749  68.571  1.00  0.00    -0.291 C  
HETATM    3  C   UNL     1     -10.173  14.606  67.807  1.00  0.00    -0.229 C  
ENDROOT
BRANCH   3   4
HETATM    4  C   UNL     1      -8.953  14.441  66.916  1.00  0.00    -0.243 C  
BRANCH   4   5
HETATM    5  N   UNL     1      -8.853  12.965  66.593  1.00  0.00    -0.148 NA 
HETATM    6  C   UNL     1      -9.349  12.310  65.438  1.00  0.00     0.127 A  
HETATM    7  N   UNL     1      -8.955  11.051  65.417  1.00  0.00    -0.197 NA 
HETATM    8  N   UNL     1      -7.665   9.655  66.902  1.00  0.00    -0.098 N  
HETATM    9  C   UNL     1      -8.288  10.842  66.571  1.00  0.00    -0.155 A  
HETATM   10  O   UNL     1      -6.041   8.723  68.209  1.00  0.00    -0.048 OA 
HETATM   11  C   UNL     1      -8.235  11.958  67.365  1.00  0.00    -0.164 A  
HETATM   12  C   UNL     1      -7.711   8.516  66.004  1.00  0.00    -0.093 C  
HETATM   13  C   UNL     1      -7.633  11.885  68.672  1.00  0.00    -0.119 C  
HETATM   14  C   UNL     1      -6.898   9.600  68.053  1.00  0.00    -0.073 C  
HETATM   15  O   UNL     1      -7.548  12.858  69.413  1.00  0.00     0.281 OA 
HETATM   16  N   UNL     1      -7.117  10.611  69.003  1.00  0.00    -0.077 N  
BRANCH   6  17
HETATM   17  N   UNL     1     -10.043  12.875  64.405  1.00  0.00    -0.294 NA 
HETATM   18  N   UNL     1     -12.845  13.429  65.832  1.00  0.00    -0.317 NA 
HETATM   19  C   UNL     1     -12.785  13.183  63.379  1.00  0.00     0.009 C  
HETATM   20  C   UNL     1     -10.775  14.140  64.592  1.00  0.00    -0.389 C  
HETATM   21  C   UNL     1     -12.107  11.821  63.371  1.00  0.00    -0.449 C  
HETATM   22  C   UNL     1     -10.582  11.958  63.371  1.00  0.00    -0.430 C  
HETATM   23  C   UNL     1     -12.324  14.004  64.584  1.00  0.00    -0.397 C  
HETATM   24  H1  UNL     1     -12.538  13.976  66.636  1.00  0.00     0.000 HD 
HETATM   25  H2  UNL     1     -12.598  12.444  65.927  1.00  0.00     0.000 HD 
ENDBRANCH   6  17
BRANCH  16  26
HETATM   26  C   UNL     1      -6.464  10.379  70.315  1.00  0.00    -0.141 C  
BRANCH  26  27
HETATM   27  C   UNL     1      -7.016   9.228  71.191  1.00  0.00    -0.052 A  
HETATM   28  N   UNL     1      -8.359   9.040  71.221  1.00  0.00    -0.295 NA 
HETATM   29  C   UNL     1      -8.876   8.177  72.125  1.00  0.00    -0.178 A  
HETATM   30  C   UNL     1      -8.073   7.483  73.042  1.00  0.00    -0.141 A  
HETATM   31  C   UNL     1      -8.691   6.640  74.021  1.00  0.00    -0.167 A  
HETATM   32  C   UNL     1      -6.697   7.706  72.901  1.00  0.00    -0.069 A  
HETATM   33  C   UNL     1     -10.073   6.472  74.077  1.00  0.00    -0.348 A  
HETATM   34  C   UNL     1      -5.684   7.105  73.835  1.00  0.00    -0.054 C  
HETATM   35  N   UNL     1      -6.168   8.542  71.977  1.00  0.00    -0.064 NA 
HETATM   36  C   UNL     1     -10.861   7.133  73.150  1.00  0.00    -0.373 A  
HETATM   37  C   UNL     1     -10.257   7.968  72.196  1.00  0.00    -0.308 A  
ENDBRANCH  26  27
ENDBRANCH  16  26
ENDBRANCH   4   5
ENDBRANCH   3   4
TORSDOF 5
ENDMDL
MODEL      166
REMARK 921   NORMALIZED FREE ENERGY PREDICTED BY IDOCK:   -4.66 KCAL/MOL
REMARK 922        TOTAL FREE ENERGY PREDICTED BY IDOCK:   -6.52 KCAL/MOL
REMARK 923 INTER-LIGAND FREE ENERGY PREDICTED BY IDOCK:   -7.50 KCAL/MOL
REMARK 924 INTRA-LIGAND FREE ENERGY PREDICTED BY IDOCK:    0.98 KCAL/MOL
REMARK 927      BINDING AFFINITY PREDICTED BY RF-SCORE:    0.00 PKD
ROOT
HETATM    1  C   UNL     1     -10.989  16.318  70.076  1.00  0.00    -0.356 C  
HETATM    2  C   UNL     1     -11.352  15.087  69.260  1.00  0.00    -0.311 C  
HETATM    3  C   UNL     1     -11.662  14.031  68.561  1.00  0.00    -0.387 C  
ENDROOT
BRANCH   3   4
HETATM    4  C   UNL     1     -12.024  12.800  67.746  1.00  0.00    -0.260 C  
BRANCH   4   5
HETATM    5  N   UNL     1     -10.744  12.016  67.560  1.00  0.00    -0.220 NA 
HETATM    6  C   UNL     1      -9.909  12.005  66.414  1.00  0.00    -0.220 A  
HETATM    7  N   UNL     1      -8.803  11.328  66.654  1.00  0.00    -0.169 NA 
HETATM    8  N   UNL     1      -7.950  10.095  68.544  1.00  0.00    -0.101 N  
HETATM    9  C   UNL     1      -8.931  10.822  67.898  1.00  0.00    -0.139 A  
HETATM   10  O   UNL     1      -7.187   9.432  70.592  1.00  0.00    -0.106 OA 
HETATM   11  C   UNL     1     -10.120  11.158  68.491  1.00  0.00    -0.201 A  
HETATM   12  C   UNL     1      -6.687   9.806  67.889  1.00  0.00    -0.065 C  
HETATM   13  C   UNL     1     -10.453  10.629  69.789  1.00  0.00    -0.143 C  
HETATM   14  C   UNL     1      -8.140   9.742  69.868  1.00  0.00    -0.182 C  
HETATM   15  O   UNL     1     -11.498  10.911  70.366  1.00  0.00    -0.307 OA 
HETATM   16  N   UNL     1      -9.459   9.794  70.349  1.00  0.00    -0.214 N  
BRANCH   6  17
HETATM   17  N   UNL     1     -10.115  12.675  65.240  1.00  0.00    -0.277 NA 
HETATM   18  N   UNL     1     -13.302  12.859  65.235  1.00  0.00    -0.324 NA 
HETATM   19  C   UNL     1     -12.099  12.976  63.086  1.00  0.00    -0.324 C  
HETATM   20  C   UNL     1     -10.994  13.856  65.191  1.00  0.00    -0.350 C  
HETATM   21  C   UNL     1     -11.338  11.669  63.257  1.00  0.00    -0.288 C  
HETATM   22  C   UNL     1     -10.010  11.889  63.986  1.00  0.00    -0.293 C  
HETATM   23  C   UNL     1     -12.339  13.637  64.443  1.00  0.00    -0.338 C  
HETATM   24  H1  UNL     1     -13.463  13.300  66.141  1.00  0.00     0.000 HD 
HETATM   25  H2  UNL     1     -13.013  11.886  65.334  1.00  0.00     0.000 HD 
ENDBRANCH   6  17
BRANCH  16  26
HETATM   26  C   UNL     1      -9.657   9.176  71.683  1.00  0.00    -0.156 C  
BRANCH  26  27
HETATM   27  C   UNL     1      -9.549   7.635  71.775  1.00  0.00    -0.149 A  
HETATM   28  N   UNL     1     -10.627   6.947  72.231  1.00  0.00    -0.212 NA 
HETATM   29  C   UNL     1     -10.491   5.631  72.507  1.00  0.00    -0.213 A  
HETATM   30  C   UNL     1      -9.272   4.955  72.353  1.00  0.00    -0.151 A  
HETATM   31  C   UNL     1      -9.179   3.577  72.733  1.00  0.00    -0.131 A  
HETATM   32  C   UNL     1      -8.231   5.736  71.832  1.00  0.00    -0.119 A  
HETATM   33  C   UNL     1     -10.275   2.879  73.235  1.00  0.00    -0.209 A  
HETATM   34  C   UNL     1      -6.835   5.207  71.662  1.00  0.00    -0.056 C  
HETATM   35  N   UNL     1      -8.367   7.046  71.522  1.00  0.00    -0.112 NA 
HETATM   36  C   UNL     1     -11.486   3.539  73.355  1.00  0.00    -0.130 A  
HETATM   37  C   UNL     1     -11.576   4.893  72.992  1.00  0.00    -0.284 A  
ENDBRANCH  26  27
ENDBRANCH  16  26
ENDBRANCH   4   5
ENDBRANCH   3   4
TORSDOF 5
ENDMDL
MODEL      167
REMARK 921   NORMALIZED FREE ENERGY PREDICTED BY IDOCK:   -4.54 KCAL/MOL
REMARK 922        TOTAL FREE ENERGY PREDICTED BY IDOCK:   -6.37 KCAL/MOL
REMARK 923 INTER-LIGAND FREE ENERGY PREDICTED BY IDOCK:   -6.04 KCAL/MOL
REMARK 924 INTRA-LIGAND FREE ENERGY PREDICTED BY IDOCK:   -0.33 KCAL/MOL
REMARK 927      BINDING AFFINITY PREDICTED BY RF-SCORE:    0.00 PKD
ROOT
HETATM    1  C   UNL     1      -6.876   5.588  67.818  1.00  0.00    -0.064 C  
HETATM    2  C   UNL     1      -6.457   6.822  67.033  1.00  0.00    -0.043 C  
HETATM    3  C   UNL     1      -6.098   7.879  66.360  1.00  0.00    -0.045 C  
ENDROOT
BRANCH   3   4
HETATM    4  C   UNL     1      -5.679   9.112  65.577  1.00  0.00    -0.053 C  
BRANCH   4   5
HETATM    5  N   UNL     1      -6.955   9.775  65.104  1.00  0.00    -0.110 NA 
HETATM    6  C   UNL     1      -7.665   9.501  63.908  1.00  0.00    -0.123 A  
HETATM    7  N   UNL     1      -8.809  10.157  63.890  1.00  0.00    -0.209 NA 
HETATM    8  N   UNL     1      -9.890  11.717  65.379  1.00  0.00    -0.232 N  
HETATM    9  C   UNL     1      -8.827  10.920  65.002  1.00  0.00    -0.139 A  
HETATM   10  O   UNL     1     -10.881  12.758  67.153  1.00  0.00    -0.249 OA 
HETATM   11  C   UNL     1      -7.697  10.777  65.764  1.00  0.00    -0.094 A  
HETATM   12  C   UNL     1     -11.085  11.798  64.559  1.00  0.00    -0.315 C  
HETATM   13  C   UNL     1      -7.516  11.585  66.944  1.00  0.00    -0.145 C  
HETATM   14  C   UNL     1      -9.849  12.351  66.608  1.00  0.00    -0.223 C  
HETATM   15  O   UNL     1      -6.530  11.483  67.666  1.00  0.00    -0.057 OA 
HETATM   16  N   UNL     1      -8.587  12.468  67.213  1.00  0.00    -0.184 N  
BRANCH   6  17
HETATM   17  N   UNL     1      -7.319   8.610  62.931  1.00  0.00    -0.095 NA 
HETATM   18  N   UNL     1      -8.463   5.908  64.190  1.00  0.00    -0.324 NA 
HETATM   19  C   UNL     1      -6.623   5.774  62.554  1.00  0.00    -0.032 C  
HETATM   20  C   UNL     1      -8.309   7.661  62.392  1.00  0.00    -0.054 C  
HETATM   21  C   UNL     1      -5.679   6.708  63.298  1.00  0.00    -0.034 C  
HETATM   22  C   UNL     1      -5.904   8.167  62.892  1.00  0.00    -0.073 C  
HETATM   23  C   UNL     1      -8.077   6.177  62.797  1.00  0.00    -0.085 C  
HETATM   24  H1  UNL     1      -9.433   6.177  64.353  1.00  0.00     0.000 HD 
HETATM   25  H2  UNL     1      -7.830   6.356  64.852  1.00  0.00     0.000 HD 
ENDBRANCH   6  17
BRANCH  16  26
HETATM   26  C   UNL     1      -8.547  13.363  68.396  1.00  0.00    -0.134 C  
BRANCH  26  27
HETATM   27  C   UNL     1      -8.359  14.877  68.135  1.00  0.00    -0.144 A  
HETATM   28  N   UNL     1      -9.445  15.682  68.245  1.00  0.00    -0.198 NA 
HETATM   29  C   UNL     1      -9.350  16.966  67.831  1.00  0.00    -0.238 A  
HETATM   30  C   UNL     1      -8.172  17.489  67.279  1.00  0.00    -0.222 A  
HETATM   31  C   UNL     1      -8.161  18.836  66.793  1.00  0.00    -0.274 A  
HETATM   32  C   UNL     1      -7.091  16.597  67.251  1.00  0.00    -0.175 A  
HETATM   33  C   UNL     1      -9.285  19.654  66.872  1.00  0.00    -0.431 A  
HETATM   34  C   UNL     1      -5.769  16.953  66.633  1.00  0.00    -0.127 C  
HETATM   35  N   UNL     1      -7.168  15.320  67.694  1.00  0.00    -0.163 NA 
HETATM   36  C   UNL     1     -10.437  19.146  67.449  1.00  0.00    -0.552 A  
HETATM   37  C   UNL     1     -10.453  17.821  67.916  1.00  0.00    -0.401 A  
ENDBRANCH  26  27
ENDBRANCH  16  26
ENDBRANCH   4   5
ENDBRANCH   3   4
TORSDOF 5
ENDMDL
MODEL      168
REMARK 921   NORMALIZED FREE ENERGY PREDICTED BY IDOCK:   -4.51 KCAL/MOL
REMARK 922        TOTAL FREE ENERGY PREDICTED BY IDOCK:   -6.34 KCAL/MOL
REMARK 923 INTER-LIGAND FREE ENERGY PREDICTED BY IDOCK:   -5.93 KCAL/MOL
REMARK 924 INTRA-LIGAND FREE ENERGY PREDICTED BY IDOCK:   -0.41 KCAL/MOL
REMARK 927      BINDING AFFINITY PREDICTED BY RF-SCORE:    0.00 PKD
ROOT
HETATM    1  C   UNL     1     -10.149   5.545  71.792  1.00  0.00    -0.247 C  
HETATM    2  C   UNL     1     -10.129   5.558  70.271  1.00  0.00    -0.305 C  
HETATM    3  C   UNL     1     -10.111   5.569  68.968  1.00  0.00    -0.275 C  
ENDROOT
BRANCH   3   4
HETATM    4  C   UNL     1     -10.091   5.582  67.448  1.00  0.00    -0.179 C  
BRANCH   4   5
HETATM    5  N   UNL     1      -8.751   6.155  67.041  1.00  0.00    -0.107 NA 
HETATM    6  C   UNL     1      -7.688   5.467  66.402  1.00  0.00    -0.099 A  
HETATM    7  N   UNL     1      -6.731   6.309  66.063  1.00  0.00    -0.051 NA 
HETATM    8  N   UNL     1      -6.386   8.681  66.340  1.00  0.00    -0.060 N  
HETATM    9  C   UNL     1      -7.101   7.516  66.540  1.00  0.00    -0.075 A  
HETATM   10  O   UNL     1      -6.540  10.958  66.299  1.00  0.00    -0.123 OA 
HETATM   11  C   UNL     1      -8.301   7.483  67.199  1.00  0.00    -0.121 A  
HETATM   12  C   UNL     1      -5.141   8.669  65.593  1.00  0.00    -0.030 C  
HETATM   13  C   UNL     1      -8.802   8.670  67.845  1.00  0.00    -0.137 C  
HETATM   14  C   UNL     1      -6.931   9.881  66.762  1.00  0.00    -0.089 C  
HETATM   15  O   UNL     1      -9.877   8.695  68.434  1.00  0.00    -0.162 OA 
HETATM   16  N   UNL     1      -7.968   9.803  67.705  1.00  0.00    -0.101 N  
BRANCH   6  17
HETATM   17  N   UNL     1      -7.653   4.145  66.058  1.00  0.00    -0.088 NA 
HETATM   18  N   UNL     1      -7.861   2.796  68.944  1.00  0.00    -0.050 NA 
HETATM   19  C   UNL     1      -6.822   1.522  67.107  1.00  0.00    -0.038 C  
HETATM   20  C   UNL     1      -8.650   3.200  66.591  1.00  0.00    -0.119 C  
HETATM   21  C   UNL     1      -5.782   2.575  66.750  1.00  0.00    -0.022 C  
HETATM   22  C   UNL     1      -6.327   3.570  65.721  1.00  0.00    -0.032 C  
HETATM   23  C   UNL     1      -8.097   2.184  67.629  1.00  0.00    -0.064 C  
HETATM   24  H1  UNL     1      -8.711   3.238  69.294  1.00  0.00     0.000 HD 
HETATM   25  H2  UNL     1      -7.077   3.448  68.924  1.00  0.00     0.000 HD 
ENDBRANCH   6  17
BRANCH  16  26
HETATM   26  C   UNL     1      -8.351  11.101  68.314  1.00  0.00    -0.143 C  
BRANCH  26  27
HETATM   27  C   UNL     1      -9.595  11.817  67.737  1.00  0.00    -0.184 A  
HETATM   28  N   UNL     1      -9.673  11.974  66.391  1.00  0.00    -0.219 NA 
HETATM   29  C   UNL     1     -10.644  12.766  65.883  1.00  0.00    -0.274 A  
HETATM   30  C   UNL     1     -11.563  13.441  66.697  1.00  0.00    -0.399 A  
HETATM   31  C   UNL     1     -12.521  14.321  66.098  1.00  0.00    -0.362 A  
HETATM   32  C   UNL     1     -11.434  13.179  68.068  1.00  0.00    -0.311 A  
HETATM   33  C   UNL     1     -12.580  14.511  64.719  1.00  0.00    -0.232 A  
HETATM   34  C   UNL     1     -12.283  13.864  69.102  1.00  0.00    -0.305 C  
HETATM   35  N   UNL     1     -10.486  12.363  68.584  1.00  0.00    -0.225 NA 
HETATM   36  C   UNL     1     -11.692  13.818  63.914  1.00  0.00    -0.304 A  
HETATM   37  C   UNL     1     -10.746  12.962  64.501  1.00  0.00    -0.392 A  
ENDBRANCH  26  27
ENDBRANCH  16  26
ENDBRANCH   4   5
ENDBRANCH   3   4
TORSDOF 5
ENDMDL
MODEL      169
REMARK 921   NORMALIZED FREE ENERGY PREDICTED BY IDOCK:   -4.50 KCAL/MOL
REMARK 922        TOTAL FREE ENERGY PREDICTED BY IDOCK:   -6.32 KCAL/MOL
REMARK 923 INTER-LIGAND FREE ENERGY PREDICTED BY IDOCK:   -6.05 KCAL/MOL
REMARK 924 INTRA-LIGAND FREE ENERGY PREDICTED BY IDOCK:   -0.28 KCAL/MOL
REMARK 927      BINDING AFFINITY PREDICTED BY RF-SCORE:    0.00 PKD
ROOT
HETATM    1  C   UNL     1     -12.272  12.932  66.639  1.00  0.00    -0.229 C  
HETATM    2  C   UNL     1     -11.709  11.786  67.465  1.00  0.00    -0.312 C  
HETATM    3  C   UNL     1     -11.226  10.803  68.173  1.00  0.00    -0.365 C  
ENDROOT
BRANCH   3   4
HETATM    4  C   UNL     1     -10.665   9.658  68.999  1.00  0.00    -0.211 C  
BRANCH   4   5
HETATM    5  N   UNL     1      -9.361   9.255  68.343  1.00  0.00    -0.138 NA 
HETATM    6  C   UNL     1      -8.981   7.953  67.931  1.00  0.00    -0.129 A  
HETATM    7  N   UNL     1      -7.843   7.994  67.265  1.00  0.00    -0.108 NA 
HETATM    8  N   UNL     1      -6.291   9.742  66.670  1.00  0.00    -0.065 N  
HETATM    9  C   UNL     1      -7.424   9.275  67.307  1.00  0.00    -0.091 A  
HETATM   10  O   UNL     1      -5.276  11.611  65.839  1.00  0.00    -0.298 OA 
HETATM   11  C   UNL     1      -8.279  10.093  67.999  1.00  0.00    -0.113 A  
HETATM   12  C   UNL     1      -5.443   8.843  65.909  1.00  0.00    -0.041 C  
HETATM   13  C   UNL     1      -7.939  11.477  68.212  1.00  0.00    -0.142 C  
HETATM   14  C   UNL     1      -6.034  11.102  66.672  1.00  0.00    -0.130 C  
HETATM   15  O   UNL     1      -8.677  12.251  68.812  1.00  0.00    -0.024 OA 
HETATM   16  N   UNL     1      -6.708  11.867  67.637  1.00  0.00    -0.093 N  
BRANCH   6  17
HETATM   17  N   UNL     1      -9.703   6.801  68.073  1.00  0.00    -0.124 NA 
HETATM   18  N   UNL     1      -7.518   4.644  67.195  1.00  0.00    -0.084 NA 
HETATM   19  C   UNL     1      -9.908   4.072  66.986  1.00  0.00    -0.151 C  
HETATM   20  C   UNL     1      -9.153   5.655  68.818  1.00  0.00    -0.118 C  
HETATM   21  C   UNL     1     -10.286   5.273  66.132  1.00  0.00    -0.223 C  
HETATM   22  C   UNL     1     -10.673   6.475  66.999  1.00  0.00    -0.364 C  
HETATM   23  C   UNL     1      -8.768   4.431  67.940  1.00  0.00    -0.105 C  
HETATM   24  H1  UNL     1      -6.757   4.883  67.831  1.00  0.00     0.000 HD 
HETATM   25  H2  UNL     1      -7.630   5.341  66.460  1.00  0.00     0.000 HD 
ENDBRANCH   6  17
BRANCH  16  26
HETATM   26  C   UNL     1      -6.223  13.264  67.770  1.00  0.00    -0.158 C  
BRANCH  26  27
HETATM   27  C   UNL     1      -7.260  14.397  67.582  1.00  0.00    -0.184 A  
HETATM   28  N   UNL     1      -8.225  14.228  66.643  1.00  0.00     0.162 NA 
HETATM   29  C   UNL     1      -9.015  15.278  66.324  1.00  0.00    -0.279 A  
HETATM   30  C   UNL     1      -8.862  16.539  66.919  1.00  0.00    -0.233 A  
HETATM   31  C   UNL     1      -9.684  17.627  66.483  1.00  0.00    -0.310 A  
HETATM   32  C   UNL     1      -7.872  16.602  67.910  1.00  0.00    -0.166 A  
HETATM   33  C   UNL     1     -10.652  17.465  65.494  1.00  0.00    -0.115 A  
HETATM   34  C   UNL     1      -7.515  17.883  68.610  1.00  0.00    -0.280 C  
HETATM   35  N   UNL     1      -7.099  15.548  68.259  1.00  0.00    -0.110 NA 
HETATM   36  C   UNL     1     -10.824  16.211  64.932  1.00  0.00    -0.353 A  
HETATM   37  C   UNL     1     -10.011  15.145  65.352  1.00  0.00    -0.365 A  
ENDBRANCH  26  27
ENDBRANCH  16  26
ENDBRANCH   4   5
ENDBRANCH   3   4
TORSDOF 5
ENDMDL
MODEL      170
REMARK 921   NORMALIZED FREE ENERGY PREDICTED BY IDOCK:   -4.44 KCAL/MOL
REMARK 922        TOTAL FREE ENERGY PREDICTED BY IDOCK:   -6.24 KCAL/MOL
REMARK 923 INTER-LIGAND FREE ENERGY PREDICTED BY IDOCK:   -5.66 KCAL/MOL
REMARK 924 INTRA-LIGAND FREE ENERGY PREDICTED BY IDOCK:   -0.58 KCAL/MOL
REMARK 927      BINDING AFFINITY PREDICTED BY RF-SCORE:    0.00 PKD
ROOT
HETATM    1  C   UNL     1      -7.040   8.442  73.094  1.00  0.00    -0.110 C  
HETATM    2  C   UNL     1      -8.110   8.156  72.053  1.00  0.00    -0.178 C  
HETATM    3  C   UNL     1      -9.028   7.912  71.160  1.00  0.00    -0.153 C  
ENDROOT
BRANCH   3   4
HETATM    4  C   UNL     1     -10.099   7.626  70.119  1.00  0.00    -0.199 C  
BRANCH   4   5
HETATM    5  N   UNL     1      -9.496   7.976  68.776  1.00  0.00    -0.147 NA 
HETATM    6  C   UNL     1      -8.712   7.133  67.948  1.00  0.00    -0.126 A  
HETATM    7  N   UNL     1      -8.481   7.713  66.786  1.00  0.00    -0.123 NA 
HETATM    8  N   UNL     1      -9.037   9.853  65.822  1.00  0.00    -0.157 N  
HETATM    9  C   UNL     1      -9.019   8.948  66.865  1.00  0.00    -0.128 A  
HETATM   10  O   UNL     1     -10.096  11.700  64.997  1.00  0.00    -0.244 OA 
HETATM   11  C   UNL     1      -9.608   9.196  68.076  1.00  0.00    -0.147 A  
HETATM   12  C   UNL     1      -8.438   9.523  64.541  1.00  0.00    -0.181 C  
HETATM   13  C   UNL     1     -10.157  10.499  68.358  1.00  0.00    -0.164 C  
HETATM   14  C   UNL     1      -9.735  11.038  65.976  1.00  0.00    -0.224 C  
HETATM   15  O   UNL     1     -10.708  10.765  69.421  1.00  0.00    -0.216 OA 
HETATM   16  N   UNL     1     -10.040  11.420  67.292  1.00  0.00    -0.190 N  
BRANCH   6  17
HETATM   17  N   UNL     1      -8.319   5.851  68.215  1.00  0.00    -0.111 NA 
HETATM   18  N   UNL     1      -9.348   4.375  65.578  1.00  0.00    -0.152 NA 
HETATM   19  C   UNL     1      -9.055   3.059  67.642  1.00  0.00    -0.219 C  
HETATM   20  C   UNL     1      -7.570   5.069  67.216  1.00  0.00    -0.091 C  
HETATM   21  C   UNL     1      -9.948   3.928  68.515  1.00  0.00     0.142 C  
HETATM   22  C   UNL     1      -9.157   5.071  69.158  1.00  0.00    -0.100 C  
HETATM   23  C   UNL     1      -8.370   3.904  66.568  1.00  0.00    -0.104 C  
HETATM   24  H1  UNL     1      -8.891   4.939  64.861  1.00  0.00     0.000 HD 
HETATM   25  H2  UNL     1     -10.121   4.875  66.017  1.00  0.00     0.000 HD 
ENDBRANCH   6  17
BRANCH  16  26
HETATM   26  C   UNL     1     -10.561  12.803  67.431  1.00  0.00    -0.229 C  
BRANCH  26  27
HETATM   27  C   UNL     1      -9.526  13.935  67.637  1.00  0.00    -0.212 A  
HETATM   28  N   UNL     1      -9.675  15.074  66.914  1.00  0.00    -0.231 NA 
HETATM   29  C   UNL     1      -8.681  15.990  66.927  1.00  0.00    -0.229 A  
HETATM   30  C   UNL     1      -7.495  15.797  67.650  1.00  0.00    -0.180 A  
HETATM   31  C   UNL     1      -6.452  16.774  67.562  1.00  0.00    -0.178 A  
HETATM   32  C   UNL     1      -7.453  14.616  68.402  1.00  0.00    -0.117 A  
HETATM   33  C   UNL     1      -6.589  17.927  66.793  1.00  0.00    -0.216 A  
HETATM   34  C   UNL     1      -6.239  14.202  69.185  1.00  0.00    -0.101 C  
HETATM   35  N   UNL     1      -8.457  13.709  68.421  1.00  0.00    -0.162 NA 
HETATM   36  C   UNL     1      -7.774  18.131  66.106  1.00  0.00    -0.259 A  
HETATM   37  C   UNL     1      -8.794  17.169  66.183  1.00  0.00    -0.220 A  
ENDBRANCH  26  27
ENDBRANCH  16  26
ENDBRANCH   4   5
ENDBRANCH   3   4
TORSDOF 5
ENDMDL
MODEL      171
REMARK 921   NORMALIZED FREE ENERGY PREDICTED BY IDOCK:   -4.43 KCAL/MOL
REMARK 922        TOTAL FREE ENERGY PREDICTED BY IDOCK:   -6.22 KCAL/MOL
REMARK 923 INTER-LIGAND FREE ENERGY PREDICTED BY IDOCK:   -5.51 KCAL/MOL
REMARK 924 INTRA-LIGAND FREE ENERGY PREDICTED BY IDOCK:   -0.71 KCAL/MOL
REMARK 927      BINDING AFFINITY PREDICTED BY RF-SCORE:    0.00 PKD
ROOT
HETATM    1  C   UNL     1     -12.211  10.187  70.640  1.00  0.00    -0.394 C  
HETATM    2  C   UNL     1     -11.104   9.240  70.201  1.00  0.00    -0.260 C  
HETATM    3  C   UNL     1     -10.156   8.429  69.825  1.00  0.00    -0.197 C  
ENDROOT
BRANCH   3   4
HETATM    4  C   UNL     1      -9.049   7.484  69.386  1.00  0.00    -0.142 C  
BRANCH   4   5
HETATM    5  N   UNL     1      -8.886   7.677  67.894  1.00  0.00    -0.127 NA 
HETATM    6  C   UNL     1      -8.929   6.673  66.894  1.00  0.00    -0.127 A  
HETATM    7  N   UNL     1      -8.898   7.216  65.693  1.00  0.00    -0.076 NA 
HETATM    8  N   UNL     1      -8.726   9.474  64.859  1.00  0.00    -0.177 N  
HETATM    9  C   UNL     1      -8.746   8.544  65.880  1.00  0.00    -0.174 A  
HETATM   10  O   UNL     1      -9.048  11.679  64.362  1.00  0.00     0.073 OA 
HETATM   11  C   UNL     1      -8.675   8.890  67.204  1.00  0.00    -0.120 A  
HETATM   12  C   UNL     1      -8.852   9.059  63.474  1.00  0.00     0.018 C  
HETATM   13  C   UNL     1      -8.429  10.260  67.579  1.00  0.00    -0.118 C  
HETATM   14  C   UNL     1      -8.700  10.820  65.180  1.00  0.00    -0.164 C  
HETATM   15  O   UNL     1      -8.372  10.622  68.749  1.00  0.00    -0.127 OA 
HETATM   16  N   UNL     1      -8.300  11.146  66.485  1.00  0.00    -0.163 N  
BRANCH   6  17
HETATM   17  N   UNL     1      -9.095   5.330  67.084  1.00  0.00    -0.112 NA 
HETATM   18  N   UNL     1      -6.708   4.198  65.290  1.00  0.00    -0.047 NA 
HETATM   19  C   UNL     1      -8.653   2.749  65.736  1.00  0.00    -0.115 C  
HETATM   20  C   UNL     1      -7.955   4.475  67.457  1.00  0.00    -0.100 C  
HETATM   21  C   UNL     1      -9.701   3.723  65.215  1.00  0.00    -0.167 C  
HETATM   22  C   UNL     1     -10.181   4.669  66.319  1.00  0.00    -0.275 C  
HETATM   23  C   UNL     1      -7.471   3.508  66.340  1.00  0.00    -0.077 C  
HETATM   24  H1  UNL     1      -5.920   4.705  65.692  1.00  0.00     0.000 HD 
HETATM   25  H2  UNL     1      -7.303   4.809  64.729  1.00  0.00     0.000 HD 
ENDBRANCH   6  17
BRANCH  16  26
HETATM   26  C   UNL     1      -8.046  12.591  66.712  1.00  0.00     0.050 C  
BRANCH  26  27
HETATM   27  C   UNL     1      -9.226  13.448  67.229  1.00  0.00    -0.222 A  
HETATM   28  N   UNL     1      -9.136  13.969  68.478  1.00  0.00    -0.187 NA 
HETATM   29  C   UNL     1     -10.229  14.549  69.023  1.00  0.00    -0.206 A  
HETATM   30  C   UNL     1     -11.456  14.617  68.348  1.00  0.00    -0.335 A  
HETATM   31  C   UNL     1     -12.594  15.180  69.011  1.00  0.00     0.229 A  
HETATM   32  C   UNL     1     -11.438  14.097  67.047  1.00  0.00    -0.352 A  
HETATM   33  C   UNL     1     -12.512  15.684  70.307  1.00  0.00    -0.369 A  
HETATM   34  C   UNL     1     -12.673  14.018  66.194  1.00  0.00    -0.309 C  
HETATM   35  N   UNL     1     -10.340  13.544  66.481  1.00  0.00    -0.277 NA 
HETATM   36  C   UNL     1     -11.292  15.645  70.960  1.00  0.00    -0.426 A  
HETATM   37  C   UNL     1     -10.177  15.084  70.314  1.00  0.00     0.061 A  
ENDBRANCH  26  27
ENDBRANCH  16  26
ENDBRANCH   4   5
ENDBRANCH   3   4
TORSDOF 5
ENDMDL
MODEL      172
REMARK 921   NORMALIZED FREE ENERGY PREDICTED BY IDOCK:   -4.42 KCAL/MOL
REMARK 922        TOTAL FREE ENERGY PREDICTED BY IDOCK:   -6.22 KCAL/MOL
REMARK 923 INTER-LIGAND FREE ENERGY PREDICTED BY IDOCK:   -7.67 KCAL/MOL
REMARK 924 INTRA-LIGAND FREE ENERGY PREDICTED BY IDOCK:    1.45 KCAL/MOL
REMARK 927      BINDING AFFINITY PREDICTED BY RF-SCORE:    0.00 PKD
ROOT
HETATM    1  C   UNL     1     -12.806  13.966  64.954  1.00  0.00    -0.221 C  
HETATM    2  C   UNL     1     -12.454  13.544  66.372  1.00  0.00    -0.349 C  
HETATM    3  C   UNL     1     -12.151  13.182  67.588  1.00  0.00    -0.281 C  
ENDROOT
BRANCH   3   4
HETATM    4  C   UNL     1     -11.800  12.761  69.005  1.00  0.00    -0.297 C  
BRANCH   4   5
HETATM    5  N   UNL     1     -10.482  12.022  68.919  1.00  0.00    -0.172 NA 
HETATM    6  C   UNL     1     -10.252  10.652  69.203  1.00  0.00    -0.220 A  
HETATM    7  N   UNL     1      -9.019  10.314  68.879  1.00  0.00    -0.154 NA 
HETATM    8  N   UNL     1      -7.115  11.502  67.994  1.00  0.00    -0.075 N  
HETATM    9  C   UNL     1      -8.409  11.447  68.473  1.00  0.00    -0.153 A  
HETATM   10  O   UNL     1      -5.666  12.725  66.722  1.00  0.00    -0.165 OA 
HETATM   11  C   UNL     1      -9.230  12.542  68.525  1.00  0.00    -0.070 A  
HETATM   12  C   UNL     1      -6.300  10.303  67.915  1.00  0.00    -0.060 C  
HETATM   13  C   UNL     1      -8.711  13.849  68.206  1.00  0.00    -0.183 C  
HETATM   14  C   UNL     1      -6.641  12.696  67.481  1.00  0.00    -0.156 C  
HETATM   15  O   UNL     1      -9.410  14.856  68.224  1.00  0.00    -0.184 OA 
HETATM   16  N   UNL     1      -7.347  13.857  67.836  1.00  0.00    -0.135 N  
BRANCH   6  17
HETATM   17  N   UNL     1     -11.169   9.737  69.641  1.00  0.00    -0.214 NA 
HETATM   18  N   UNL     1     -12.608  11.424  71.938  1.00  0.00    -0.145 NA 
HETATM   19  C   UNL     1     -12.662   8.961  72.056  1.00  0.00    -0.456 C  
HETATM   20  C   UNL     1     -12.586  10.106  69.796  1.00  0.00     0.290 C  
HETATM   21  C   UNL     1     -11.155   8.764  71.985  1.00  0.00    -0.441 C  
HETATM   22  C   UNL     1     -10.674   8.661  70.534  1.00  0.00    -0.221 C  
HETATM   23  C   UNL     1     -13.078  10.203  71.268  1.00  0.00    -0.396 C  
HETATM   24  H1  UNL     1     -12.885  12.253  71.412  1.00  0.00     0.000 HD 
HETATM   25  H2  UNL     1     -11.602  11.400  72.105  1.00  0.00     0.000 HD 
ENDBRANCH   6  17
BRANCH  16  26
HETATM   26  C   UNL     1      -6.671  15.128  67.477  1.00  0.00    -0.160 C  
BRANCH  26  27
HETATM   27  C   UNL     1      -7.559  16.283  66.956  1.00  0.00    -0.215 A  
HETATM   28  N   UNL     1      -7.378  17.517  67.491  1.00  0.00    -0.174 NA 
HETATM   29  C   UNL     1      -8.269  18.492  67.199  1.00  0.00    -0.252 A  
HETATM   30  C   UNL     1      -9.381  18.267  66.375  1.00  0.00    -0.280 A  
HETATM   31  C   UNL     1     -10.325  19.323  66.166  1.00  0.00    -0.578 A  
HETATM   32  C   UNL     1      -9.457  16.977  65.832  1.00  0.00    -0.082 A  
HETATM   33  C   UNL     1     -10.160  20.580  66.742  1.00  0.00    -0.359 A  
HETATM   34  C   UNL     1     -10.612  16.528  64.983  1.00  0.00    -0.168 C  
HETATM   35  N   UNL     1      -8.552  16.005  66.093  1.00  0.00    -0.330 NA 
HETATM   36  C   UNL     1      -9.044  20.809  67.528  1.00  0.00    -0.280 A  
HETATM   37  C   UNL     1      -8.121  19.772  67.743  1.00  0.00    -0.332 A  
ENDBRANCH  26  27
ENDBRANCH  16  26
ENDBRANCH   4   5
ENDBRANCH   3   4
TORSDOF 5
ENDMDL
MODEL      173
REMARK 921   NORMALIZED FREE ENERGY PREDICTED BY IDOCK:   -4.41 KCAL/MOL
REMARK 922        TOTAL FREE ENERGY PREDICTED BY IDOCK:   -6.21 KCAL/MOL
REMARK 923 INTER-LIGAND FREE ENERGY PREDICTED BY IDOCK:   -7.20 KCAL/MOL
REMARK 924 INTRA-LIGAND FREE ENERGY PREDICTED BY IDOCK:    1.00 KCAL/MOL
REMARK 927      BINDING AFFINITY PREDICTED BY RF-SCORE:    0.00 PKD
ROOT
HETATM    1  C   UNL     1      -5.758  11.385  66.338  1.00  0.00    -0.116 C  
HETATM    2  C   UNL     1      -6.776  10.290  66.059  1.00  0.00    -0.114 C  
HETATM    3  C   UNL     1      -7.649   9.351  65.820  1.00  0.00    -0.099 C  
ENDROOT
BRANCH   3   4
HETATM    4  C   UNL     1      -8.665   8.257  65.541  1.00  0.00    -0.140 C  
BRANCH   4   5
HETATM    5  N   UNL     1      -9.388   7.999  66.845  1.00  0.00    -0.154 NA 
HETATM    6  C   UNL     1      -9.397   6.793  67.591  1.00  0.00    -0.120 A  
HETATM    7  N   UNL     1     -10.006   6.970  68.748  1.00  0.00    -0.156 NA 
HETATM    8  N   UNL     1     -11.123   8.828  69.806  1.00  0.00    -0.141 N  
HETATM    9  C   UNL     1     -10.472   8.236  68.741  1.00  0.00    -0.177 A  
HETATM   10  O   UNL     1     -11.670  10.832  70.754  1.00  0.00    -0.328 OA 
HETATM   11  C   UNL     1     -10.178   8.906  67.583  1.00  0.00    -0.237 A  
HETATM   12  C   UNL     1     -11.369   8.088  71.030  1.00  0.00    -0.273 C  
HETATM   13  C   UNL     1     -10.676  10.243  67.377  1.00  0.00    -0.281 C  
HETATM   14  C   UNL     1     -11.437  10.174  69.734  1.00  0.00    -0.228 C  
HETATM   15  O   UNL     1     -10.428  10.889  66.364  1.00  0.00    -0.248 OA 
HETATM   16  N   UNL     1     -11.436  10.752  68.454  1.00  0.00    -0.304 N  
BRANCH   6  17
HETATM   17  N   UNL     1      -8.782   5.617  67.262  1.00  0.00    -0.109 NA 
HETATM   18  N   UNL     1      -8.446   6.008  64.111  1.00  0.00    -0.332 NA 
HETATM   19  C   UNL     1      -8.503   3.720  65.028  1.00  0.00    -0.108 C  
HETATM   20  C   UNL     1      -7.564   5.610  66.433  1.00  0.00    -0.091 C  
HETATM   21  C   UNL     1      -9.833   3.870  65.751  1.00  0.00    -0.143 C  
HETATM   22  C   UNL     1      -9.639   4.410  67.171  1.00  0.00    -0.195 C  
HETATM   23  C   UNL     1      -7.759   5.055  64.994  1.00  0.00    -0.083 C  
HETATM   24  H1  UNL     1      -7.950   6.899  64.088  1.00  0.00     0.000 HD 
HETATM   25  H2  UNL     1      -9.425   6.127  64.371  1.00  0.00     0.000 HD 
ENDBRANCH   6  17
BRANCH  16  26
HETATM   26  C   UNL     1     -12.015  12.117  68.391  1.00  0.00    -0.198 C  
BRANCH  26  27
HETATM   27  C   UNL     1     -11.240  13.181  67.577  1.00  0.00    -0.282 A  
HETATM   28  N   UNL     1     -10.097  13.682  68.111  1.00  0.00    -0.239 NA 
HETATM   29  C   UNL     1      -9.513  14.747  67.517  1.00  0.00    -0.197 A  
HETATM   30  C   UNL     1     -10.055  15.361  66.379  1.00  0.00    -0.292 A  
HETATM   31  C   UNL     1      -9.426  16.530  65.844  1.00  0.00    -0.254 A  
HETATM   32  C   UNL     1     -11.208  14.744  65.874  1.00  0.00    -0.340 A  
HETATM   33  C   UNL     1      -8.272  17.068  66.410  1.00  0.00    -0.326 A  
HETATM   34  C   UNL     1     -11.970  15.297  64.703  1.00  0.00    -0.235 C  
HETATM   35  N   UNL     1     -11.780  13.657  66.442  1.00  0.00    -0.354 NA 
HETATM   36  C   UNL     1      -7.720  16.441  67.515  1.00  0.00    -0.164 A  
HETATM   37  C   UNL     1      -8.342  15.299  68.047  1.00  0.00    -0.146 A  
ENDBRANCH  26  27
ENDBRANCH  16  26
ENDBRANCH   4   5
ENDBRANCH   3   4
TORSDOF 5
ENDMDL
MODEL      174
REMARK 921   NORMALIZED FREE ENERGY PREDICTED BY IDOCK:   -4.39 KCAL/MOL
REMARK 922        TOTAL FREE ENERGY PREDICTED BY IDOCK:   -6.17 KCAL/MOL
REMARK 923 INTER-LIGAND FREE ENERGY PREDICTED BY IDOCK:   -6.48 KCAL/MOL
REMARK 924 INTRA-LIGAND FREE ENERGY PREDICTED BY IDOCK:    0.31 KCAL/MOL
REMARK 927      BINDING AFFINITY PREDICTED BY RF-SCORE:    0.00 PKD
ROOT
HETATM    1  C   UNL     1      -5.594  10.540  65.004  1.00  0.00    -0.140 C  
HETATM    2  C   UNL     1      -7.076  10.283  65.226  1.00  0.00    -0.130 C  
HETATM    3  C   UNL     1      -8.347  10.063  65.416  1.00  0.00    -0.154 C  
ENDROOT
BRANCH   3   4
HETATM    4  C   UNL     1      -9.829   9.805  65.637  1.00  0.00    -0.301 C  
BRANCH   4   5
HETATM    5  N   UNL     1     -10.049   9.825  67.135  1.00  0.00    -0.198 NA 
HETATM    6  C   UNL     1     -10.909  10.689  67.858  1.00  0.00    -0.277 A  
HETATM    7  N   UNL     1     -10.965  10.329  69.126  1.00  0.00    -0.227 NA 
HETATM    8  N   UNL     1      -9.907   8.610  70.446  1.00  0.00    -0.178 N  
HETATM    9  C   UNL     1     -10.097   9.307  69.269  1.00  0.00    -0.200 A  
HETATM   10  O   UNL     1      -9.167   6.637  71.326  1.00  0.00    -0.154 OA 
HETATM   11  C   UNL     1      -9.460   8.982  68.100  1.00  0.00    -0.142 A  
HETATM   12  C   UNL     1     -10.643   8.964  71.646  1.00  0.00    -0.352 C  
HETATM   13  C   UNL     1      -8.437   7.966  68.095  1.00  0.00    -0.124 C  
HETATM   14  C   UNL     1      -9.089   7.494  70.438  1.00  0.00    -0.153 C  
HETATM   15  O   UNL     1      -7.848   7.631  67.073  1.00  0.00    -0.108 OA 
HETATM   16  N   UNL     1      -8.204   7.371  69.356  1.00  0.00    -0.129 N  
BRANCH   6  17
HETATM   17  N   UNL     1     -11.683  11.695  67.350  1.00  0.00    -0.606 NA 
HETATM   18  N   UNL     1      -9.440  13.510  65.984  1.00  0.00    -0.488 NA 
HETATM   19  C   UNL     1     -11.568  14.556  66.661  1.00  0.00    -0.385 C  
HETATM   20  C   UNL     1     -11.537  12.123  65.947  1.00  0.00    -0.364 C  
HETATM   21  C   UNL     1     -11.510  14.109  68.114  1.00  0.00    -0.340 C  
HETATM   22  C   UNL     1     -12.153  12.732  68.301  1.00  0.00    -0.104 C  
HETATM   23  C   UNL     1     -10.892  13.524  65.757  1.00  0.00    -0.275 C  
HETATM   24  H1  UNL     1      -8.988  12.822  65.381  1.00  0.00     0.000 HD 
HETATM   25  H2  UNL     1      -9.211  13.360  66.966  1.00  0.00     0.000 HD 
ENDBRANCH   6  17
BRANCH  16  26
HETATM   26  C   UNL     1      -7.181   6.307  69.509  1.00  0.00    -0.078 C  
BRANCH  26  27
HETATM   27  C   UNL     1      -7.384   5.003  68.701  1.00  0.00    -0.062 A  
HETATM   28  N   UNL     1      -6.966   4.982  67.410  1.00  0.00    -0.064 NA 
HETATM   29  C   UNL     1      -7.310   3.933  66.630  1.00  0.00    -0.072 A  
HETATM   30  C   UNL     1      -8.096   2.873  67.104  1.00  0.00    -0.079 A  
HETATM   31  C   UNL     1      -8.486   1.829  66.205  1.00  0.00    -0.102 A  
HETATM   32  C   UNL     1      -8.439   2.959  68.461  1.00  0.00    -0.069 A  
HETATM   33  C   UNL     1      -8.087   1.823  64.871  1.00  0.00    -0.074 A  
HETATM   34  C   UNL     1      -9.334   1.955  69.131  1.00  0.00    -0.184 C  
HETATM   35  N   UNL     1      -8.071   3.990  69.257  1.00  0.00    -0.059 NA 
HETATM   36  C   UNL     1      -7.283   2.854  64.413  1.00  0.00    -0.061 A  
HETATM   37  C   UNL     1      -6.908   3.884  65.291  1.00  0.00    -0.053 A  
ENDBRANCH  26  27
ENDBRANCH  16  26
ENDBRANCH   4   5
ENDBRANCH   3   4
TORSDOF 5
ENDMDL
MODEL      175
REMARK 921   NORMALIZED FREE ENERGY PREDICTED BY IDOCK:   -4.35 KCAL/MOL
REMARK 922        TOTAL FREE ENERGY PREDICTED BY IDOCK:   -6.13 KCAL/MOL
REMARK 923 INTER-LIGAND FREE ENERGY PREDICTED BY IDOCK:   -6.99 KCAL/MOL
REMARK 924 INTRA-LIGAND FREE ENERGY PREDICTED BY IDOCK:    0.86 KCAL/MOL
REMARK 927      BINDING AFFINITY PREDICTED BY RF-SCORE:    0.00 PKD
ROOT
HETATM    1  C   UNL     1      -7.372  12.305  66.745  1.00  0.00     0.133 C  
HETATM    2  C   UNL     1      -8.295  11.105  66.599  1.00  0.00    -0.160 C  
HETATM    3  C   UNL     1      -9.087  10.077  66.475  1.00  0.00    -0.172 C  
ENDROOT
BRANCH   3   4
HETATM    4  C   UNL     1     -10.011   8.878  66.329  1.00  0.00    -0.266 C  
BRANCH   4   5
HETATM    5  N   UNL     1      -9.848   8.055  67.589  1.00  0.00    -0.158 NA 
HETATM    6  C   UNL     1      -9.056   6.891  67.750  1.00  0.00    -0.118 A  
HETATM    7  N   UNL     1      -9.031   6.520  69.016  1.00  0.00    -0.130 NA 
HETATM    8  N   UNL     1     -10.061   7.337  71.039  1.00  0.00    -0.192 N  
HETATM    9  C   UNL     1      -9.857   7.360  69.673  1.00  0.00    -0.175 A  
HETATM   10  O   UNL     1     -10.744   8.582  72.826  1.00  0.00    -0.243 OA 
HETATM   11  C   UNL     1     -10.435   8.291  68.850  1.00  0.00    -0.191 A  
HETATM   12  C   UNL     1      -9.387   6.359  71.873  1.00  0.00    -0.152 C  
HETATM   13  C   UNL     1     -11.411   9.212  69.377  1.00  0.00     0.202 C  
HETATM   14  C   UNL     1     -10.827   8.333  71.619  1.00  0.00    -0.256 C  
HETATM   15  O   UNL     1     -11.945  10.073  68.684  1.00  0.00     0.100 OA 
HETATM   16  N   UNL     1     -11.665   9.062  70.759  1.00  0.00    -0.270 N  
BRANCH   6  17
HETATM   17  N   UNL     1      -8.309   6.264  66.792  1.00  0.00    -0.109 NA 
HETATM   18  N   UNL     1      -9.680   3.381  66.790  1.00  0.00    -0.405 NA 
HETATM   19  C   UNL     1      -7.349   3.592  66.012  1.00  0.00    -0.072 C  
HETATM   20  C   UNL     1      -8.957   5.526  65.694  1.00  0.00    -0.146 C  
HETATM   21  C   UNL     1      -6.821   4.265  67.270  1.00  0.00    -0.052 C  
HETATM   22  C   UNL     1      -6.961   5.787  67.190  1.00  0.00    -0.065 C  
HETATM   23  C   UNL     1      -8.808   3.980  65.770  1.00  0.00    -0.123 C  
HETATM   24  H1  UNL     1     -10.653   3.640  66.629  1.00  0.00     0.000 HD 
HETATM   25  H2  UNL     1      -9.376   3.619  67.735  1.00  0.00     0.000 HD 
ENDBRANCH   6  17
BRANCH  16  26
HETATM   26  C   UNL     1     -12.644   9.940  71.446  1.00  0.00    -0.398 C  
BRANCH  26  27
HETATM   27  C   UNL     1     -12.650  11.438  71.058  1.00  0.00    -0.386 A  
HETATM   28  N   UNL     1     -11.740  11.863  70.145  1.00  0.00    -0.295 NA 
HETATM   29  C   UNL     1     -11.594  13.191  69.940  1.00  0.00    -0.185 A  
HETATM   30  C   UNL     1     -12.339  14.145  70.648  1.00  0.00    -0.435 A  
HETATM   31  C   UNL     1     -12.083  15.538  70.435  1.00  0.00    -0.426 A  
HETATM   32  C   UNL     1     -13.286  13.610  71.532  1.00  0.00    -0.331 A  
HETATM   33  C   UNL     1     -11.124  15.976  69.524  1.00  0.00    -0.333 A  
HETATM   34  C   UNL     1     -14.129  14.473  72.428  1.00  0.00    -0.544 C  
HETATM   35  N   UNL     1     -13.462  12.281  71.720  1.00  0.00    -0.254 NA 
HETATM   36  C   UNL     1     -10.413  15.033  68.802  1.00  0.00    -0.238 A  
HETATM   37  C   UNL     1     -10.656  13.667  69.017  1.00  0.00    -0.147 A  
ENDBRANCH  26  27
ENDBRANCH  16  26
ENDBRANCH   4   5
ENDBRANCH   3   4
TORSDOF 5
ENDMDL
MODEL      176
REMARK 921   NORMALIZED FREE ENERGY PREDICTED BY IDOCK:   -4.34 KCAL/MOL
REMARK 922        TOTAL FREE ENERGY PREDICTED BY IDOCK:   -6.12 KCAL/MOL
REMARK 923 INTER-LIGAND FREE ENERGY PREDICTED BY IDOCK:   -5.78 KCAL/MOL
REMARK 924 INTRA-LIGAND FREE ENERGY PREDICTED BY IDOCK:   -0.33 KCAL/MOL
REMARK 927      BINDING AFFINITY PREDICTED BY RF-SCORE:    0.00 PKD
ROOT
HETATM    1  C   UNL     1      -5.205  10.585  63.626  1.00  0.00    -0.163 C  
HETATM    2  C   UNL     1      -5.824  10.273  64.980  1.00  0.00    -0.133 C  
HETATM    3  C   UNL     1      -6.354  10.004  66.140  1.00  0.00    -0.081 C  
ENDROOT
BRANCH   3   4
HETATM    4  C   UNL     1      -6.972   9.693  67.493  1.00  0.00    -0.084 C  
BRANCH   4   5
HETATM    5  N   UNL     1      -8.253  10.495  67.575  1.00  0.00    -0.114 NA 
HETATM    6  C   UNL     1      -9.544  10.085  67.156  1.00  0.00    -0.165 A  
HETATM    7  N   UNL     1     -10.450  10.975  67.513  1.00  0.00    -0.198 NA 
HETATM    8  N   UNL     1     -10.375  13.109  68.635  1.00  0.00    -0.229 N  
HETATM    9  C   UNL     1      -9.774  11.998  68.076  1.00  0.00    -0.198 A  
HETATM   10  O   UNL     1     -10.080  14.820  70.118  1.00  0.00     0.097 OA 
HETATM   11  C   UNL     1      -8.420  11.795  68.097  1.00  0.00    -0.158 A  
HETATM   12  C   UNL     1     -11.820  13.255  68.629  1.00  0.00    -0.345 C  
HETATM   13  C   UNL     1      -7.543  12.828  68.589  1.00  0.00    -0.085 C  
HETATM   14  C   UNL     1      -9.588  14.031  69.304  1.00  0.00     0.333 C  
HETATM   15  O   UNL     1      -6.326  12.688  68.642  1.00  0.00    -0.065 OA 
HETATM   16  N   UNL     1      -8.210  13.991  69.038  1.00  0.00     0.034 N  
BRANCH   6  17
HETATM   17  N   UNL     1      -9.880   8.898  66.566  1.00  0.00    -0.253 NA 
HETATM   18  N   UNL     1      -8.538   6.843  68.608  1.00  0.00    -0.124 NA 
HETATM   19  C   UNL     1      -8.928   6.127  66.281  1.00  0.00    -0.162 C  
HETATM   20  C   UNL     1     -10.490   7.812  67.352  1.00  0.00    -0.292 C  
HETATM   21  C   UNL     1      -8.168   7.274  65.631  1.00  0.00    -0.138 C  
HETATM   22  C   UNL     1      -9.080   8.480  65.388  1.00  0.00    -0.043 C  
HETATM   23  C   UNL     1      -9.568   6.583  67.592  1.00  0.00    -0.122 C  
HETATM   24  H1  UNL     1      -8.964   7.148  69.483  1.00  0.00     0.000 HD 
HETATM   25  H2  UNL     1      -7.838   7.507  68.276  1.00  0.00     0.000 HD 
ENDBRANCH   6  17
BRANCH  16  26
HETATM   26  C   UNL     1      -7.442  15.142  69.574  1.00  0.00    -0.213 C  
BRANCH  26  27
HETATM   27  C   UNL     1      -7.457  16.452  68.751  1.00  0.00    -0.207 A  
HETATM   28  N   UNL     1      -8.501  17.301  68.923  1.00  0.00    -0.225 NA 
HETATM   29  C   UNL     1      -8.637  18.347  68.077  1.00  0.00    -0.272 A  
HETATM   30  C   UNL     1      -7.746  18.575  67.019  1.00  0.00    -0.235 A  
HETATM   31  C   UNL     1      -7.990  19.660  66.116  1.00  0.00    -0.352 A  
HETATM   32  C   UNL     1      -6.674  17.675  66.951  1.00  0.00    -0.177 A  
HETATM   33  C   UNL     1      -9.081  20.511  66.270  1.00  0.00    -0.065 A  
HETATM   34  C   UNL     1      -5.656  17.717  65.847  1.00  0.00    -0.184 C  
HETATM   35  N   UNL     1      -6.512  16.645  67.814  1.00  0.00    -0.137 NA 
HETATM   36  C   UNL     1      -9.942  20.304  67.335  1.00  0.00    -0.567 A  
HETATM   37  C   UNL     1      -9.709  19.234  68.216  1.00  0.00    -0.459 A  
ENDBRANCH  26  27
ENDBRANCH  16  26
ENDBRANCH   4   5
ENDBRANCH   3   4
TORSDOF 5
ENDMDL
MODEL      177
REMARK 921   NORMALIZED FREE ENERGY PREDICTED BY IDOCK:   -4.34 KCAL/MOL
REMARK 922        TOTAL FREE ENERGY PREDICTED BY IDOCK:   -6.11 KCAL/MOL
REMARK 923 INTER-LIGAND FREE ENERGY PREDICTED BY IDOCK:   -6.12 KCAL/MOL
REMARK 924 INTRA-LIGAND FREE ENERGY PREDICTED BY IDOCK:    0.01 KCAL/MOL
REMARK 927      BINDING AFFINITY PREDICTED BY RF-SCORE:    0.00 PKD
ROOT
HETATM    1  C   UNL     1      -7.049   9.501  64.573  1.00  0.00    -0.107 C  
HETATM    2  C   UNL     1      -7.125  10.056  65.987  1.00  0.00    -0.111 C  
HETATM    3  C   UNL     1      -7.190  10.533  67.199  1.00  0.00    -0.092 C  
ENDROOT
BRANCH   3   4
HETATM    4  C   UNL     1      -7.266  11.089  68.611  1.00  0.00    -0.091 C  
BRANCH   4   5
HETATM    5  N   UNL     1      -8.286  12.207  68.578  1.00  0.00    -0.138 NA 
HETATM    6  C   UNL     1      -9.694  12.079  68.669  1.00  0.00    -0.096 A  
HETATM    7  N   UNL     1     -10.261  13.267  68.756  1.00  0.00    -0.166 NA 
HETATM    8  N   UNL     1      -9.447  15.537  68.734  1.00  0.00    -0.199 N  
HETATM    9  C   UNL     1      -9.268  14.171  68.637  1.00  0.00    -0.146 A  
HETATM   10  O   UNL     1      -8.389  17.512  69.173  1.00  0.00    -0.103 OA 
HETATM   11  C   UNL     1      -8.037  13.592  68.469  1.00  0.00    -0.108 A  
HETATM   12  C   UNL     1     -10.766  16.099  68.959  1.00  0.00    -0.287 C  
HETATM   13  C   UNL     1      -6.877  14.416  68.241  1.00  0.00    -0.111 C  
HETATM   14  C   UNL     1      -8.334  16.360  68.729  1.00  0.00    -0.242 C  
HETATM   15  O   UNL     1      -5.753  13.946  68.100  1.00  0.00    -0.103 OA 
HETATM   16  N   UNL     1      -7.144  15.804  68.234  1.00  0.00    -0.110 N  
BRANCH   6  17
HETATM   17  N   UNL     1     -10.411  10.919  68.771  1.00  0.00    -0.189 NA 
HETATM   18  N   UNL     1     -12.418  11.690  71.132  1.00  0.00    -0.349 NA 
HETATM   19  C   UNL     1     -11.908   9.311  70.731  1.00  0.00    -0.303 C  
HETATM   20  C   UNL     1     -11.884  10.942  68.790  1.00  0.00    -0.235 C  
HETATM   21  C   UNL     1     -10.397   9.450  70.841  1.00  0.00    -0.380 C  
HETATM   22  C   UNL     1      -9.768   9.789  69.486  1.00  0.00    -0.212 C  
HETATM   23  C   UNL     1     -12.523  10.590  70.163  1.00  0.00    -0.226 C  
HETATM   24  H1  UNL     1     -12.828  12.544  70.753  1.00  0.00     0.000 HD 
HETATM   25  H2  UNL     1     -11.455  11.836  71.435  1.00  0.00     0.000 HD 
ENDBRANCH   6  17
BRANCH  16  26
HETATM   26  C   UNL     1      -6.048  16.781  68.013  1.00  0.00    -0.133 C  
BRANCH  26  27
HETATM   27  C   UNL     1      -6.266  17.858  66.923  1.00  0.00    -0.160 A  
HETATM   28  N   UNL     1      -5.781  17.613  65.680  1.00  0.00    -0.134 NA 
HETATM   29  C   UNL     1      -5.782  18.614  64.771  1.00  0.00    -0.215 A  
HETATM   30  C   UNL     1      -6.254  19.900  65.073  1.00  0.00    -0.308 A  
HETATM   31  C   UNL     1      -6.159  20.933  64.086  1.00  0.00    -0.356 A  
HETATM   32  C   UNL     1      -6.779  20.042  66.364  1.00  0.00    -0.213 A  
HETATM   33  C   UNL     1      -5.629  20.693  62.821  1.00  0.00    -0.265 A  
HETATM   34  C   UNL     1      -7.267  21.361  66.894  1.00  0.00     0.126 C  
HETATM   35  N   UNL     1      -6.812  19.037  67.270  1.00  0.00    -0.206 NA 
HETATM   36  C   UNL     1      -5.194  19.415  62.514  1.00  0.00    -0.350 A  
HETATM   37  C   UNL     1      -5.277  18.402  63.484  1.00  0.00     0.201 A  
ENDBRANCH  26  27
ENDBRANCH  16  26
ENDBRANCH   4   5
ENDBRANCH   3   4
TORSDOF 5
ENDMDL
MODEL      178
REMARK 921   NORMALIZED FREE ENERGY PREDICTED BY IDOCK:   -4.33 KCAL/MOL
REMARK 922        TOTAL FREE ENERGY PREDICTED BY IDOCK:   -6.10 KCAL/MOL
REMARK 923 INTER-LIGAND FREE ENERGY PREDICTED BY IDOCK:   -5.04 KCAL/MOL
REMARK 924 INTRA-LIGAND FREE ENERGY PREDICTED BY IDOCK:   -1.06 KCAL/MOL
REMARK 927      BINDING AFFINITY PREDICTED BY RF-SCORE:    0.00 PKD
ROOT
HETATM    1  C   UNL     1     -10.675   6.750  66.631  1.00  0.00    -0.187 C  
HETATM    2  C   UNL     1      -9.686   6.057  67.556  1.00  0.00    -0.122 C  
HETATM    3  C   UNL     1      -8.838   5.463  68.348  1.00  0.00    -0.102 C  
ENDROOT
BRANCH   3   4
HETATM    4  C   UNL     1      -7.849   4.771  69.272  1.00  0.00    -0.070 C  
BRANCH   4   5
HETATM    5  N   UNL     1      -7.814   5.583  70.549  1.00  0.00    -0.095 NA 
HETATM    6  C   UNL     1      -8.212   5.158  71.841  1.00  0.00    -0.117 A  
HETATM    7  N   UNL     1      -7.907   6.071  72.742  1.00  0.00    -0.106 NA 
HETATM    8  N   UNL     1      -6.903   8.263  72.658  1.00  0.00    -0.090 N  
HETATM    9  C   UNL     1      -7.398   7.120  72.062  1.00  0.00    -0.081 A  
HETATM   10  O   UNL     1      -5.515  10.051  72.356  1.00  0.00    -0.283 OA 
HETATM   11  C   UNL     1      -7.364   6.911  70.709  1.00  0.00    -0.077 A  
HETATM   12  C   UNL     1      -6.920   8.416  74.102  1.00  0.00    -0.134 C  
HETATM   13  C   UNL     1      -6.928   7.965  69.827  1.00  0.00    -0.050 C  
HETATM   14  C   UNL     1      -6.284   9.215  71.868  1.00  0.00    -0.008 C  
HETATM   15  O   UNL     1      -6.865   7.822  68.611  1.00  0.00    -0.059 OA 
HETATM   16  N   UNL     1      -6.544   9.154  70.489  1.00  0.00    -0.052 N  
BRANCH   6  17
HETATM   17  N   UNL     1      -8.737   3.943  72.182  1.00  0.00    -0.103 NA 
HETATM   18  N   UNL     1     -11.126   4.865  74.089  1.00  0.00    -0.376 NA 
HETATM   19  C   UNL     1     -10.189   2.600  74.363  1.00  0.00    -0.189 C  
HETATM   20  C   UNL     1     -10.185   3.690  72.074  1.00  0.00    -0.075 C  
HETATM   21  C   UNL     1      -8.747   3.046  74.556  1.00  0.00    -0.080 C  
HETATM   22  C   UNL     1      -8.015   3.161  73.216  1.00  0.00    -0.069 C  
HETATM   23  C   UNL     1     -10.927   3.564  73.434  1.00  0.00    -0.210 C  
HETATM   24  H1  UNL     1     -11.618   5.508  73.470  1.00  0.00     0.000 HD 
HETATM   25  H2  UNL     1     -10.246   5.259  74.422  1.00  0.00     0.000 HD 
ENDBRANCH   6  17
BRANCH  16  26
HETATM   26  C   UNL     1      -6.070  10.328  69.716  1.00  0.00    -0.054 C  
BRANCH  26  27
HETATM   27  C   UNL     1      -7.141  11.321  69.203  1.00  0.00    -0.122 A  
HETATM   28  N   UNL     1      -8.425  10.888  69.124  1.00  0.00    -0.105 NA 
HETATM   29  C   UNL     1      -9.337  11.664  68.496  1.00  0.00    -0.167 A  
HETATM   30  C   UNL     1      -9.000  12.892  67.911  1.00  0.00    -0.193 A  
HETATM   31  C   UNL     1      -9.999  13.630  67.198  1.00  0.00    -0.247 A  
HETATM   32  C   UNL     1      -7.663  13.277  68.085  1.00  0.00    -0.143 A  
HETATM   33  C   UNL     1     -11.309  13.171  67.086  1.00  0.00    -0.354 A  
HETATM   34  C   UNL     1      -7.098  14.526  67.471  1.00  0.00    -0.199 C  
HETATM   35  N   UNL     1      -6.751  12.522  68.741  1.00  0.00    -0.088 NA 
HETATM   36  C   UNL     1     -11.648  11.973  67.693  1.00  0.00    -0.392 A  
HETATM   37  C   UNL     1     -10.666  11.244  68.384  1.00  0.00    -0.238 A  
ENDBRANCH  26  27
ENDBRANCH  16  26
ENDBRANCH   4   5
ENDBRANCH   3   4
TORSDOF 5
ENDMDL
MODEL      179
REMARK 921   NORMALIZED FREE ENERGY PREDICTED BY IDOCK:   -4.33 KCAL/MOL
REMARK 922        TOTAL FREE ENERGY PREDICTED BY IDOCK:   -6.09 KCAL/MOL
REMARK 923 INTER-LIGAND FREE ENERGY PREDICTED BY IDOCK:   -6.21 KCAL/MOL
REMARK 924 INTRA-LIGAND FREE ENERGY PREDICTED BY IDOCK:    0.12 KCAL/MOL
REMARK 927      BINDING AFFINITY PREDICTED BY RF-SCORE:    0.00 PKD
ROOT
HETATM    1  C   UNL     1     -12.725  12.422  71.036  1.00  0.00    -0.315 C  
HETATM    2  C   UNL     1     -11.584  12.852  70.126  1.00  0.00    -0.131 C  
HETATM    3  C   UNL     1     -10.606  13.220  69.347  1.00  0.00     0.190 C  
ENDROOT
BRANCH   3   4
HETATM    4  C   UNL     1      -9.466  13.649  68.437  1.00  0.00    -0.190 C  
BRANCH   4   5
HETATM    5  N   UNL     1      -9.782  13.097  67.064  1.00  0.00    -0.234 NA 
HETATM    6  C   UNL     1     -10.505  13.744  66.030  1.00  0.00    -0.297 A  
HETATM    7  N   UNL     1     -10.461  13.032  64.921  1.00  0.00    -0.324 NA 
HETATM    8  N   UNL     1      -9.497  10.907  64.309  1.00  0.00    -0.234 N  
HETATM    9  C   UNL     1      -9.802  11.895  65.225  1.00  0.00    -0.230 A  
HETATM   10  O   UNL     1      -8.099   9.153  63.881  1.00  0.00    -0.138 OA 
HETATM   11  C   UNL     1      -9.406  11.843  66.536  1.00  0.00    -0.216 A  
HETATM   12  C   UNL     1      -9.899  11.032  62.920  1.00  0.00    -0.284 C  
HETATM   13  C   UNL     1      -8.763  10.659  67.048  1.00  0.00    -0.128 C  
HETATM   14  C   UNL     1      -8.700   9.848  64.708  1.00  0.00    -0.189 C  
HETATM   15  O   UNL     1      -8.377  10.571  68.209  1.00  0.00    -0.114 OA 
HETATM   16  N   UNL     1      -8.584   9.635  66.091  1.00  0.00    -0.126 N  
BRANCH   6  17
HETATM   17  N   UNL     1     -11.088  14.979  66.083  1.00  0.00    -0.338 NA 
HETATM   18  N   UNL     1      -8.823  16.616  67.628  1.00  0.00    -0.200 NA 
HETATM   19  C   UNL     1     -11.153  17.418  67.731  1.00  0.00     0.000 C  
HETATM   20  C   UNL     1     -10.343  16.182  65.671  1.00  0.00    -0.382 C  
HETATM   21  C   UNL     1     -11.747  16.118  68.253  1.00  0.00    -0.074 C  
HETATM   22  C   UNL     1     -12.143  15.185  67.105  1.00  0.00     0.250 C  
HETATM   23  C   UNL     1      -9.947  17.134  66.835  1.00  0.00    -0.288 C  
HETATM   24  H1  UNL     1      -8.019  16.426  67.031  1.00  0.00     0.000 HD 
HETATM   25  H2  UNL     1      -9.091  15.797  68.174  1.00  0.00     0.000 HD 
ENDBRANCH   6  17
BRANCH  16  26
HETATM   26  C   UNL     1      -7.934   8.355  66.469  1.00  0.00    -0.096 C  
BRANCH  26  27
HETATM   27  C   UNL     1      -8.704   7.427  67.438  1.00  0.00    -0.121 A  
HETATM   28  N   UNL     1      -9.548   7.999  68.333  1.00  0.00    -0.149 NA 
HETATM   29  C   UNL     1     -10.076   7.233  69.314  1.00  0.00    -0.183 A  
HETATM   30  C   UNL     1      -9.770   5.872  69.448  1.00  0.00    -0.191 A  
HETATM   31  C   UNL     1     -10.306   5.135  70.553  1.00  0.00    -0.314 A  
HETATM   32  C   UNL     1      -8.929   5.360  68.450  1.00  0.00    -0.108 A  
HETATM   33  C   UNL     1     -11.144   5.730  71.493  1.00  0.00    -0.281 A  
HETATM   34  C   UNL     1      -8.435   3.941  68.463  1.00  0.00    -0.107 C  
HETATM   35  N   UNL     1      -8.423   6.112  67.445  1.00  0.00    -0.108 NA 
HETATM   36  C   UNL     1     -11.471   7.066  71.341  1.00  0.00    -0.312 A  
HETATM   37  C   UNL     1     -10.938   7.793  70.263  1.00  0.00    -0.252 A  
ENDBRANCH  26  27
ENDBRANCH  16  26
ENDBRANCH   4   5
ENDBRANCH   3   4
TORSDOF 5
ENDMDL
MODEL      180
REMARK 921   NORMALIZED FREE ENERGY PREDICTED BY IDOCK:   -4.33 KCAL/MOL
REMARK 922        TOTAL FREE ENERGY PREDICTED BY IDOCK:   -6.09 KCAL/MOL
REMARK 923 INTER-LIGAND FREE ENERGY PREDICTED BY IDOCK:   -4.76 KCAL/MOL
REMARK 924 INTRA-LIGAND FREE ENERGY PREDICTED BY IDOCK:   -1.33 KCAL/MOL
REMARK 927      BINDING AFFINITY PREDICTED BY RF-SCORE:    0.00 PKD
ROOT
HETATM    1  C   UNL     1     -10.835   5.315  66.322  1.00  0.00    -0.181 C  
HETATM    2  C   UNL     1     -10.929   6.338  67.444  1.00  0.00    -0.447 C  
HETATM    3  C   UNL     1     -11.010   7.214  68.405  1.00  0.00    -0.080 C  
ENDROOT
BRANCH   3   4
HETATM    4  C   UNL     1     -11.104   8.237  69.526  1.00  0.00     0.051 C  
BRANCH   4   5
HETATM    5  N   UNL     1      -9.900   9.143  69.383  1.00  0.00    -0.168 NA 
HETATM    6  C   UNL     1      -9.778  10.270  68.532  1.00  0.00    -0.161 A  
HETATM    7  N   UNL     1      -8.650  10.910  68.773  1.00  0.00    -0.159 NA 
HETATM    8  N   UNL     1      -6.785  10.553  70.261  1.00  0.00    -0.152 N  
HETATM    9  C   UNL     1      -7.991  10.183  69.698  1.00  0.00    -0.173 A  
HETATM   10  O   UNL     1      -5.422  10.259  72.069  1.00  0.00    -0.287 OA 
HETATM   11  C   UNL     1      -8.674   9.057  70.076  1.00  0.00    -0.157 A  
HETATM   12  C   UNL     1      -6.124  11.782  69.860  1.00  0.00    -0.151 C  
HETATM   13  C   UNL     1      -8.073   8.123  70.995  1.00  0.00    -0.100 C  
HETATM   14  C   UNL     1      -6.269   9.795  71.298  1.00  0.00     0.031 C  
HETATM   15  O   UNL     1      -8.650   7.109  71.374  1.00  0.00    -0.116 OA 
HETATM   16  N   UNL     1      -6.787   8.498  71.446  1.00  0.00    -0.069 N  
BRANCH   6  17
HETATM   17  N   UNL     1     -10.710  10.740  67.650  1.00  0.00    -0.238 NA 
HETATM   18  N   UNL     1      -9.080  13.140  66.317  1.00  0.00    -0.457 NA 
HETATM   19  C   UNL     1     -11.544  13.218  66.296  1.00  0.00    -0.384 C  
HETATM   20  C   UNL     1     -10.361  10.977  66.239  1.00  0.00    -0.251 C  
HETATM   21  C   UNL     1     -11.722  13.063  67.799  1.00  0.00    -0.405 C  
HETATM   22  C   UNL     1     -11.795  11.588  68.203  1.00  0.00    -0.236 C  
HETATM   23  C   UNL     1     -10.294  12.474  65.825  1.00  0.00    -0.265 C  
HETATM   24  H1  UNL     1      -8.245  12.644  66.003  1.00  0.00     0.000 HD 
HETATM   25  H2  UNL     1      -9.094  13.253  67.331  1.00  0.00     0.000 HD 
ENDBRANCH   6  17
BRANCH  16  26
HETATM   26  C   UNL     1      -6.040   7.638  72.397  1.00  0.00    -0.040 C  
BRANCH  26  27
HETATM   27  C   UNL     1      -5.788   6.169  71.981  1.00  0.00    -0.036 A  
HETATM   28  N   UNL     1      -5.473   5.920  70.684  1.00  0.00    -0.013 NA 
HETATM   29  C   UNL     1      -5.445   4.638  70.255  1.00  0.00    -0.011 A  
HETATM   30  C   UNL     1      -5.744   3.559  71.099  1.00  0.00    -0.013 A  
HETATM   31  C   UNL     1      -5.767   2.232  70.562  1.00  0.00    -0.017 A  
HETATM   32  C   UNL     1      -6.009   3.912  72.429  1.00  0.00    -0.009 A  
HETATM   33  C   UNL     1      -5.478   1.977  69.223  1.00  0.00    -0.013 A  
HETATM   34  C   UNL     1      -6.417   2.901  73.464  1.00  0.00    -0.021 C  
HETATM   35  N   UNL     1      -6.008   5.190  72.875  1.00  0.00    -0.025 NA 
HETATM   36  C   UNL     1      -5.151   3.041  68.400  1.00  0.00    -0.011 A  
HETATM   37  C   UNL     1      -5.138   4.345  68.922  1.00  0.00     0.000 A  
ENDBRANCH  26  27
ENDBRANCH  16  26
ENDBRANCH   4   5
ENDBRANCH   3   4
TORSDOF 5
ENDMDL
MODEL      181
REMARK 921   NORMALIZED FREE ENERGY PREDICTED BY IDOCK:   -4.29 KCAL/MOL
REMARK 922        TOTAL FREE ENERGY PREDICTED BY IDOCK:   -6.04 KCAL/MOL
REMARK 923 INTER-LIGAND FREE ENERGY PREDICTED BY IDOCK:   -5.29 KCAL/MOL
REMARK 924 INTRA-LIGAND FREE ENERGY PREDICTED BY IDOCK:   -0.75 KCAL/MOL
REMARK 927      BINDING AFFINITY PREDICTED BY RF-SCORE:    0.00 PKD
ROOT
HETATM    1  C   UNL     1      -7.425   6.155  63.080  1.00  0.00    -0.069 C  
HETATM    2  C   UNL     1      -8.193   5.817  64.348  1.00  0.00    -0.114 C  
HETATM    3  C   UNL     1      -8.852   5.528  65.436  1.00  0.00    -0.131 C  
ENDROOT
BRANCH   3   4
HETATM    4  C   UNL     1      -9.619   5.191  66.704  1.00  0.00    -0.154 C  
BRANCH   4   5
HETATM    5  N   UNL     1      -8.975   5.985  67.820  1.00  0.00    -0.113 NA 
HETATM    6  C   UNL     1      -8.469   5.479  69.043  1.00  0.00    -0.101 A  
HETATM    7  N   UNL     1      -7.845   6.429  69.713  1.00  0.00    -0.112 NA 
HETATM    8  N   UNL     1      -7.446   8.779  69.342  1.00  0.00    -0.078 N  
HETATM    9  C   UNL     1      -8.006   7.563  69.000  1.00  0.00    -0.122 A  
HETATM   10  O   UNL     1      -6.804  10.812  68.524  1.00  0.00    -0.059 OA 
HETATM   11  C   UNL     1      -8.736   7.375  67.856  1.00  0.00    -0.123 A  
HETATM   12  C   UNL     1      -6.640   8.915  70.541  1.00  0.00    -0.049 C  
HETATM   13  C   UNL     1      -9.073   8.501  67.022  1.00  0.00    -0.143 C  
HETATM   14  C   UNL     1      -7.568   9.842  68.464  1.00  0.00    -0.080 C  
HETATM   15  O   UNL     1      -9.711   8.381  65.982  1.00  0.00    -0.195 OA 
HETATM   16  N   UNL     1      -8.571   9.738  67.487  1.00  0.00    -0.125 N  
BRANCH   6  17
HETATM   17  N   UNL     1      -8.492   4.180  69.470  1.00  0.00    -0.067 NA 
HETATM   18  N   UNL     1     -10.199   4.489  72.151  1.00  0.00    -0.193 NA 
HETATM   19  C   UNL     1      -8.657   2.577  71.934  1.00  0.00    -0.093 C  
HETATM   20  C   UNL     1      -9.759   3.539  69.863  1.00  0.00    -0.061 C  
HETATM   21  C   UNL     1      -7.416   3.405  71.634  1.00  0.00    -0.051 C  
HETATM   22  C   UNL     1      -7.269   3.665  70.132  1.00  0.00    -0.041 C  
HETATM   23  C   UNL     1      -9.907   3.268  71.387  1.00  0.00    -0.124 C  
HETATM   24  H1  UNL     1     -11.033   4.950  71.786  1.00  0.00     0.000 HD 
HETATM   25  H2  UNL     1      -9.398   5.120  72.177  1.00  0.00     0.000 HD 
ENDBRANCH   6  17
BRANCH  16  26
HETATM   26  C   UNL     1      -8.834  10.989  66.733  1.00  0.00    -0.156 C  
BRANCH  26  27
HETATM   27  C   UNL     1      -9.738  12.049  67.408  1.00  0.00    -0.182 A  
HETATM   28  N   UNL     1      -9.387  13.354  67.289  1.00  0.00    -0.224 NA 
HETATM   29  C   UNL     1     -10.043  14.275  68.030  1.00  0.00    -0.227 A  
HETATM   30  C   UNL     1     -11.063  13.927  68.927  1.00  0.00    -0.296 A  
HETATM   31  C   UNL     1     -11.667  14.944  69.735  1.00  0.00    -0.344 A  
HETATM   32  C   UNL     1     -11.387  12.563  68.945  1.00  0.00    -0.297 A  
HETATM   33  C   UNL     1     -11.284  16.279  69.641  1.00  0.00    -0.311 A  
HETATM   34  C   UNL     1     -12.404  11.990  69.890  1.00  0.00    -0.143 C  
HETATM   35  N   UNL     1     -10.758  11.639  68.182  1.00  0.00    -0.203 NA 
HETATM   36  C   UNL     1     -10.300  16.626  68.730  1.00  0.00    -0.301 A  
HETATM   37  C   UNL     1      -9.699  15.628  67.944  1.00  0.00    -0.211 A  
ENDBRANCH  26  27
ENDBRANCH  16  26
ENDBRANCH   4   5
ENDBRANCH   3   4
TORSDOF 5
ENDMDL
MODEL      182
REMARK 921   NORMALIZED FREE ENERGY PREDICTED BY IDOCK:   -4.25 KCAL/MOL
REMARK 922        TOTAL FREE ENERGY PREDICTED BY IDOCK:   -6.00 KCAL/MOL
REMARK 923 INTER-LIGAND FREE ENERGY PREDICTED BY IDOCK:   -6.43 KCAL/MOL
REMARK 924 INTRA-LIGAND FREE ENERGY PREDICTED BY IDOCK:    0.43 KCAL/MOL
REMARK 927      BINDING AFFINITY PREDICTED BY RF-SCORE:    0.00 PKD
ROOT
HETATM    1  C   UNL     1     -10.904  18.063  68.172  1.00  0.00    -0.149 C  
HETATM    2  C   UNL     1     -10.868  16.606  68.604  1.00  0.00    -0.344 C  
HETATM    3  C   UNL     1     -10.838  15.356  68.975  1.00  0.00    -0.244 C  
ENDROOT
BRANCH   3   4
HETATM    4  C   UNL     1     -10.801  13.899  69.407  1.00  0.00    -0.070 C  
BRANCH   4   5
HETATM    5  N   UNL     1      -9.630  13.266  68.687  1.00  0.00    -0.115 NA 
HETATM    6  C   UNL     1      -8.455  13.917  68.234  1.00  0.00    -0.169 A  
HETATM    7  N   UNL     1      -7.583  13.036  67.784  1.00  0.00    -0.136 NA 
HETATM    8  N   UNL     1      -7.582  10.638  67.520  1.00  0.00    -0.093 N  
HETATM    9  C   UNL     1      -8.191  11.833  67.850  1.00  0.00    -0.147 A  
HETATM   10  O   UNL     1      -7.658   8.378  67.834  1.00  0.00    -0.096 OA 
HETATM   11  C   UNL     1      -9.467  11.908  68.342  1.00  0.00    -0.189 A  
HETATM   12  C   UNL     1      -6.210  10.609  67.047  1.00  0.00    -0.069 C  
HETATM   13  C   UNL     1     -10.288  10.724  68.400  1.00  0.00    -0.180 C  
HETATM   14  C   UNL     1      -8.260   9.455  67.756  1.00  0.00    -0.114 C  
HETATM   15  O   UNL     1     -11.431  10.737  68.845  1.00  0.00    -0.262 OA 
HETATM   16  N   UNL     1      -9.648   9.552  67.937  1.00  0.00    -0.132 N  
BRANCH   6  17
HETATM   17  N   UNL     1      -8.164  15.250  68.328  1.00  0.00    -0.139 NA 
HETATM   18  N   UNL     1      -5.221  15.283  67.091  1.00  0.00    -0.144 NA 
HETATM   19  C   UNL     1      -5.882  17.084  68.640  1.00  0.00    -0.142 C  
HETATM   20  C   UNL     1      -7.634  15.989  67.170  1.00  0.00    -0.211 C  
HETATM   21  C   UNL     1      -6.298  16.169  69.782  1.00  0.00    -0.175 C  
HETATM   22  C   UNL     1      -7.769  15.762  69.664  1.00  0.00    -0.060 C  
HETATM   23  C   UNL     1      -6.142  16.410  67.292  1.00  0.00    -0.166 C  
HETATM   24  H1  UNL     1      -5.394  14.833  66.192  1.00  0.00     0.000 HD 
HETATM   25  H2  UNL     1      -5.264  14.617  67.862  1.00  0.00     0.000 HD 
ENDBRANCH   6  17
BRANCH  16  26
HETATM   26  C   UNL     1     -10.366   8.252  67.936  1.00  0.00    -0.219 C  
BRANCH  26  27
HETATM   27  C   UNL     1     -10.204   7.351  69.184  1.00  0.00    -0.196 A  
HETATM   28  N   UNL     1      -9.785   6.074  68.997  1.00  0.00    -0.130 NA 
HETATM   29  C   UNL     1      -9.827   5.215  70.040  1.00  0.00    -0.225 A  
HETATM   30  C   UNL     1     -10.304   5.593  71.303  1.00  0.00    -0.289 A  
HETATM   31  C   UNL     1     -10.391   4.614  72.345  1.00  0.00    -0.262 A  
HETATM   32  C   UNL     1     -10.669   6.942  71.412  1.00  0.00    -0.221 A  
HETATM   33  C   UNL     1      -9.993   3.294  72.145  1.00  0.00    -0.231 A  
HETATM   34  C   UNL     1     -11.267   7.516  72.665  1.00  0.00    -0.399 C  
HETATM   35  N   UNL     1     -10.599   7.817  70.382  1.00  0.00    -0.223 NA 
HETATM   36  C   UNL     1      -9.492   2.930  70.907  1.00  0.00    -0.227 A  
HETATM   37  C   UNL     1      -9.416   3.887  69.881  1.00  0.00    -0.267 A  
ENDBRANCH  26  27
ENDBRANCH  16  26
ENDBRANCH   4   5
ENDBRANCH   3   4
TORSDOF 5
ENDMDL
MODEL      183
REMARK 921   NORMALIZED FREE ENERGY PREDICTED BY IDOCK:   -4.20 KCAL/MOL
REMARK 922        TOTAL FREE ENERGY PREDICTED BY IDOCK:   -5.93 KCAL/MOL
REMARK 923 INTER-LIGAND FREE ENERGY PREDICTED BY IDOCK:   -5.25 KCAL/MOL
REMARK 924 INTRA-LIGAND FREE ENERGY PREDICTED BY IDOCK:   -0.68 KCAL/MOL
REMARK 927      BINDING AFFINITY PREDICTED BY RF-SCORE:    0.00 PKD
ROOT
HETATM    1  C   UNL     1     -14.016  15.082  70.843  1.00  0.00    -0.208 C  
HETATM    2  C   UNL     1     -13.025  13.934  70.742  1.00  0.00    -0.265 C  
HETATM    3  C   UNL     1     -12.174  12.950  70.655  1.00  0.00    -0.386 C  
ENDROOT
BRANCH   3   4
HETATM    4  C   UNL     1     -11.183  11.802  70.554  1.00  0.00     0.845 C  
BRANCH   4   5
HETATM    5  N   UNL     1     -10.820  11.676  69.090  1.00  0.00    -0.211 NA 
HETATM    6  C   UNL     1     -10.482  12.727  68.201  1.00  0.00    -0.236 A  
HETATM    7  N   UNL     1     -10.079  12.242  67.043  1.00  0.00    -0.212 NA 
HETATM    8  N   UNL     1      -9.858  10.023  66.122  1.00  0.00    -0.230 N  
HETATM    9  C   UNL     1     -10.227  10.903  67.120  1.00  0.00    -0.210 A  
HETATM   10  O   UNL     1      -9.291   7.854  65.688  1.00  0.00     0.006 OA 
HETATM   11  C   UNL     1     -10.730  10.492  68.327  1.00  0.00    -0.229 A  
HETATM   12  C   UNL     1      -9.286  10.507  64.879  1.00  0.00    -0.215 C  
HETATM   13  C   UNL     1     -11.030   9.099  68.546  1.00  0.00     0.052 C  
HETATM   14  C   UNL     1      -9.933   8.663  66.367  1.00  0.00    -0.260 C  
HETATM   15  O   UNL     1     -11.466   8.680  69.613  1.00  0.00     0.092 OA 
HETATM   16  N   UNL     1     -10.740   8.263  67.445  1.00  0.00    -0.236 N  
BRANCH   6  17
HETATM   17  N   UNL     1     -10.449  14.065  68.483  1.00  0.00    -0.245 NA 
HETATM   18  N   UNL     1     -10.160  15.265  65.539  1.00  0.00    -0.364 NA 
HETATM   19  C   UNL     1      -9.366  16.602  67.453  1.00  0.00    -0.223 C  
HETATM   20  C   UNL     1     -11.316  15.009  67.758  1.00  0.00    -0.330 C  
HETATM   21  C   UNL     1      -8.435  15.538  68.016  1.00  0.00    -0.143 C  
HETATM   22  C   UNL     1      -9.169  14.616  68.994  1.00  0.00    -0.108 C  
HETATM   23  C   UNL     1     -10.571  15.952  66.771  1.00  0.00    -0.309 C  
HETATM   24  H1  UNL     1     -10.963  14.831  65.083  1.00  0.00     0.000 HD 
HETATM   25  H2  UNL     1      -9.414  14.591  65.712  1.00  0.00     0.000 HD 
ENDBRANCH   6  17
BRANCH  16  26
HETATM   26  C   UNL     1     -10.993   6.802  67.519  1.00  0.00    -0.303 C  
BRANCH  26  27
HETATM   27  C   UNL     1     -10.055   5.963  68.420  1.00  0.00    -0.167 A  
HETATM   28  N   UNL     1      -9.017   5.318  67.832  1.00  0.00    -0.109 NA 
HETATM   29  C   UNL     1      -8.307   4.426  68.559  1.00  0.00    -0.084 A  
HETATM   30  C   UNL     1      -8.617   4.134  69.895  1.00  0.00    -0.103 A  
HETATM   31  C   UNL     1      -7.871   3.125  70.585  1.00  0.00    -0.044 A  
HETATM   32  C   UNL     1      -9.673   4.884  70.429  1.00  0.00    -0.214 A  
HETATM   33  C   UNL     1      -6.827   2.436  69.972  1.00  0.00    -0.033 A  
HETATM   34  C   UNL     1     -10.195   4.663  71.821  1.00  0.00    -0.242 C  
HETATM   35  N   UNL     1     -10.368   5.803  69.718  1.00  0.00    -0.236 NA 
HETATM   36  C   UNL     1      -6.502   2.750  68.664  1.00  0.00    -0.029 A  
HETATM   37  C   UNL     1      -7.239   3.732  67.982  1.00  0.00    -0.058 A  
ENDBRANCH  26  27
ENDBRANCH  16  26
ENDBRANCH   4   5
ENDBRANCH   3   4
TORSDOF 5
ENDMDL
MODEL      184
REMARK 921   NORMALIZED FREE ENERGY PREDICTED BY IDOCK:   -4.18 KCAL/MOL
REMARK 922        TOTAL FREE ENERGY PREDICTED BY IDOCK:   -5.91 KCAL/MOL
REMARK 923 INTER-LIGAND FREE ENERGY PREDICTED BY IDOCK:   -4.50 KCAL/MOL
REMARK 924 INTRA-LIGAND FREE ENERGY PREDICTED BY IDOCK:   -1.40 KCAL/MOL
REMARK 927      BINDING AFFINITY PREDICTED BY RF-SCORE:    0.00 PKD
ROOT
HETATM    1  C   UNL     1     -11.259   6.139  67.350  1.00  0.00    -0.165 C  
HETATM    2  C   UNL     1      -9.753   6.136  67.557  1.00  0.00    -0.126 C  
HETATM    3  C   UNL     1      -8.461   6.133  67.734  1.00  0.00    -0.115 C  
ENDROOT
BRANCH   3   4
HETATM    4  C   UNL     1      -6.955   6.131  67.940  1.00  0.00    -0.076 C  
BRANCH   4   5
HETATM    5  N   UNL     1      -6.674   7.112  69.058  1.00  0.00    -0.054 NA 
HETATM    6  C   UNL     1      -6.441   6.806  70.423  1.00  0.00    -0.043 A  
HETATM    7  N   UNL     1      -6.083   7.890  71.084  1.00  0.00    -0.034 NA 
HETATM    8  N   UNL     1      -5.807  10.214  70.503  1.00  0.00    -0.080 N  
HETATM    9  C   UNL     1      -6.161   8.912  70.208  1.00  0.00    -0.031 A  
HETATM   10  O   UNL     1      -5.161  12.205  69.591  1.00  0.00    -0.068 OA 
HETATM   11  C   UNL     1      -6.570   8.516  68.962  1.00  0.00    -0.048 A  
HETATM   12  C   UNL     1      -5.334  10.574  71.827  1.00  0.00     0.087 C  
HETATM   13  C   UNL     1      -6.787   9.497  67.928  1.00  0.00    -0.074 C  
HETATM   14  C   UNL     1      -5.801  11.153  69.486  1.00  0.00    -0.061 C  
HETATM   15  O   UNL     1      -7.139   9.191  66.794  1.00  0.00    -0.080 OA 
HETATM   16  N   UNL     1      -6.522  10.827  68.326  1.00  0.00    -0.057 N  
BRANCH   6  17
HETATM   17  N   UNL     1      -6.458   5.568  71.003  1.00  0.00    -0.034 NA 
HETATM   18  N   UNL     1      -8.695   6.013  73.237  1.00  0.00    -0.121 NA 
HETATM   19  C   UNL     1      -7.008   4.247  73.576  1.00  0.00    -0.061 C  
HETATM   20  C   UNL     1      -7.729   4.856  71.223  1.00  0.00    -0.087 C  
HETATM   21  C   UNL     1      -5.795   5.152  73.417  1.00  0.00    -0.023 C  
HETATM   22  C   UNL     1      -5.362   5.253  71.952  1.00  0.00    -0.009 C  
HETATM   23  C   UNL     1      -8.165   4.747  72.711  1.00  0.00    -0.101 C  
HETATM   24  H1  UNL     1      -9.468   6.347  72.660  1.00  0.00     0.000 HD 
HETATM   25  H2  UNL     1      -7.964   6.718  73.335  1.00  0.00     0.000 HD 
ENDBRANCH   6  17
BRANCH  16  26
HETATM   26  C   UNL     1      -6.698  11.950  67.370  1.00  0.00    -0.126 C  
BRANCH  26  27
HETATM   27  C   UNL     1      -8.023  12.745  67.444  1.00  0.00    -0.179 A  
HETATM   28  N   UNL     1      -8.028  13.912  68.136  1.00  0.00    -0.137 NA 
HETATM   29  C   UNL     1      -9.211  14.519  68.382  1.00  0.00    -0.196 A  
HETATM   30  C   UNL     1     -10.433  13.977  67.960  1.00  0.00    -0.241 A  
HETATM   31  C   UNL     1     -11.655  14.634  68.316  1.00  0.00    -0.353 A  
HETATM   32  C   UNL     1     -10.323  12.796  67.212  1.00  0.00    -0.232 A  
HETATM   33  C   UNL     1     -11.664  15.814  69.057  1.00  0.00    -0.405 A  
HETATM   34  C   UNL     1     -11.525  12.032  66.733  1.00  0.00    -0.410 C  
HETATM   35  N   UNL     1      -9.141  12.199  66.933  1.00  0.00    -0.198 NA 
HETATM   36  C   UNL     1     -10.454  16.365  69.444  1.00  0.00    -0.309 A  
HETATM   37  C   UNL     1      -9.256  15.716  69.104  1.00  0.00    -0.254 A  
ENDBRANCH  26  27
ENDBRANCH  16  26
ENDBRANCH   4   5
ENDBRANCH   3   4
TORSDOF 5
ENDMDL
MODEL      185
REMARK 921   NORMALIZED FREE ENERGY PREDICTED BY IDOCK:   -3.98 KCAL/MOL
REMARK 922        TOTAL FREE ENERGY PREDICTED BY IDOCK:   -5.64 KCAL/MOL
REMARK 923 INTER-LIGAND FREE ENERGY PREDICTED BY IDOCK:   -7.54 KCAL/MOL
REMARK 924 INTRA-LIGAND FREE ENERGY PREDICTED BY IDOCK:    1.89 KCAL/MOL
REMARK 927      BINDING AFFINITY PREDICTED BY RF-SCORE:    0.00 PKD
ROOT
HETATM    1  C   UNL     1      -5.975   8.314  70.698  1.00  0.00    -0.032 C  
HETATM    2  C   UNL     1      -7.446   8.302  70.313  1.00  0.00    -0.066 C  
HETATM    3  C   UNL     1      -8.708   8.292  69.983  1.00  0.00    -0.133 C  
ENDROOT
BRANCH   3   4
HETATM    4  C   UNL     1     -10.178   8.279  69.598  1.00  0.00    -0.209 C  
BRANCH   4   5
HETATM    5  N   UNL     1     -10.267   8.902  68.222  1.00  0.00    -0.195 NA 
HETATM    6  C   UNL     1      -9.947   8.288  66.985  1.00  0.00    -0.255 A  
HETATM    7  N   UNL     1     -10.283   9.071  65.979  1.00  0.00    -0.112 NA 
HETATM    8  N   UNL     1     -11.240  11.278  65.799  1.00  0.00    -0.097 N  
HETATM    9  C   UNL     1     -10.734  10.219  66.526  1.00  0.00    -0.078 A  
HETATM   10  O   UNL     1     -12.576  13.127  65.911  1.00  0.00    -0.433 OA 
HETATM   11  C   UNL     1     -10.700  10.205  67.896  1.00  0.00    -0.269 A  
HETATM   12  C   UNL     1     -11.298  11.224  64.349  1.00  0.00    -0.037 C  
HETATM   13  C   UNL     1     -11.068  11.385  68.638  1.00  0.00    -0.236 C  
HETATM   14  C   UNL     1     -11.797  12.349  66.475  1.00  0.00    -0.339 C  
HETATM   15  O   UNL     1     -11.067  11.418  69.864  1.00  0.00    -0.193 OA 
HETATM   16  N   UNL     1     -11.464  12.477  67.833  1.00  0.00    -0.294 N  
BRANCH   6  17
HETATM   17  N   UNL     1      -9.464   7.023  66.796  1.00  0.00    -0.157 NA 
HETATM   18  N   UNL     1     -10.331   5.660  69.550  1.00  0.00    -0.248 NA 
HETATM   19  C   UNL     1      -8.429   4.712  68.299  1.00  0.00    -0.101 C  
HETATM   20  C   UNL     1     -10.316   5.846  67.042  1.00  0.00    -0.243 C  
HETATM   21  C   UNL     1      -7.628   6.004  68.222  1.00  0.00    -0.091 C  
HETATM   22  C   UNL     1      -8.006   6.821  66.983  1.00  0.00    -0.109 C  
HETATM   23  C   UNL     1      -9.928   5.011  68.294  1.00  0.00    -0.129 C  
HETATM   24  H1  UNL     1     -11.331   5.859  69.547  1.00  0.00     0.000 HD 
HETATM   25  H2  UNL     1      -9.778   6.497  69.737  1.00  0.00     0.000 HD 
ENDBRANCH   6  17
BRANCH  16  26
HETATM   26  C   UNL     1     -11.873  13.762  68.453  1.00  0.00    -0.376 C  
BRANCH  26  27
HETATM   27  C   UNL     1     -11.200  15.052  67.927  1.00  0.00    -0.323 A  
HETATM   28  N   UNL     1     -10.816  15.986  68.834  1.00  0.00    -0.266 NA 
HETATM   29  C   UNL     1     -10.411  17.197  68.390  1.00  0.00    -0.376 A  
HETATM   30  C   UNL     1     -10.388  17.527  67.028  1.00  0.00    -0.324 A  
HETATM   31  C   UNL     1     -10.017  18.852  66.631  1.00  0.00    -0.416 A  
HETATM   32  C   UNL     1     -10.755  16.483  66.167  1.00  0.00    -0.155 A  
HETATM   33  C   UNL     1      -9.657  19.823  67.562  1.00  0.00    -0.470 A  
HETATM   34  C   UNL     1     -10.858  16.666  64.679  1.00  0.00     0.086 C  
HETATM   35  N   UNL     1     -11.130  15.257  66.600  1.00  0.00    -0.309 NA 
HETATM   36  C   UNL     1      -9.649  19.485  68.905  1.00  0.00    -0.460 A  
HETATM   37  C   UNL     1     -10.022  18.189  69.297  1.00  0.00    -0.088 A  
ENDBRANCH  26  27
ENDBRANCH  16  26
ENDBRANCH   4   5
ENDBRANCH   3   4
TORSDOF 5
ENDMDL
MODEL      186
REMARK 921   NORMALIZED FREE ENERGY PREDICTED BY IDOCK:   -3.97 KCAL/MOL
REMARK 922        TOTAL FREE ENERGY PREDICTED BY IDOCK:   -5.63 KCAL/MOL
REMARK 923 INTER-LIGAND FREE ENERGY PREDICTED BY IDOCK:   -4.80 KCAL/MOL
REMARK 924 INTRA-LIGAND FREE ENERGY PREDICTED BY IDOCK:   -0.83 KCAL/MOL
REMARK 927      BINDING AFFINITY PREDICTED BY RF-SCORE:    0.00 PKD
ROOT
HETATM    1  C   UNL     1     -10.672  12.729  68.754  1.00  0.00    -0.246 C  
HETATM    2  C   UNL     1      -9.611  12.037  67.912  1.00  0.00    -0.196 C  
HETATM    3  C   UNL     1      -8.701  11.444  67.190  1.00  0.00    -0.155 C  
ENDROOT
BRANCH   3   4
HETATM    4  C   UNL     1      -7.640  10.754  66.349  1.00  0.00    -0.141 C  
BRANCH   4   5
HETATM    5  N   UNL     1      -8.001   9.284  66.324  1.00  0.00    -0.106 NA 
HETATM    6  C   UNL     1      -8.649   8.583  65.275  1.00  0.00    -0.165 A  
HETATM    7  N   UNL     1      -8.671   7.289  65.529  1.00  0.00    -0.081 NA 
HETATM    8  N   UNL     1      -7.922   5.911  67.362  1.00  0.00    -0.102 N  
HETATM    9  C   UNL     1      -8.132   7.134  66.756  1.00  0.00    -0.113 A  
HETATM   10  O   UNL     1      -6.706   4.825  68.961  1.00  0.00    -0.046 OA 
HETATM   11  C   UNL     1      -7.751   8.321  67.325  1.00  0.00    -0.101 A  
HETATM   12  C   UNL     1      -8.302   4.678  66.696  1.00  0.00    -0.106 C  
HETATM   13  C   UNL     1      -7.234   8.344  68.670  1.00  0.00    -0.080 C  
HETATM   14  C   UNL     1      -7.239   5.868  68.565  1.00  0.00    -0.083 C  
HETATM   15  O   UNL     1      -6.866   9.378  69.216  1.00  0.00    -0.048 OA 
HETATM   16  N   UNL     1      -7.154   7.072  69.282  1.00  0.00    -0.080 N  
BRANCH   6  17
HETATM   17  N   UNL     1      -9.104   9.104  64.096  1.00  0.00    -0.015 NA 
HETATM   18  N   UNL     1      -6.567  10.830  63.214  1.00  0.00    -0.356 NA 
HETATM   19  C   UNL     1      -8.791  11.456  62.352  1.00  0.00    -0.111 C  
HETATM   20  C   UNL     1      -8.287   9.026  62.873  1.00  0.00    -0.202 C  
HETATM   21  C   UNL     1      -9.459  11.588  63.714  1.00  0.00    -0.153 C  
HETATM   22  C   UNL     1     -10.041  10.251  64.181  1.00  0.00    -0.062 C  
HETATM   23  C   UNL     1      -7.701  10.385  62.393  1.00  0.00    -0.148 C  
HETATM   24  H1  UNL     1      -5.840  10.116  63.241  1.00  0.00     0.000 HD 
HETATM   25  H2  UNL     1      -6.863  11.105  64.151  1.00  0.00     0.000 HD 
ENDBRANCH   6  17
BRANCH  16  26
HETATM   26  C   UNL     1      -6.639   6.933  70.667  1.00  0.00    -0.052 C  
BRANCH  26  27
HETATM   27  C   UNL     1      -7.633   6.445  71.749  1.00  0.00    -0.095 A  
HETATM   28  N   UNL     1      -7.518   5.167  72.189  1.00  0.00    -0.091 NA 
HETATM   29  C   UNL     1      -8.491   4.660  72.980  1.00  0.00    -0.099 A  
HETATM   30  C   UNL     1      -9.620   5.405  73.349  1.00  0.00    -0.151 A  
HETATM   31  C   UNL     1     -10.648   4.784  74.129  1.00  0.00    -0.351 A  
HETATM   32  C   UNL     1      -9.626   6.728  72.886  1.00  0.00    -0.149 A  
HETATM   33  C   UNL     1     -10.549   3.461  74.552  1.00  0.00    -0.173 A  
HETATM   34  C   UNL     1     -10.783   7.658  73.120  1.00  0.00    -0.445 C  
HETATM   35  N   UNL     1      -8.641   7.254  72.121  1.00  0.00    -0.113 NA 
HETATM   36  C   UNL     1      -9.418   2.738  74.215  1.00  0.00    -0.110 A  
HETATM   37  C   UNL     1      -8.413   3.342  73.441  1.00  0.00    -0.075 A  
ENDBRANCH  26  27
ENDBRANCH  16  26
ENDBRANCH   4   5
ENDBRANCH   3   4
TORSDOF 5
ENDMDL
MODEL      187
REMARK 921   NORMALIZED FREE ENERGY PREDICTED BY IDOCK:   -3.78 KCAL/MOL
REMARK 922        TOTAL FREE ENERGY PREDICTED BY IDOCK:   -5.39 KCAL/MOL
REMARK 923 INTER-LIGAND FREE ENERGY PREDICTED BY IDOCK:   -5.41 KCAL/MOL
REMARK 924 INTRA-LIGAND FREE ENERGY PREDICTED BY IDOCK:    0.01 KCAL/MOL
REMARK 927      BINDING AFFINITY PREDICTED BY RF-SCORE:    0.00 PKD
ROOT
HETATM    1  C   UNL     1     -12.321  14.804  63.811  1.00  0.00     0.227 C  
HETATM    2  C   UNL     1     -11.648  14.964  65.165  1.00  0.00    -0.330 C  
HETATM    3  C   UNL     1     -11.071  15.100  66.326  1.00  0.00    -0.309 C  
ENDROOT
BRANCH   3   4
HETATM    4  C   UNL     1     -10.398  15.259  67.680  1.00  0.00    -0.250 C  
BRANCH   4   5
HETATM    5  N   UNL     1      -9.037  14.606  67.562  1.00  0.00    -0.184 NA 
HETATM    6  C   UNL     1      -7.786  15.260  67.437  1.00  0.00    -0.197 A  
HETATM    7  N   UNL     1      -6.800  14.387  67.508  1.00  0.00    -0.217 NA 
HETATM    8  N   UNL     1      -6.675  11.989  67.738  1.00  0.00    -0.086 N  
HETATM    9  C   UNL     1      -7.376  13.170  67.589  1.00  0.00    -0.154 A  
HETATM   10  O   UNL     1      -6.834   9.823  68.442  1.00  0.00    -0.060 OA 
HETATM   11  C   UNL     1      -8.744  13.226  67.571  1.00  0.00    -0.202 A  
HETATM   12  C   UNL     1      -5.225  11.988  67.799  1.00  0.00    -0.068 C  
HETATM   13  C   UNL     1      -9.516  12.008  67.564  1.00  0.00    -0.178 C  
HETATM   14  C   UNL     1      -7.378  10.815  67.945  1.00  0.00    -0.088 C  
HETATM   15  O   UNL     1     -10.742  12.007  67.563  1.00  0.00    -0.215 OA 
HETATM   16  N   UNL     1      -8.739  10.828  67.599  1.00  0.00    -0.126 N  
BRANCH   6  17
HETATM   17  N   UNL     1      -7.565  16.607  67.365  1.00  0.00    -0.156 NA 
HETATM   18  N   UNL     1     -10.114  17.692  68.951  1.00  0.00    -0.362 NA 
HETATM   19  C   UNL     1      -9.011  19.171  67.315  1.00  0.00    -0.329 C  
HETATM   20  C   UNL     1      -7.639  17.449  68.572  1.00  0.00    -0.254 C  
HETATM   21  C   UNL     1      -9.106  18.209  66.140  1.00  0.00    -0.128 C  
HETATM   22  C   UNL     1      -7.892  17.278  66.082  1.00  0.00    -0.270 C  
HETATM   23  C   UNL     1      -8.867  18.401  68.628  1.00  0.00    -0.283 C  
HETATM   24  H1  UNL     1     -10.019  17.178  69.827  1.00  0.00     0.000 HD 
HETATM   25  H2  UNL     1     -10.414  17.087  68.188  1.00  0.00     0.000 HD 
ENDBRANCH   6  17
BRANCH  16  26
HETATM   26  C   UNL     1      -9.391   9.495  67.599  1.00  0.00    -0.123 C  
BRANCH  26  27
HETATM   27  C   UNL     1      -8.659   8.346  66.864  1.00  0.00    -0.125 A  
HETATM   28  N   UNL     1      -8.556   8.417  65.513  1.00  0.00    -0.174 NA 
HETATM   29  C   UNL     1      -8.102   7.339  64.836  1.00  0.00    -0.108 A  
HETATM   30  C   UNL     1      -7.748   6.145  65.480  1.00  0.00    -0.094 A  
HETATM   31  C   UNL     1      -7.343   5.016  64.697  1.00  0.00    -0.063 A  
HETATM   32  C   UNL     1      -7.842   6.183  66.878  1.00  0.00    -0.104 A  
HETATM   33  C   UNL     1      -7.271   5.076  63.307  1.00  0.00    -0.048 A  
HETATM   34  C   UNL     1      -7.572   4.980  67.737  1.00  0.00    -0.083 C  
HETATM   35  N   UNL     1      -8.264   7.270  67.566  1.00  0.00    -0.113 NA 
HETATM   36  C   UNL     1      -7.589   6.266  62.675  1.00  0.00    -0.075 A  
HETATM   37  C   UNL     1      -7.996   7.371  63.442  1.00  0.00    -0.078 A  
ENDBRANCH  26  27
ENDBRANCH  16  26
ENDBRANCH   4   5
ENDBRANCH   3   4
TORSDOF 5
ENDMDL
MODEL      188
REMARK 921   NORMALIZED FREE ENERGY PREDICTED BY IDOCK:   -3.73 KCAL/MOL
REMARK 922        TOTAL FREE ENERGY PREDICTED BY IDOCK:   -5.33 KCAL/MOL
REMARK 923 INTER-LIGAND FREE ENERGY PREDICTED BY IDOCK:   -4.72 KCAL/MOL
REMARK 924 INTRA-LIGAND FREE ENERGY PREDICTED BY IDOCK:   -0.61 KCAL/MOL
REMARK 927      BINDING AFFINITY PREDICTED BY RF-SCORE:    0.00 PKD
ROOT
HETATM    1  C   UNL     1      -5.183  11.682  70.267  1.00  0.00    -0.095 C  
HETATM    2  C   UNL     1      -5.852  10.414  70.776  1.00  0.00    -0.093 C  
HETATM    3  C   UNL     1      -6.425   9.327  71.211  1.00  0.00    -0.066 C  
ENDROOT
BRANCH   3   4
HETATM    4  C   UNL     1      -7.093   8.060  71.719  1.00  0.00    -0.075 C  
BRANCH   4   5
HETATM    5  N   UNL     1      -7.451   7.243  70.497  1.00  0.00    -0.081 NA 
HETATM    6  C   UNL     1      -6.846   6.033  70.073  1.00  0.00    -0.057 A  
HETATM    7  N   UNL     1      -7.505   5.519  69.053  1.00  0.00    -0.080 NA 
HETATM    8  N   UNL     1      -9.421   6.205  67.757  1.00  0.00    -0.115 N  
HETATM    9  C   UNL     1      -8.473   6.406  68.742  1.00  0.00    -0.121 A  
HETATM   10  O   UNL     1     -11.495   6.829  67.035  1.00  0.00    -0.209 OA 
HETATM   11  C   UNL     1      -8.463   7.512  69.551  1.00  0.00    -0.132 A  
HETATM   12  C   UNL     1      -9.417   4.994  66.957  1.00  0.00    -0.142 C  
HETATM   13  C   UNL     1      -9.378   8.597  69.300  1.00  0.00    -0.153 C  
HETATM   14  C   UNL     1     -10.446   7.124  67.618  1.00  0.00    -0.239 C  
HETATM   15  O   UNL     1      -9.417   9.600  70.005  1.00  0.00    -0.212 OA 
HETATM   16  N   UNL     1     -10.245   8.384  68.204  1.00  0.00    -0.201 N  
BRANCH   6  17
HETATM   17  N   UNL     1      -5.800   5.384  70.667  1.00  0.00    -0.020 NA 
HETATM   18  N   UNL     1      -6.806   2.361  70.457  1.00  0.00    -0.032 NA 
HETATM   19  C   UNL     1      -5.186   2.957  72.218  1.00  0.00     0.000 C  
HETATM   20  C   UNL     1      -5.169   4.220  70.020  1.00  0.00    -0.004 C  
HETATM   21  C   UNL     1      -6.019   4.074  72.830  1.00  0.00    -0.015 C  
HETATM   22  C   UNL     1      -5.738   5.417  72.149  1.00  0.00    -0.018 C  
HETATM   23  C   UNL     1      -5.447   2.857  70.715  1.00  0.00    -0.012 C  
HETATM   24  H1  UNL     1      -6.980   2.294  69.454  1.00  0.00     0.000 HD 
HETATM   25  H2  UNL     1      -7.512   2.928  70.927  1.00  0.00     0.000 HD 
ENDBRANCH   6  17
BRANCH  16  26
HETATM   26  C   UNL     1     -11.246   9.412  67.824  1.00  0.00     0.300 C  
BRANCH  26  27
HETATM   27  C   UNL     1     -10.710  10.756  67.275  1.00  0.00    -0.274 A  
HETATM   28  N   UNL     1     -10.805  11.852  68.070  1.00  0.00    -0.206 NA 
HETATM   29  C   UNL     1     -10.530  13.066  67.542  1.00  0.00    -0.227 A  
HETATM   30  C   UNL     1     -10.165  13.233  66.199  1.00  0.00    -0.296 A  
HETATM   31  C   UNL     1      -9.958  14.554  65.686  1.00  0.00    -0.376 A  
HETATM   32  C   UNL     1     -10.047  12.041  65.471  1.00  0.00    -0.252 A  
HETATM   33  C   UNL     1     -10.089  15.683  66.491  1.00  0.00    -0.293 A  
HETATM   34  C   UNL     1      -9.734  12.023  64.001  1.00  0.00    -0.150 C  
HETATM   35  N   UNL     1     -10.288  10.819  66.000  1.00  0.00    -0.251 NA 
HETATM   36  C   UNL     1     -10.417  15.513  67.825  1.00  0.00    -0.273 A  
HETATM   37  C   UNL     1     -10.630  14.218  68.328  1.00  0.00    -0.247 A  
ENDBRANCH  26  27
ENDBRANCH  16  26
ENDBRANCH   4   5
ENDBRANCH   3   4
TORSDOF 5
ENDMDL
MODEL      189
REMARK 921   NORMALIZED FREE ENERGY PREDICTED BY IDOCK:   -3.72 KCAL/MOL
REMARK 922        TOTAL FREE ENERGY PREDICTED BY IDOCK:   -5.31 KCAL/MOL
REMARK 923 INTER-LIGAND FREE ENERGY PREDICTED BY IDOCK:   -4.98 KCAL/MOL
REMARK 924 INTRA-LIGAND FREE ENERGY PREDICTED BY IDOCK:   -0.33 KCAL/MOL
REMARK 927      BINDING AFFINITY PREDICTED BY RF-SCORE:    0.00 PKD
ROOT
HETATM    1  C   UNL     1      -8.682  11.233  67.961  1.00  0.00    -0.144 C  
HETATM    2  C   UNL     1      -7.896  10.138  67.258  1.00  0.00    -0.103 C  
HETATM    3  C   UNL     1      -7.222   9.198  66.655  1.00  0.00    -0.085 C  
ENDROOT
BRANCH   3   4
HETATM    4  C   UNL     1      -6.436   8.103  65.952  1.00  0.00    -0.045 C  
BRANCH   4   5
HETATM    5  N   UNL     1      -7.449   7.085  65.476  1.00  0.00    -0.082 NA 
HETATM    6  C   UNL     1      -8.009   6.981  64.178  1.00  0.00    -0.079 A  
HETATM    7  N   UNL     1      -8.743   5.890  64.077  1.00  0.00     0.178 NA 
HETATM    8  N   UNL     1      -9.364   4.121  65.595  1.00  0.00    -0.150 N  
HETATM    9  C   UNL     1      -8.748   5.322  65.301  1.00  0.00    -0.151 A  
HETATM   10  O   UNL     1      -9.390   2.368  67.058  1.00  0.00    -0.114 OA 
HETATM   11  C   UNL     1      -8.022   6.031  66.221  1.00  0.00    -0.106 A  
HETATM   12  C   UNL     1     -10.083   3.384  64.572  1.00  0.00    -0.121 C  
HETATM   13  C   UNL     1      -7.994   5.609  67.598  1.00  0.00    -0.101 C  
HETATM   14  C   UNL     1      -9.190   3.570  66.853  1.00  0.00    -0.187 C  
HETATM   15  O   UNL     1      -7.347   6.201  68.455  1.00  0.00    -0.082 OA 
HETATM   16  N   UNL     1      -8.740   4.438  67.861  1.00  0.00    -0.103 N  
BRANCH   6  17
HETATM   17  N   UNL     1      -7.768   7.801  63.110  1.00  0.00    -0.129 NA 
HETATM   18  N   UNL     1      -5.128   9.289  64.113  1.00  0.00    -0.057 NA 
HETATM   19  C   UNL     1      -6.557  10.399  62.438  1.00  0.00    -0.148 C  
HETATM   20  C   UNL     1      -6.430   7.867  62.498  1.00  0.00    -0.085 C  
HETATM   21  C   UNL     1      -7.840  10.334  63.254  1.00  0.00    -0.139 C  
HETATM   22  C   UNL     1      -8.596   9.027  63.000  1.00  0.00    -0.162 C  
HETATM   23  C   UNL     1      -5.664   9.197  62.748  1.00  0.00    -0.085 C  
HETATM   24  H1  UNL     1      -4.532   8.487  64.321  1.00  0.00     0.000 HD 
HETATM   25  H2  UNL     1      -5.869   9.398  64.805  1.00  0.00     0.000 HD 
ENDBRANCH   6  17
BRANCH  16  26
HETATM   26  C   UNL     1      -8.806   3.878  69.235  1.00  0.00    -0.093 C  
BRANCH  26  27
HETATM   27  C   UNL     1      -9.472   4.749  70.326  1.00  0.00    -0.174 A  
HETATM   28  N   UNL     1     -10.690   5.285  70.058  1.00  0.00    -0.235 NA 
HETATM   29  C   UNL     1     -11.199   6.204  70.909  1.00  0.00    -0.299 A  
HETATM   30  C   UNL     1     -10.506   6.634  72.049  1.00  0.00    -0.227 A  
HETATM   31  C   UNL     1     -11.071   7.664  72.869  1.00  0.00    -0.448 A  
HETATM   32  C   UNL     1      -9.281   5.989  72.268  1.00  0.00    -0.144 A  
HETATM   33  C   UNL     1     -12.304   8.241  72.576  1.00  0.00    -0.335 A  
HETATM   34  C   UNL     1      -8.365   6.364  73.399  1.00  0.00    -0.121 C  
HETATM   35  N   UNL     1      -8.779   5.044  71.440  1.00  0.00    -0.129 NA 
HETATM   36  C   UNL     1     -13.002   7.792  71.467  1.00  0.00    -0.357 A  
HETATM   37  C   UNL     1     -12.445   6.788  70.657  1.00  0.00    -0.142 A  
ENDBRANCH  26  27
ENDBRANCH  16  26
ENDBRANCH   4   5
ENDBRANCH   3   4
TORSDOF 5
ENDMDL
MODEL      190
REMARK 921   NORMALIZED FREE ENERGY PREDICTED BY IDOCK:   -3.69 KCAL/MOL
REMARK 922        TOTAL FREE ENERGY PREDICTED BY IDOCK:   -5.28 KCAL/MOL
REMARK 923 INTER-LIGAND FREE ENERGY PREDICTED BY IDOCK:   -5.38 KCAL/MOL
REMARK 924 INTRA-LIGAND FREE ENERGY PREDICTED BY IDOCK:    0.10 KCAL/MOL
REMARK 927      BINDING AFFINITY PREDICTED BY RF-SCORE:    0.00 PKD
ROOT
HETATM    1  C   UNL     1     -12.402  13.072  65.150  1.00  0.00    -0.536 C  
HETATM    2  C   UNL     1     -11.221  12.316  65.738  1.00  0.00    -0.378 C  
HETATM    3  C   UNL     1     -10.209  11.667  66.243  1.00  0.00    -0.262 C  
ENDROOT
BRANCH   3   4
HETATM    4  C   UNL     1      -9.028  10.912  66.831  1.00  0.00    -0.151 C  
BRANCH   4   5
HETATM    5  N   UNL     1      -9.108   9.501  66.288  1.00  0.00    -0.155 NA 
HETATM    6  C   UNL     1      -8.610   9.035  65.046  1.00  0.00    -0.181 A  
HETATM    7  N   UNL     1      -8.721   7.724  64.966  1.00  0.00     0.047 NA 
HETATM    8  N   UNL     1      -9.616   6.009  66.408  1.00  0.00    -0.155 N  
HETATM    9  C   UNL     1      -9.359   7.328  66.087  1.00  0.00    -0.046 A  
HETATM   10  O   UNL     1     -10.067   4.582  68.132  1.00  0.00    -0.077 OA 
HETATM   11  C   UNL     1      -9.675   8.371  66.916  1.00  0.00    -0.227 A  
HETATM   12  C   UNL     1      -9.217   4.936  65.515  1.00  0.00    -0.157 C  
HETATM   13  C   UNL     1     -10.434   8.133  68.118  1.00  0.00    -0.170 C  
HETATM   14  C   UNL     1     -10.156   5.715  67.647  1.00  0.00    -0.172 C  
HETATM   15  O   UNL     1     -10.729   9.031  68.899  1.00  0.00    -0.205 OA 
HETATM   16  N   UNL     1     -10.770   6.776  68.332  1.00  0.00    -0.228 N  
BRANCH   6  17
HETATM   17  N   UNL     1      -7.988   9.776  64.079  1.00  0.00    -0.138 NA 
HETATM   18  N   UNL     1      -5.755   7.707  63.119  1.00  0.00    -0.049 NA 
HETATM   19  C   UNL     1      -5.369  10.118  62.779  1.00  0.00    -0.108 C  
HETATM   20  C   UNL     1      -7.736   9.210  62.742  1.00  0.00    -0.118 C  
HETATM   21  C   UNL     1      -5.566  10.519  64.233  1.00  0.00    -0.115 C  
HETATM   22  C   UNL     1      -7.038  10.820  64.534  1.00  0.00     0.354 C  
HETATM   23  C   UNL     1      -6.242   8.912  62.433  1.00  0.00    -0.095 C  
HETATM   24  H1  UNL     1      -6.336   6.901  62.888  1.00  0.00     0.000 HD 
HETATM   25  H2  UNL     1      -5.685   7.847  64.127  1.00  0.00     0.000 HD 
ENDBRANCH   6  17
BRANCH  16  26
HETATM   26  C   UNL     1     -11.550   6.373  69.529  1.00  0.00    -0.233 C  
BRANCH  26  27
HETATM   27  C   UNL     1     -10.754   5.889  70.765  1.00  0.00    -0.277 A  
HETATM   28  N   UNL     1     -10.351   4.593  70.796  1.00  0.00    -0.131 NA 
HETATM   29  C   UNL     1      -9.833   4.099  71.943  1.00  0.00    -0.181 A  
HETATM   30  C   UNL     1      -9.712   4.874  73.105  1.00  0.00    -0.161 A  
HETATM   31  C   UNL     1      -9.222   4.268  74.307  1.00  0.00    -0.111 A  
HETATM   32  C   UNL     1     -10.108   6.211  72.962  1.00  0.00    -0.183 A  
HETATM   33  C   UNL     1      -8.841   2.929  74.351  1.00  0.00    -0.086 A  
HETATM   34  C   UNL     1     -10.116   7.176  74.113  1.00  0.00    -0.214 C  
HETATM   35  N   UNL     1     -10.597   6.723  71.808  1.00  0.00    -0.212 NA 
HETATM   36  C   UNL     1      -8.931   2.174  73.193  1.00  0.00    -0.072 A  
HETATM   37  C   UNL     1      -9.421   2.764  72.016  1.00  0.00    -0.197 A  
ENDBRANCH  26  27
ENDBRANCH  16  26
ENDBRANCH   4   5
ENDBRANCH   3   4
TORSDOF 5
ENDMDL
MODEL      191
REMARK 921   NORMALIZED FREE ENERGY PREDICTED BY IDOCK:   -3.65 KCAL/MOL
REMARK 922        TOTAL FREE ENERGY PREDICTED BY IDOCK:   -5.22 KCAL/MOL
REMARK 923 INTER-LIGAND FREE ENERGY PREDICTED BY IDOCK:   -5.74 KCAL/MOL
REMARK 924 INTRA-LIGAND FREE ENERGY PREDICTED BY IDOCK:    0.51 KCAL/MOL
REMARK 927      BINDING AFFINITY PREDICTED BY RF-SCORE:    0.00 PKD
ROOT
HETATM    1  C   UNL     1      -7.589  14.332  67.339  1.00  0.00    -0.185 C  
HETATM    2  C   UNL     1      -8.940  13.633  67.345  1.00  0.00    -0.218 C  
HETATM    3  C   UNL     1     -10.098  13.034  67.349  1.00  0.00    -0.231 C  
ENDROOT
BRANCH   3   4
HETATM    4  C   UNL     1     -11.448  12.335  67.356  1.00  0.00    -0.352 C  
BRANCH   4   5
HETATM    5  N   UNL     1     -11.623  11.752  68.741  1.00  0.00    -0.281 NA 
HETATM    6  C   UNL     1     -12.158  12.405  69.880  1.00  0.00    -0.247 A  
HETATM    7  N   UNL     1     -12.299  11.553  70.877  1.00  0.00    -0.382 NA 
HETATM    8  N   UNL     1     -11.803   9.213  71.187  1.00  0.00    -0.293 N  
HETATM    9  C   UNL     1     -11.790  10.380  70.449  1.00  0.00    -0.328 A  
HETATM   10  O   UNL     1     -11.697   6.936  71.047  1.00  0.00    -0.307 OA 
HETATM   11  C   UNL     1     -11.306  10.444  69.168  1.00  0.00    -0.226 A  
HETATM   12  C   UNL     1     -12.370   9.186  72.523  1.00  0.00    -0.146 C  
HETATM   13  C   UNL     1     -10.650   9.301  68.586  1.00  0.00    -0.187 C  
HETATM   14  C   UNL     1     -11.373   8.039  70.593  1.00  0.00    -0.252 C  
HETATM   15  O   UNL     1     -10.215   9.305  67.439  1.00  0.00    -0.209 OA 
HETATM   16  N   UNL     1     -10.590   8.172  69.435  1.00  0.00    -0.223 N  
BRANCH   6  17
HETATM   17  N   UNL     1     -12.590  13.699  69.959  1.00  0.00    -0.186 NA 
HETATM   18  N   UNL     1     -10.786  14.760  72.371  1.00  0.00     0.451 NA 
HETATM   19  C   UNL     1     -12.923  15.894  71.894  1.00  0.00    -0.425 C  
HETATM   20  C   UNL     1     -11.628  14.814  70.001  1.00  0.00    -0.286 C  
HETATM   21  C   UNL     1     -13.790  14.646  71.985  1.00  0.00    -0.557 C  
HETATM   22  C   UNL     1     -13.891  13.937  70.632  1.00  0.00     0.731 C  
HETATM   23  C   UNL     1     -11.530  15.540  71.372  1.00  0.00    -0.414 C  
HETATM   24  H1  UNL     1      -9.857  14.524  72.023  1.00  0.00     0.000 HD 
HETATM   25  H2  UNL     1     -11.302  13.930  72.664  1.00  0.00     0.000 HD 
ENDBRANCH   6  17
BRANCH  16  26
HETATM   26  C   UNL     1      -9.946   6.916  68.975  1.00  0.00    -0.158 C  
BRANCH  26  27
HETATM   27  C   UNL     1      -8.943   7.020  67.801  1.00  0.00    -0.121 A  
HETATM   28  N   UNL     1      -8.007   8.001  67.848  1.00  0.00    -0.126 NA 
HETATM   29  C   UNL     1      -7.253   8.237  66.751  1.00  0.00    -0.082 A  
HETATM   30  C   UNL     1      -7.416   7.513  65.561  1.00  0.00    -0.084 A  
HETATM   31  C   UNL     1      -6.635   7.863  64.413  1.00  0.00    -0.056 A  
HETATM   32  C   UNL     1      -8.372   6.490  65.624  1.00  0.00    -0.144 A  
HETATM   33  C   UNL     1      -5.698   8.893  64.448  1.00  0.00    -0.064 A  
HETATM   34  C   UNL     1      -8.736   5.654  64.430  1.00  0.00     0.090 C  
HETATM   35  N   UNL     1      -9.108   6.226  66.729  1.00  0.00    -0.130 NA 
HETATM   36  C   UNL     1      -5.516   9.584  65.634  1.00  0.00    -0.044 A  
HETATM   37  C   UNL     1      -6.288   9.249  66.758  1.00  0.00    -0.066 A  
ENDBRANCH  26  27
ENDBRANCH  16  26
ENDBRANCH   4   5
ENDBRANCH   3   4
TORSDOF 5
ENDMDL
MODEL      192
REMARK 921   NORMALIZED FREE ENERGY PREDICTED BY IDOCK:   -3.55 KCAL/MOL
REMARK 922        TOTAL FREE ENERGY PREDICTED BY IDOCK:   -5.09 KCAL/MOL
REMARK 923 INTER-LIGAND FREE ENERGY PREDICTED BY IDOCK:   -4.97 KCAL/MOL
REMARK 924 INTRA-LIGAND FREE ENERGY PREDICTED BY IDOCK:   -0.12 KCAL/MOL
REMARK 927      BINDING AFFINITY PREDICTED BY RF-SCORE:    0.00 PKD
ROOT
HETATM    1  C   UNL     1     -12.727  12.419  71.031  1.00  0.00    -0.315 C  
HETATM    2  C   UNL     1     -11.560  12.761  70.118  1.00  0.00    -0.130 C  
HETATM    3  C   UNL     1     -10.558  13.054  69.336  1.00  0.00     0.229 C  
ENDROOT
BRANCH   3   4
HETATM    4  C   UNL     1      -9.392  13.395  68.423  1.00  0.00    -0.165 C  
BRANCH   4   5
HETATM    5  N   UNL     1      -9.521  12.501  67.208  1.00  0.00    -0.188 NA 
HETATM    6  C   UNL     1     -10.173  12.810  65.988  1.00  0.00    -0.278 A  
HETATM    7  N   UNL     1      -9.963  11.859  65.099  1.00  0.00    -0.250 NA 
HETATM    8  N   UNL     1      -8.796   9.748  65.121  1.00  0.00    -0.167 N  
HETATM    9  C   UNL     1      -9.264  10.895  65.732  1.00  0.00    -0.201 A  
HETATM   10  O   UNL     1      -7.244   8.080  65.266  1.00  0.00    -0.062 OA 
HETATM   11  C   UNL     1      -9.007  11.198  67.044  1.00  0.00    -0.154 A  
HETATM   12  C   UNL     1      -9.056   9.496  63.716  1.00  0.00    -0.109 C  
HETATM   13  C   UNL     1      -8.342  10.237  67.889  1.00  0.00    -0.114 C  
HETATM   14  C   UNL     1      -7.976   8.895  65.838  1.00  0.00    -0.107 C  
HETATM   15  O   UNL     1      -8.077  10.468  69.064  1.00  0.00    -0.124 OA 
HETATM   16  N   UNL     1      -7.993   9.034  67.236  1.00  0.00    -0.099 N  
BRANCH   6  17
HETATM   17  N   UNL     1     -10.841  13.963  65.680  1.00  0.00    -0.287 NA 
HETATM   18  N   UNL     1      -8.855  16.128  66.929  1.00  0.00    -0.202 NA 
HETATM   19  C   UNL     1     -11.233  16.716  66.646  1.00  0.00     0.415 C  
HETATM   20  C   UNL     1     -10.144  15.089  65.036  1.00  0.00    -0.253 C  
HETATM   21  C   UNL     1     -11.784  15.537  67.434  1.00  0.00     0.047 C  
HETATM   22  C   UNL     1     -12.002  14.318  66.533  1.00  0.00    -0.427 C  
HETATM   23  C   UNL     1      -9.929  16.330  65.947  1.00  0.00    -0.339 C  
HETATM   24  H1  UNL     1      -7.985  15.870  66.463  1.00  0.00     0.000 HD 
HETATM   25  H2  UNL     1      -9.117  15.448  67.643  1.00  0.00     0.000 HD 
ENDBRANCH   6  17
BRANCH  16  26
HETATM   26  C   UNL     1      -7.301   7.948  67.975  1.00  0.00    -0.096 C  
BRANCH  26  27
HETATM   27  C   UNL     1      -8.107   7.208  69.068  1.00  0.00    -0.121 A  
HETATM   28  N   UNL     1      -7.693   5.969  69.436  1.00  0.00    -0.096 NA 
HETATM   29  C   UNL     1      -8.489   5.226  70.238  1.00  0.00    -0.110 A  
HETATM   30  C   UNL     1      -9.733   5.686  70.691  1.00  0.00    -0.232 A  
HETATM   31  C   UNL     1     -10.559   4.820  71.478  1.00  0.00    -0.065 A  
HETATM   32  C   UNL     1     -10.053   6.994  70.299  1.00  0.00    -0.187 A  
HETATM   33  C   UNL     1     -10.151   3.535  71.827  1.00  0.00    -0.147 A  
HETATM   34  C   UNL     1     -11.372   7.633  70.629  1.00  0.00    -0.288 C  
HETATM   35  N   UNL     1      -9.247   7.756  69.524  1.00  0.00    -0.150 NA 
HETATM   36  C   UNL     1      -8.908   3.095  71.406  1.00  0.00    -0.137 A  
HETATM   37  C   UNL     1      -8.101   3.939  70.625  1.00  0.00    -0.058 A  
ENDBRANCH  26  27
ENDBRANCH  16  26
ENDBRANCH   4   5
ENDBRANCH   3   4
TORSDOF 5
ENDMDL
MODEL      193
REMARK 921   NORMALIZED FREE ENERGY PREDICTED BY IDOCK:   -3.55 KCAL/MOL
REMARK 922        TOTAL FREE ENERGY PREDICTED BY IDOCK:   -5.09 KCAL/MOL
REMARK 923 INTER-LIGAND FREE ENERGY PREDICTED BY IDOCK:   -4.65 KCAL/MOL
REMARK 924 INTRA-LIGAND FREE ENERGY PREDICTED BY IDOCK:   -0.44 KCAL/MOL
REMARK 927      BINDING AFFINITY PREDICTED BY RF-SCORE:    0.00 PKD
ROOT
HETATM    1  C   UNL     1     -11.260   6.413  66.921  1.00  0.00    -0.208 C  
HETATM    2  C   UNL     1      -9.931   5.964  67.509  1.00  0.00    -0.163 C  
HETATM    3  C   UNL     1      -8.791   5.579  68.012  1.00  0.00    -0.105 C  
ENDROOT
BRANCH   3   4
HETATM    4  C   UNL     1      -7.463   5.131  68.599  1.00  0.00    -0.074 C  
BRANCH   4   5
HETATM    5  N   UNL     1      -7.203   6.017  69.799  1.00  0.00    -0.072 NA 
HETATM    6  C   UNL     1      -7.066   5.605  71.148  1.00  0.00    -0.068 A  
HETATM    7  N   UNL     1      -6.698   6.621  71.906  1.00  0.00    -0.058 NA 
HETATM    8  N   UNL     1      -6.282   8.964  71.510  1.00  0.00    -0.065 N  
HETATM    9  C   UNL     1      -6.677   7.704  71.103  1.00  0.00    -0.045 A  
HETATM   10  O   UNL     1      -5.492  10.978  70.782  1.00  0.00    -0.109 OA 
HETATM   11  C   UNL     1      -7.029   7.417  69.810  1.00  0.00    -0.056 A  
HETATM   12  C   UNL     1      -5.872   9.206  72.881  1.00  0.00     0.022 C  
HETATM   13  C   UNL     1      -7.140   8.477  68.840  1.00  0.00    -0.062 C  
HETATM   14  C   UNL     1      -6.172   9.969  70.566  1.00  0.00    -0.109 C  
HETATM   15  O   UNL     1      -7.438   8.269  67.669  1.00  0.00    -0.091 OA 
HETATM   16  N   UNL     1      -6.838   9.762  69.347  1.00  0.00    -0.053 N  
BRANCH   6  17
HETATM   17  N   UNL     1      -7.173   4.332  71.636  1.00  0.00    -0.053 NA 
HETATM   18  N   UNL     1      -5.488   2.735  69.445  1.00  0.00    -0.016 NA 
HETATM   19  C   UNL     1      -7.202   1.527  70.742  1.00  0.00    -0.033 C  
HETATM   20  C   UNL     1      -5.980   3.483  71.795  1.00  0.00    -0.013 C  
HETATM   21  C   UNL     1      -8.353   2.460  70.394  1.00  0.00    -0.076 C  
HETATM   22  C   UNL     1      -8.451   3.620  71.388  1.00  0.00    -0.072 C  
HETATM   23  C   UNL     1      -5.884   2.299  70.792  1.00  0.00    -0.017 C  
HETATM   24  H1  UNL     1      -4.608   3.250  69.477  1.00  0.00     0.000 HD 
HETATM   25  H2  UNL     1      -6.225   3.273  68.989  1.00  0.00     0.000 HD 
ENDBRANCH   6  17
BRANCH  16  26
HETATM   26  C   UNL     1      -6.905  10.955  68.467  1.00  0.00    -0.059 C  
BRANCH  26  27
HETATM   27  C   UNL     1      -8.311  11.470  68.075  1.00  0.00    -0.146 A  
HETATM   28  N   UNL     1      -8.390  12.483  67.175  1.00  0.00    -0.186 NA 
HETATM   29  C   UNL     1      -9.585  13.080  66.969  1.00  0.00    -0.236 A  
HETATM   30  C   UNL     1     -10.742  12.700  67.664  1.00  0.00    -0.239 A  
HETATM   31  C   UNL     1     -11.960  13.422  67.451  1.00  0.00    -0.391 A  
HETATM   32  C   UNL     1     -10.572  11.615  68.535  1.00  0.00    -0.215 A  
HETATM   33  C   UNL     1     -12.036  14.485  66.554  1.00  0.00    -0.358 A  
HETATM   34  C   UNL     1     -11.679  11.109  69.417  1.00  0.00    -0.402 C  
HETATM   35  N   UNL     1      -9.387  10.990  68.723  1.00  0.00    -0.192 NA 
HETATM   36  C   UNL     1     -10.900  14.838  65.844  1.00  0.00    -0.331 A  
HETATM   37  C   UNL     1      -9.702  14.136  66.059  1.00  0.00    -0.297 A  
ENDBRANCH  26  27
ENDBRANCH  16  26
ENDBRANCH   4   5
ENDBRANCH   3   4
TORSDOF 5
ENDMDL
MODEL      194
REMARK 921   NORMALIZED FREE ENERGY PREDICTED BY IDOCK:   -3.49 KCAL/MOL
REMARK 922        TOTAL FREE ENERGY PREDICTED BY IDOCK:   -5.02 KCAL/MOL
REMARK 923 INTER-LIGAND FREE ENERGY PREDICTED BY IDOCK:   -5.02 KCAL/MOL
REMARK 924 INTRA-LIGAND FREE ENERGY PREDICTED BY IDOCK:    0.00 KCAL/MOL
REMARK 927      BINDING AFFINITY PREDICTED BY RF-SCORE:    0.00 PKD
ROOT
HETATM    1  C   UNL     1     -10.235   6.278  66.517  1.00  0.00    -0.163 C  
HETATM    2  C   UNL     1     -10.553   7.650  67.091  1.00  0.00    -0.410 C  
HETATM    3  C   UNL     1     -10.826   8.826  67.584  1.00  0.00    -0.092 C  
ENDROOT
BRANCH   3   4
HETATM    4  C   UNL     1     -11.143  10.197  68.158  1.00  0.00    -0.230 C  
BRANCH   4   5
HETATM    5  N   UNL     1      -9.859  10.996  68.098  1.00  0.00    -0.170 NA 
HETATM    6  C   UNL     1      -9.628  12.185  67.363  1.00  0.00    -0.177 A  
HETATM    7  N   UNL     1      -8.446  12.689  67.660  1.00  0.00    -0.161 NA 
HETATM    8  N   UNL     1      -6.628  12.012  69.094  1.00  0.00    -0.100 N  
HETATM    9  C   UNL     1      -7.861  11.815  68.504  1.00  0.00    -0.144 A  
HETATM   10  O   UNL     1      -5.306  11.413  70.856  1.00  0.00    -0.119 OA 
HETATM   11  C   UNL     1      -8.649  10.726  68.773  1.00  0.00    -0.156 A  
HETATM   12  C   UNL     1      -5.853  13.207  68.812  1.00  0.00    -0.074 C  
HETATM   13  C   UNL     1      -8.142   9.653  69.591  1.00  0.00    -0.141 C  
HETATM   14  C   UNL     1      -6.190  11.110  70.047  1.00  0.00    -0.143 C  
HETATM   15  O   UNL     1      -8.813   8.666  69.871  1.00  0.00    -0.138 OA 
HETATM   16  N   UNL     1      -6.828   9.859  70.069  1.00  0.00    -0.092 N  
BRANCH   6  17
HETATM   17  N   UNL     1     -10.509  12.826  66.537  1.00  0.00    -0.260 NA 
HETATM   18  N   UNL     1      -8.974  15.592  66.099  1.00  0.00    -0.341 NA 
HETATM   19  C   UNL     1     -11.423  15.530  65.812  1.00  0.00     0.064 C  
HETATM   20  C   UNL     1     -10.047  13.465  65.292  1.00  0.00    -0.249 C  
HETATM   21  C   UNL     1     -11.731  14.954  67.186  1.00  0.00    -0.292 C  
HETATM   22  C   UNL     1     -11.712  13.423  67.167  1.00  0.00    -0.379 C  
HETATM   23  C   UNL     1     -10.072  15.019  65.308  1.00  0.00    -0.343 C  
HETATM   24  H1  UNL     1      -8.073  15.252  65.764  1.00  0.00     0.000 HD 
HETATM   25  H2  UNL     1      -9.096  15.419  67.097  1.00  0.00     0.000 HD 
ENDBRANCH   6  17
BRANCH  16  26
HETATM   26  C   UNL     1      -6.169   8.843  70.927  1.00  0.00    -0.047 C  
BRANCH  26  27
HETATM   27  C   UNL     1      -6.682   7.386  70.823  1.00  0.00    -0.047 A  
HETATM   28  N   UNL     1      -7.196   6.811  71.940  1.00  0.00    -0.079 NA 
HETATM   29  C   UNL     1      -7.464   5.486  71.927  1.00  0.00    -0.094 A  
HETATM   30  C   UNL     1      -7.216   4.683  70.805  1.00  0.00    -0.045 A  
HETATM   31  C   UNL     1      -7.454   3.273  70.882  1.00  0.00    -0.037 A  
HETATM   32  C   UNL     1      -6.731   5.374  69.685  1.00  0.00    -0.055 A  
HETATM   33  C   UNL     1      -7.948   2.675  72.039  1.00  0.00    -0.054 A  
HETATM   34  C   UNL     1      -6.341   4.675  68.414  1.00  0.00    -0.036 C  
HETATM   35  N   UNL     1      -6.491   6.706  69.679  1.00  0.00    -0.042 NA 
HETATM   36  C   UNL     1      -8.223   3.475  73.135  1.00  0.00    -0.075 A  
HETATM   37  C   UNL     1      -7.980   4.857  73.064  1.00  0.00    -0.101 A  
ENDBRANCH  26  27
ENDBRANCH  16  26
ENDBRANCH   4   5
ENDBRANCH   3   4
TORSDOF 5
ENDMDL
MODEL      195
REMARK 921   NORMALIZED FREE ENERGY PREDICTED BY IDOCK:   -3.45 KCAL/MOL
REMARK 922        TOTAL FREE ENERGY PREDICTED BY IDOCK:   -4.97 KCAL/MOL
REMARK 923 INTER-LIGAND FREE ENERGY PREDICTED BY IDOCK:   -5.13 KCAL/MOL
REMARK 924 INTRA-LIGAND FREE ENERGY PREDICTED BY IDOCK:    0.16 KCAL/MOL
REMARK 927      BINDING AFFINITY PREDICTED BY RF-SCORE:    0.00 PKD
ROOT
HETATM    1  C   UNL     1     -12.453   4.103  73.269  1.00  0.00     0.685 C  
HETATM    2  C   UNL     1     -11.623   5.354  73.025  1.00  0.00    -0.268 C  
HETATM    3  C   UNL     1     -10.912   6.426  72.816  1.00  0.00    -0.289 C  
ENDROOT
BRANCH   3   4
HETATM    4  C   UNL     1     -10.083   7.677  72.572  1.00  0.00    -0.229 C  
BRANCH   4   5
HETATM    5  N   UNL     1      -9.334   7.450  71.277  1.00  0.00    -0.154 NA 
HETATM    6  C   UNL     1      -8.256   6.555  71.060  1.00  0.00    -0.121 A  
HETATM    7  N   UNL     1      -7.945   6.509  69.779  1.00  0.00    -0.118 NA 
HETATM    8  N   UNL     1      -8.751   7.627  67.799  1.00  0.00    -0.127 N  
HETATM    9  C   UNL     1      -8.733   7.414  69.164  1.00  0.00    -0.136 A  
HETATM   10  O   UNL     1     -10.004   8.438  66.072  1.00  0.00    -0.153 OA 
HETATM   11  C   UNL     1      -9.570   8.068  70.030  1.00  0.00    -0.171 A  
HETATM   12  C   UNL     1      -7.876   6.874  66.919  1.00  0.00    -0.107 C  
HETATM   13  C   UNL     1     -10.419   9.129  69.550  1.00  0.00    -0.219 C  
HETATM   14  C   UNL     1      -9.696   8.487  67.268  1.00  0.00    -0.183 C  
HETATM   15  O   UNL     1     -11.195   9.733  70.282  1.00  0.00    -0.254 OA 
HETATM   16  N   UNL     1     -10.306   9.380  68.163  1.00  0.00    -0.201 N  
BRANCH   6  17
HETATM   17  N   UNL     1      -7.660   5.745  71.986  1.00  0.00    -0.099 NA 
HETATM   18  N   UNL     1      -6.810   3.287  70.135  1.00  0.00    -0.033 NA 
HETATM   19  C   UNL     1      -7.132   2.904  72.550  1.00  0.00    -0.032 C  
HETATM   20  C   UNL     1      -6.329   5.167  71.735  1.00  0.00    -0.031 C  
HETATM   21  C   UNL     1      -8.551   3.452  72.611  1.00  0.00    -0.090 C  
HETATM   22  C   UNL     1      -8.555   4.961  72.873  1.00  0.00    -0.118 C  
HETATM   23  C   UNL     1      -6.323   3.633  71.478  1.00  0.00    -0.015 C  
HETATM   24  H1  UNL     1      -6.270   3.773  69.419  1.00  0.00     0.000 HD 
HETATM   25  H2  UNL     1      -7.810   3.462  70.039  1.00  0.00     0.000 HD 
ENDBRANCH   6  17
BRANCH  16  26
HETATM   26  C   UNL     1     -11.119  10.443  67.521  1.00  0.00    -0.267 C  
BRANCH  26  27
HETATM   27  C   UNL     1     -10.679  11.909  67.747  1.00  0.00    -0.207 A  
HETATM   28  N   UNL     1      -9.369  12.215  67.573  1.00  0.00    -0.177 NA 
HETATM   29  C   UNL     1      -8.927  13.434  67.955  1.00  0.00    -0.201 A  
HETATM   30  C   UNL     1      -9.774  14.388  68.538  1.00  0.00    -0.225 A  
HETATM   31  C   UNL     1      -9.226  15.633  68.987  1.00  0.00    -0.243 A  
HETATM   32  C   UNL     1     -11.117  14.000  68.632  1.00  0.00    -0.264 A  
HETATM   33  C   UNL     1      -7.875  15.935  68.841  1.00  0.00    -0.198 A  
HETATM   34  C   UNL     1     -12.159  14.859  69.290  1.00  0.00    -0.286 C  
HETATM   35  N   UNL     1     -11.574  12.794  68.222  1.00  0.00    -0.312 NA 
HETATM   36  C   UNL     1      -7.047  15.005  68.235  1.00  0.00    -0.115 A  
HETATM   37  C   UNL     1      -7.580  13.779  67.804  1.00  0.00    -0.173 A  
ENDBRANCH  26  27
ENDBRANCH  16  26
ENDBRANCH   4   5
ENDBRANCH   3   4
TORSDOF 5
ENDMDL
MODEL      196
REMARK 921   NORMALIZED FREE ENERGY PREDICTED BY IDOCK:   -3.36 KCAL/MOL
REMARK 922        TOTAL FREE ENERGY PREDICTED BY IDOCK:   -4.84 KCAL/MOL
REMARK 923 INTER-LIGAND FREE ENERGY PREDICTED BY IDOCK:   -5.41 KCAL/MOL
REMARK 924 INTRA-LIGAND FREE ENERGY PREDICTED BY IDOCK:    0.57 KCAL/MOL
REMARK 927      BINDING AFFINITY PREDICTED BY RF-SCORE:    0.00 PKD
ROOT
HETATM    1  C   UNL     1     -10.535  18.518  66.047  1.00  0.00    -0.433 C  
HETATM    2  C   UNL     1     -10.145  17.604  67.198  1.00  0.00    -0.328 C  
HETATM    3  C   UNL     1      -9.810  16.821  68.186  1.00  0.00    -0.264 C  
ENDROOT
BRANCH   3   4
HETATM    4  C   UNL     1      -9.420  15.908  69.336  1.00  0.00    -0.248 C  
BRANCH   4   5
HETATM    5  N   UNL     1     -10.048  14.561  69.048  1.00  0.00    -0.214 NA 
HETATM    6  C   UNL     1     -11.363  14.147  69.375  1.00  0.00    -0.272 A  
HETATM    7  N   UNL     1     -11.621  12.967  68.843  1.00  0.00    -0.290 NA 
HETATM    8  N   UNL     1     -10.356  11.391  67.527  1.00  0.00    -0.191 N  
HETATM    9  C   UNL     1     -10.480  12.561  68.250  1.00  0.00    -0.234 A  
HETATM   10  O   UNL     1      -9.129  10.335  65.917  1.00  0.00    -0.154 OA 
HETATM   11  C   UNL     1      -9.459  13.464  68.385  1.00  0.00    -0.176 A  
HETATM   12  C   UNL     1     -11.484  10.489  67.375  1.00  0.00     0.162 C  
HETATM   13  C   UNL     1      -8.145  13.148  67.882  1.00  0.00    -0.159 C  
HETATM   14  C   UNL     1      -9.174  11.143  66.851  1.00  0.00    -0.169 C  
HETATM   15  O   UNL     1      -7.203  13.929  67.965  1.00  0.00    -0.108 OA 
HETATM   16  N   UNL     1      -8.052  11.884  67.255  1.00  0.00    -0.163 N  
BRANCH   6  17
HETATM   17  N   UNL     1     -12.312  14.869  70.044  1.00  0.00    -0.325 NA 
HETATM   18  N   UNL     1     -10.797  15.383  72.807  1.00  0.00     0.606 NA 
HETATM   19  C   UNL     1     -13.262  15.438  72.772  1.00  0.00    -0.590 C  
HETATM   20  C   UNL     1     -11.963  16.136  70.710  1.00  0.00    -0.184 C  
HETATM   21  C   UNL     1     -13.444  14.055  72.165  1.00  0.00    -0.567 C  
HETATM   22  C   UNL     1     -13.444  14.113  70.634  1.00  0.00     0.148 C  
HETATM   23  C   UNL     1     -11.971  16.080  72.264  1.00  0.00    -0.538 C  
HETATM   24  H1  UNL     1      -9.935  15.811  72.468  1.00  0.00     0.000 HD 
HETATM   25  H2  UNL     1     -10.825  14.383  72.610  1.00  0.00     0.000 HD 
ENDBRANCH   6  17
BRANCH  16  26
HETATM   26  C   UNL     1      -6.763  11.418  66.686  1.00  0.00    -0.112 C  
BRANCH  26  27
HETATM   27  C   UNL     1      -6.546   9.889  66.578  1.00  0.00    -0.072 A  
HETATM   28  N   UNL     1      -6.269   9.370  65.356  1.00  0.00    -0.064 NA 
HETATM   29  C   UNL     1      -6.273   8.027  65.202  1.00  0.00    -0.045 A  
HETATM   30  C   UNL     1      -6.566   7.153  66.259  1.00  0.00    -0.052 A  
HETATM   31  C   UNL     1      -6.624   5.744  66.011  1.00  0.00    -0.044 A  
HETATM   32  C   UNL     1      -6.790   7.780  67.492  1.00  0.00    -0.069 A  
HETATM   33  C   UNL     1      -6.376   5.210  64.748  1.00  0.00    -0.034 A  
HETATM   34  C   UNL     1      -7.187   7.015  68.724  1.00  0.00    -0.091 C  
HETATM   35  N   UNL     1      -6.757   9.122  67.662  1.00  0.00    -0.068 NA 
HETATM   36  C   UNL     1      -6.054   6.073  63.714  1.00  0.00    -0.025 A  
HETATM   37  C   UNL     1      -6.006   7.456  63.953  1.00  0.00    -0.045 A  
ENDBRANCH  26  27
ENDBRANCH  16  26
ENDBRANCH   4   5
ENDBRANCH   3   4
TORSDOF 5
ENDMDL
MODEL      197
REMARK 921   NORMALIZED FREE ENERGY PREDICTED BY IDOCK:   -3.27 KCAL/MOL
REMARK 922        TOTAL FREE ENERGY PREDICTED BY IDOCK:   -4.73 KCAL/MOL
REMARK 923 INTER-LIGAND FREE ENERGY PREDICTED BY IDOCK:   -4.19 KCAL/MOL
REMARK 924 INTRA-LIGAND FREE ENERGY PREDICTED BY IDOCK:   -0.54 KCAL/MOL
REMARK 927      BINDING AFFINITY PREDICTED BY RF-SCORE:    0.00 PKD
ROOT
HETATM    1  C   UNL     1     -12.000  11.635  65.356  1.00  0.00     0.285 C  
HETATM    2  C   UNL     1     -11.664  11.141  66.754  1.00  0.00     0.398 C  
HETATM    3  C   UNL     1     -11.375  10.717  67.953  1.00  0.00    -0.342 C  
ENDROOT
BRANCH   3   4
HETATM    4  C   UNL     1     -11.039  10.224  69.350  1.00  0.00    -0.252 C  
BRANCH   4   5
HETATM    5  N   UNL     1      -9.701   9.522  69.248  1.00  0.00    -0.168 NA 
HETATM    6  C   UNL     1      -9.381   8.224  69.719  1.00  0.00    -0.158 A  
HETATM    7  N   UNL     1      -8.169   7.878  69.329  1.00  0.00    -0.126 NA 
HETATM    8  N   UNL     1      -6.417   8.966  68.079  1.00  0.00    -0.056 N  
HETATM    9  C   UNL     1      -7.655   8.949  68.690  1.00  0.00    -0.096 A  
HETATM   10  O   UNL     1      -5.156  10.013  66.489  1.00  0.00    -0.038 OA 
HETATM   11  C   UNL     1      -8.519  10.012  68.652  1.00  0.00    -0.118 A  
HETATM   12  C   UNL     1      -5.558   7.796  68.108  1.00  0.00    -0.032 C  
HETATM   13  C   UNL     1      -8.095  11.265  68.080  1.00  0.00    -0.134 C  
HETATM   14  C   UNL     1      -6.051  10.077  67.339  1.00  0.00    -0.058 C  
HETATM   15  O   UNL     1      -8.836  12.240  68.010  1.00  0.00    -0.169 OA 
HETATM   16  N   UNL     1      -6.775  11.256  67.577  1.00  0.00    -0.069 N  
BRANCH   6  17
HETATM   17  N   UNL     1     -10.207   7.364  70.386  1.00  0.00    -0.197 NA 
HETATM   18  N   UNL     1      -8.061   5.669  72.033  1.00  0.00    -0.111 NA 
HETATM   19  C   UNL     1     -10.253   4.654  71.538  1.00  0.00    -0.224 C  
HETATM   20  C   UNL     1     -10.073   7.165  71.840  1.00  0.00    -0.182 C  
HETATM   21  C   UNL     1     -10.183   4.851  70.030  1.00  0.00    -0.313 C  
HETATM   22  C   UNL     1     -10.747   6.214  69.619  1.00  0.00    -0.319 C  
HETATM   23  C   UNL     1      -9.509   5.778  72.259  1.00  0.00    -0.144 C  
HETATM   24  H1  UNL     1      -7.563   6.418  72.514  1.00  0.00     0.000 HD 
HETATM   25  H2  UNL     1      -7.833   5.641  71.039  1.00  0.00     0.000 HD 
ENDBRANCH   6  17
BRANCH  16  26
HETATM   26  C   UNL     1      -6.196  12.474  66.956  1.00  0.00     0.105 C  
BRANCH  26  27
HETATM   27  C   UNL     1      -6.164  13.762  67.813  1.00  0.00    -0.150 A  
HETATM   28  N   UNL     1      -6.298  14.954  67.177  1.00  0.00    -0.172 NA 
HETATM   29  C   UNL     1      -6.075  16.092  67.872  1.00  0.00    -0.133 A  
HETATM   30  C   UNL     1      -5.695  16.083  69.222  1.00  0.00    -0.119 A  
HETATM   31  C   UNL     1      -5.403  17.322  69.878  1.00  0.00    -0.205 A  
HETATM   32  C   UNL     1      -5.629  14.810  69.804  1.00  0.00    -0.100 A  
HETATM   33  C   UNL     1      -5.506  18.544  69.218  1.00  0.00    -0.204 A  
HETATM   34  C   UNL     1      -5.173  14.594  71.219  1.00  0.00    -0.143 C  
HETATM   35  N   UNL     1      -5.883  13.667  69.124  1.00  0.00    -0.080 NA 
HETATM   36  C   UNL     1      -5.914  18.553  67.895  1.00  0.00    -0.186 A  
HETATM   37  C   UNL     1      -6.191  17.337  67.246  1.00  0.00    -0.181 A  
ENDBRANCH  26  27
ENDBRANCH  16  26
ENDBRANCH   4   5
ENDBRANCH   3   4
TORSDOF 5
ENDMDL
MODEL      198
REMARK 921   NORMALIZED FREE ENERGY PREDICTED BY IDOCK:   -3.14 KCAL/MOL
REMARK 922        TOTAL FREE ENERGY PREDICTED BY IDOCK:   -4.57 KCAL/MOL
REMARK 923 INTER-LIGAND FREE ENERGY PREDICTED BY IDOCK:   -3.94 KCAL/MOL
REMARK 924 INTRA-LIGAND FREE ENERGY PREDICTED BY IDOCK:   -0.63 KCAL/MOL
REMARK 927      BINDING AFFINITY PREDICTED BY RF-SCORE:    0.00 PKD
ROOT
HETATM    1  C   UNL     1     -10.994   5.327  66.088  1.00  0.00    -0.029 C  
HETATM    2  C   UNL     1     -11.006   6.590  66.935  1.00  0.00    -0.408 C  
HETATM    3  C   UNL     1     -11.017   7.673  67.661  1.00  0.00    -0.059 C  
ENDROOT
BRANCH   3   4
HETATM    4  C   UNL     1     -11.029   8.935  68.507  1.00  0.00     0.117 C  
BRANCH   4   5
HETATM    5  N   UNL     1      -9.725   9.651  68.228  1.00  0.00    -0.144 NA 
HETATM    6  C   UNL     1      -9.472  10.593  67.200  1.00  0.00    -0.156 A  
HETATM    7  N   UNL     1      -8.273  11.124  67.344  1.00  0.00    -0.128 NA 
HETATM    8  N   UNL     1      -6.455  10.804  68.897  1.00  0.00    -0.045 N  
HETATM    9  C   UNL     1      -7.701  10.491  68.389  1.00  0.00    -0.104 A  
HETATM   10  O   UNL     1      -5.126  10.660  70.748  1.00  0.00    -0.065 OA 
HETATM   11  C   UNL     1      -8.513   9.537  68.943  1.00  0.00    -0.123 A  
HETATM   12  C   UNL     1      -5.653  11.857  68.302  1.00  0.00    -0.050 C  
HETATM   13  C   UNL     1      -8.024   8.708  70.016  1.00  0.00    -0.106 C  
HETATM   14  C   UNL     1      -6.028  10.177  70.055  1.00  0.00    -0.058 C  
HETATM   15  O   UNL     1      -8.717   7.852  70.555  1.00  0.00    -0.133 OA 
HETATM   16  N   UNL     1      -6.699   8.997  70.414  1.00  0.00    -0.046 N  
BRANCH   6  17
HETATM   17  N   UNL     1     -10.347  11.016  66.237  1.00  0.00    -0.245 NA 
HETATM   18  N   UNL     1      -8.478  10.854  63.654  1.00  0.00    -0.370 NA 
HETATM   19  C   UNL     1     -10.407  12.390  63.634  1.00  0.00    -0.434 C  
HETATM   20  C   UNL     1     -10.521  10.251  64.990  1.00  0.00     0.034 C  
HETATM   21  C   UNL     1     -10.022  13.147  64.898  1.00  0.00    -0.152 C  
HETATM   22  C   UNL     1     -10.598  12.475  66.147  1.00  0.00    -0.253 C  
HETATM   23  C   UNL     1      -9.944  10.936  63.719  1.00  0.00    -0.351 C  
HETATM   24  H1  UNL     1      -8.168   9.884  63.711  1.00  0.00     0.000 HD 
HETATM   25  H2  UNL     1      -8.034  11.435  64.365  1.00  0.00     0.000 HD 
ENDBRANCH   6  17
BRANCH  16  26
HETATM   26  C   UNL     1      -6.056   8.228  71.509  1.00  0.00    -0.040 C  
BRANCH  26  27
HETATM   27  C   UNL     1      -6.475   6.748  71.680  1.00  0.00    -0.045 A  
HETATM   28  N   UNL     1      -7.222   6.419  72.764  1.00  0.00    -0.082 NA 
HETATM   29  C   UNL     1      -7.430   5.111  73.038  1.00  0.00    -0.096 A  
HETATM   30  C   UNL     1      -6.889   4.085  72.251  1.00  0.00    -0.045 A  
HETATM   31  C   UNL     1      -7.088   2.721  72.640  1.00  0.00    -0.032 A  
HETATM   32  C   UNL     1      -6.174   4.523  71.128  1.00  0.00    -0.018 A  
HETATM   33  C   UNL     1      -7.824   2.381  73.772  1.00  0.00    -0.054 A  
HETATM   34  C   UNL     1      -5.463   3.574  70.206  1.00  0.00    -0.012 C  
HETATM   35  N   UNL     1      -5.988   5.829  70.827  1.00  0.00    -0.028 NA 
HETATM   36  C   UNL     1      -8.386   3.395  74.530  1.00  0.00    -0.080 A  
HETATM   37  C   UNL     1      -8.183   4.734  74.155  1.00  0.00    -0.100 A  
ENDBRANCH  26  27
ENDBRANCH  16  26
ENDBRANCH   4   5
ENDBRANCH   3   4
TORSDOF 5
ENDMDL
MODEL      199
REMARK 921   NORMALIZED FREE ENERGY PREDICTED BY IDOCK:   -2.92 KCAL/MOL
REMARK 922        TOTAL FREE ENERGY PREDICTED BY IDOCK:   -4.27 KCAL/MOL
REMARK 923 INTER-LIGAND FREE ENERGY PREDICTED BY IDOCK:   -6.07 KCAL/MOL
REMARK 924 INTRA-LIGAND FREE ENERGY PREDICTED BY IDOCK:    1.80 KCAL/MOL
REMARK 927      BINDING AFFINITY PREDICTED BY RF-SCORE:    0.00 PKD
ROOT
HETATM    1  C   UNL     1      -5.317  11.462  69.440  1.00  0.00    -0.044 C  
HETATM    2  C   UNL     1      -5.928  10.289  70.191  1.00  0.00    -0.076 C  
HETATM    3  C   UNL     1      -6.452   9.283  70.834  1.00  0.00    -0.080 C  
ENDROOT
BRANCH   3   4
HETATM    4  C   UNL     1      -7.062   8.110  71.584  1.00  0.00    -0.075 C  
BRANCH   4   5
HETATM    5  N   UNL     1      -7.477   7.099  70.537  1.00  0.00    -0.086 NA 
HETATM    6  C   UNL     1      -7.055   5.749  70.442  1.00  0.00    -0.070 A  
HETATM    7  N   UNL     1      -7.728   5.120  69.498  1.00  0.00    -0.068 NA 
HETATM    8  N   UNL     1      -9.424   5.769  67.909  1.00  0.00    -0.109 N  
HETATM    9  C   UNL     1      -8.517   6.046  68.914  1.00  0.00    -0.116 A  
HETATM   10  O   UNL     1     -11.321   6.511  66.877  1.00  0.00    -0.330 OA 
HETATM   11  C   UNL     1      -8.372   7.292  69.464  1.00  0.00    -0.133 A  
HETATM   12  C   UNL     1      -9.572   4.421  67.393  1.00  0.00    -0.181 C  
HETATM   13  C   UNL     1      -9.079   8.415  68.901  1.00  0.00    -0.147 C  
HETATM   14  C   UNL     1     -10.274   6.773  67.480  1.00  0.00    -0.190 C  
HETATM   15  O   UNL     1      -8.995   9.547  69.367  1.00  0.00    -0.150 OA 
HETATM   16  N   UNL     1      -9.903   8.090  67.799  1.00  0.00    -0.157 N  
BRANCH   6  17
HETATM   17  N   UNL     1      -6.167   5.104  71.258  1.00  0.00    -0.028 NA 
HETATM   18  N   UNL     1      -8.181   3.460  73.112  1.00  0.00    -0.074 NA 
HETATM   19  C   UNL     1      -5.935   3.997  73.976  1.00  0.00    -0.015 C  
HETATM   20  C   UNL     1      -6.271   3.653  71.487  1.00  0.00    -0.015 C  
HETATM   21  C   UNL     1      -6.035   5.500  73.761  1.00  0.00    -0.055 C  
HETATM   22  C   UNL     1      -5.565   5.896  72.359  1.00  0.00    -0.031 C  
HETATM   23  C   UNL     1      -6.740   3.249  72.913  1.00  0.00    -0.029 C  
HETATM   24  H1  UNL     1      -8.719   2.962  72.403  1.00  0.00     0.000 HD 
HETATM   25  H2  UNL     1      -8.418   4.452  73.139  1.00  0.00     0.000 HD 
ENDBRANCH   6  17
BRANCH  16  26
HETATM   26  C   UNL     1     -10.696   9.140  67.114  1.00  0.00    -0.143 C  
BRANCH  26  27
HETATM   27  C   UNL     1     -10.924  10.468  67.875  1.00  0.00    -0.295 A  
HETATM   28  N   UNL     1     -11.478  10.406  69.113  1.00  0.00    -0.224 NA 
HETATM   29  C   UNL     1     -11.868  11.554  69.711  1.00  0.00    -0.357 A  
HETATM   30  C   UNL     1     -11.734  12.804  69.091  1.00  0.00    -0.375 A  
HETATM   31  C   UNL     1     -12.235  13.973  69.750  1.00  0.00    -0.396 A  
HETATM   32  C   UNL     1     -11.108  12.773  67.837  1.00  0.00    -0.246 A  
HETATM   33  C   UNL     1     -12.835  13.907  71.005  1.00  0.00    -0.394 A  
HETATM   34  C   UNL     1     -10.939  14.003  66.991  1.00  0.00    -0.302 C  
HETATM   35  N   UNL     1     -10.685  11.632  67.245  1.00  0.00    -0.227 NA 
HETATM   36  C   UNL     1     -12.937  12.676  71.629  1.00  0.00    -0.400 A  
HETATM   37  C   UNL     1     -12.455  11.527  70.980  1.00  0.00    -0.458 A  
ENDBRANCH  26  27
ENDBRANCH  16  26
ENDBRANCH   4   5
ENDBRANCH   3   4
TORSDOF 5
ENDMDL
MODEL      200
REMARK 921   NORMALIZED FREE ENERGY PREDICTED BY IDOCK:   -2.89 KCAL/MOL
REMARK 922        TOTAL FREE ENERGY PREDICTED BY IDOCK:   -4.24 KCAL/MOL
REMARK 923 INTER-LIGAND FREE ENERGY PREDICTED BY IDOCK:   -3.22 KCAL/MOL
REMARK 924 INTRA-LIGAND FREE ENERGY PREDICTED BY IDOCK:   -1.01 KCAL/MOL
REMARK 927      BINDING AFFINITY PREDICTED BY RF-SCORE:    0.00 PKD
ROOT
HETATM    1  C   UNL     1     -11.028   6.448  67.069  1.00  0.00    -0.463 C  
HETATM    2  C   UNL     1     -11.227   7.872  67.563  1.00  0.00     0.487 C  
HETATM    3  C   UNL     1     -11.398   9.094  67.986  1.00  0.00     0.570 C  
ENDROOT
BRANCH   3   4
HETATM    4  C   UNL     1     -11.597  10.518  68.479  1.00  0.00    -0.148 C  
BRANCH   4   5
HETATM    5  N   UNL     1     -10.449  11.330  67.919  1.00  0.00    -0.182 NA 
HETATM    6  C   UNL     1     -10.487  12.200  66.800  1.00  0.00    -0.218 A  
HETATM    7  N   UNL     1      -9.348  12.856  66.686  1.00  0.00    -0.245 NA 
HETATM    8  N   UNL     1      -7.262  12.847  67.897  1.00  0.00    -0.109 N  
HETATM    9  C   UNL     1      -8.535  12.373  67.648  1.00  0.00    -0.169 A  
HETATM   10  O   UNL     1      -5.621  12.993  69.478  1.00  0.00    -0.079 OA 
HETATM   11  C   UNL     1      -9.126  11.396  68.405  1.00  0.00    -0.179 A  
HETATM   12  C   UNL     1      -6.698  13.918  67.095  1.00  0.00     0.517 C  
HETATM   13  C   UNL     1      -8.367  10.713  69.423  1.00  0.00    -0.060 C  
HETATM   14  C   UNL     1      -6.571  12.367  68.996  1.00  0.00    -0.100 C  
HETATM   15  O   UNL     1      -8.856   9.843  70.135  1.00  0.00    -0.206 OA 
HETATM   16  N   UNL     1      -7.033  11.162  69.551  1.00  0.00    -0.126 N  
BRANCH   6  17
HETATM   17  N   UNL     1     -11.558  12.452  65.989  1.00  0.00    -0.383 NA 
HETATM   18  N   UNL     1     -10.235  11.965  63.125  1.00  0.00    -0.600 NA 
HETATM   19  C   UNL     1     -12.214  13.426  63.289  1.00  0.00    -0.314 C  
HETATM   20  C   UNL     1     -11.933  11.507  64.922  1.00  0.00     0.302 C  
HETATM   21  C   UNL     1     -11.630  14.371  64.329  1.00  0.00    -0.279 C  
HETATM   22  C   UNL     1     -11.906  13.874  65.751  1.00  0.00    -0.378 C  
HETATM   23  C   UNL     1     -11.660  12.014  63.478  1.00  0.00    -0.461 C  
HETATM   24  H1  UNL     1      -9.865  11.022  63.250  1.00  0.00     0.000 HD 
HETATM   25  H2  UNL     1      -9.692  12.656  63.643  1.00  0.00     0.000 HD 
ENDBRANCH   6  17
BRANCH  16  26
HETATM   26  C   UNL     1      -6.127  10.556  70.558  1.00  0.00    -0.118 C  
BRANCH  26  27
HETATM   27  C   UNL     1      -6.063   9.011  70.619  1.00  0.00    -0.040 A  
HETATM   28  N   UNL     1      -6.129   8.419  71.838  1.00  0.00    -0.050 NA 
HETATM   29  C   UNL     1      -5.878   7.094  71.933  1.00  0.00    -0.037 A  
HETATM   30  C   UNL     1      -5.536   6.314  70.819  1.00  0.00    -0.018 A  
HETATM   31  C   UNL     1      -5.210   4.932  71.001  1.00  0.00    -0.004 A  
HETATM   32  C   UNL     1      -5.541   7.004  69.598  1.00  0.00    -0.015 A  
HETATM   33  C   UNL     1      -5.243   4.329  72.256  1.00  0.00    -0.003 A  
HETATM   34  C   UNL     1      -5.134   6.355  68.306  1.00  0.00    -0.007 C  
HETATM   35  N   UNL     1      -5.824   8.323  69.489  1.00  0.00    -0.030 NA 
HETATM   36  C   UNL     1      -5.613   5.093  73.350  1.00  0.00    -0.022 A  
HETATM   37  C   UNL     1      -5.923   6.452  73.175  1.00  0.00    -0.053 A  
ENDBRANCH  26  27
ENDBRANCH  16  26
ENDBRANCH   4   5
ENDBRANCH   3   4
TORSDOF 5
ENDMDL
MODEL      201
REMARK 921   NORMALIZED FREE ENERGY PREDICTED BY IDOCK:   -2.79 KCAL/MOL
REMARK 922        TOTAL FREE ENERGY PREDICTED BY IDOCK:   -4.11 KCAL/MOL
REMARK 923 INTER-LIGAND FREE ENERGY PREDICTED BY IDOCK:   -3.54 KCAL/MOL
REMARK 924 INTRA-LIGAND FREE ENERGY PREDICTED BY IDOCK:   -0.57 KCAL/MOL
REMARK 927      BINDING AFFINITY PREDICTED BY RF-SCORE:    0.00 PKD
ROOT
HETATM    1  C   UNL     1     -11.052   5.316  66.063  1.00  0.00     0.153 C  
HETATM    2  C   UNL     1     -11.066   6.628  66.831  1.00  0.00    -0.319 C  
HETATM    3  C   UNL     1     -11.079   7.753  67.490  1.00  0.00     0.157 C  
ENDROOT
BRANCH   3   4
HETATM    4  C   UNL     1     -11.093   9.064  68.258  1.00  0.00     0.215 C  
BRANCH   4   5
HETATM    5  N   UNL     1      -9.903   9.861  67.769  1.00  0.00    -0.150 NA 
HETATM    6  C   UNL     1      -9.866  10.746  66.662  1.00  0.00    -0.200 A  
HETATM    7  N   UNL     1      -8.711  11.380  66.616  1.00  0.00    -0.173 NA 
HETATM    8  N   UNL     1      -6.691  11.316  67.934  1.00  0.00    -0.062 N  
HETATM    9  C   UNL     1      -7.958  10.870  67.613  1.00  0.00    -0.114 A  
HETATM   10  O   UNL     1      -5.132  11.410  69.599  1.00  0.00    -0.048 OA 
HETATM   11  C   UNL     1      -8.606   9.895  68.324  1.00  0.00    -0.115 A  
HETATM   12  C   UNL     1      -6.066  12.386  67.177  1.00  0.00    -0.080 C  
HETATM   13  C   UNL     1      -7.914   9.185  69.371  1.00  0.00    -0.097 C  
HETATM   14  C   UNL     1      -6.068  10.809  69.060  1.00  0.00    -0.041 C  
HETATM   15  O   UNL     1      -8.455   8.316  70.045  1.00  0.00    -0.119 OA 
HETATM   16  N   UNL     1      -6.580   9.606  69.574  1.00  0.00    -0.047 N  
BRANCH   6  17
HETATM   17  N   UNL     1     -10.889  11.028  65.800  1.00  0.00    -0.155 NA 
HETATM   18  N   UNL     1      -9.289  12.544  63.490  1.00  0.00    -0.293 NA 
HETATM   19  C   UNL     1     -11.697  12.996  63.764  1.00  0.00    -0.547 C  
HETATM   20  C   UNL     1     -10.774  10.713  64.365  1.00  0.00     0.117 C  
HETATM   21  C   UNL     1     -11.620  13.391  65.231  1.00  0.00    -0.329 C  
HETATM   22  C   UNL     1     -11.768  12.172  66.146  1.00  0.00    -0.315 C  
HETATM   23  C   UNL     1     -10.632  11.950  63.435  1.00  0.00    -0.430 C  
HETATM   24  H1  UNL     1      -8.577  11.846  63.270  1.00  0.00     0.000 HD 
HETATM   25  H2  UNL     1      -9.111  12.996  64.387  1.00  0.00     0.000 HD 
ENDBRANCH   6  17
BRANCH  16  26
HETATM   26  C   UNL     1      -5.739   8.970  70.618  1.00  0.00    -0.034 C  
BRANCH  26  27
HETATM   27  C   UNL     1      -6.017   7.484  70.947  1.00  0.00    -0.035 A  
HETATM   28  N   UNL     1      -6.041   6.598  69.919  1.00  0.00    -0.026 NA 
HETATM   29  C   UNL     1      -6.475   5.340  70.152  1.00  0.00    -0.034 A  
HETATM   30  C   UNL     1      -6.915   4.922  71.416  1.00  0.00    -0.047 A  
HETATM   31  C   UNL     1      -7.431   3.596  71.579  1.00  0.00    -0.051 A  
HETATM   32  C   UNL     1      -6.808   5.891  72.424  1.00  0.00    -0.074 A  
HETATM   33  C   UNL     1      -7.490   2.696  70.517  1.00  0.00    -0.036 A  
HETATM   34  C   UNL     1      -7.294   5.652  73.825  1.00  0.00    -0.087 C  
HETATM   35  N   UNL     1      -6.344   7.143  72.206  1.00  0.00    -0.048 NA 
HETATM   36  C   UNL     1      -7.024   3.100  69.277  1.00  0.00    -0.041 A  
HETATM   37  C   UNL     1      -6.527   4.404  69.114  1.00  0.00    -0.036 A  
ENDBRANCH  26  27
ENDBRANCH  16  26
ENDBRANCH   4   5
ENDBRANCH   3   4
TORSDOF 5
ENDMDL
MODEL      202
REMARK 921   NORMALIZED FREE ENERGY PREDICTED BY IDOCK:   -2.72 KCAL/MOL
REMARK 922        TOTAL FREE ENERGY PREDICTED BY IDOCK:   -4.02 KCAL/MOL
REMARK 923 INTER-LIGAND FREE ENERGY PREDICTED BY IDOCK:   -6.21 KCAL/MOL
REMARK 924 INTRA-LIGAND FREE ENERGY PREDICTED BY IDOCK:    2.19 KCAL/MOL
REMARK 927      BINDING AFFINITY PREDICTED BY RF-SCORE:    0.00 PKD
ROOT
HETATM    1  C   UNL     1     -10.588  20.274  65.502  1.00  0.00    -0.122 C  
HETATM    2  C   UNL     1      -9.877  19.737  66.734  1.00  0.00    -0.528 C  
HETATM    3  C   UNL     1      -9.268  19.275  67.790  1.00  0.00    -0.367 C  
ENDROOT
BRANCH   3   4
HETATM    4  C   UNL     1      -8.557  18.738  69.021  1.00  0.00    -0.098 C  
BRANCH   4   5
HETATM    5  N   UNL     1      -7.676  17.602  68.547  1.00  0.00    -0.272 NA 
HETATM    6  C   UNL     1      -6.259  17.565  68.546  1.00  0.00    -0.176 A  
HETATM    7  N   UNL     1      -5.828  16.366  68.204  1.00  0.00    -0.106 NA 
HETATM    8  N   UNL     1      -6.899  14.308  67.544  1.00  0.00    -0.180 N  
HETATM    9  C   UNL     1      -6.925  15.643  67.897  1.00  0.00    -0.138 A  
HETATM   10  O   UNL     1      -8.150  12.401  67.434  1.00  0.00    -0.159 OA 
HETATM   11  C   UNL     1      -8.088  16.355  68.031  1.00  0.00    -0.157 A  
HETATM   12  C   UNL     1      -5.642  13.585  67.461  1.00  0.00     0.060 C  
HETATM   13  C   UNL     1      -9.346  15.757  67.661  1.00  0.00    -0.216 C  
HETATM   14  C   UNL     1      -8.097  13.635  67.381  1.00  0.00    -0.175 C  
HETATM   15  O   UNL     1     -10.414  16.348  67.777  1.00  0.00    -0.283 OA 
HETATM   16  N   UNL     1      -9.242  14.426  67.195  1.00  0.00    -0.212 N  
BRANCH   6  17
HETATM   17  N   UNL     1      -5.409  18.560  68.942  1.00  0.00    -0.191 NA 
HETATM   18  N   UNL     1      -7.201  19.993  71.163  1.00  0.00     0.523 NA 
HETATM   19  C   UNL     1      -5.428  21.291  70.043  1.00  0.00     0.222 C  
HETATM   20  C   UNL     1      -5.136  18.794  70.371  1.00  0.00    -0.216 C  
HETATM   21  C   UNL     1      -5.910  21.028  68.624  1.00  0.00    -0.336 C  
HETATM   22  C   UNL     1      -5.297  19.745  68.056  1.00  0.00    -0.187 C  
HETATM   23  C   UNL     1      -5.751  20.101  70.947  1.00  0.00    -0.311 C  
HETATM   24  H1  UNL     1      -7.417  19.199  71.766  1.00  0.00     0.000 HD 
HETATM   25  H2  UNL     1      -7.713  19.949  70.282  1.00  0.00     0.000 HD 
ENDBRANCH   6  17
BRANCH  16  26
HETATM   26  C   UNL     1     -10.453  13.676  66.778  1.00  0.00    -0.270 C  
BRANCH  26  27
HETATM   27  C   UNL     1     -10.260  12.208  66.330  1.00  0.00    -0.223 A  
HETATM   28  N   UNL     1     -10.368  11.235  67.270  1.00  0.00    -0.194 NA 
HETATM   29  C   UNL     1     -10.010   9.973  66.946  1.00  0.00    -0.209 A  
HETATM   30  C   UNL     1      -9.516   9.636  65.678  1.00  0.00    -0.318 A  
HETATM   31  C   UNL     1      -9.086   8.294  65.424  1.00  0.00     0.004 A  
HETATM   32  C   UNL     1      -9.486  10.696  64.761  1.00  0.00    -0.256 A  
HETATM   33  C   UNL     1      -9.163   7.302  66.399  1.00  0.00    -0.201 A  
HETATM   34  C   UNL     1      -8.925  10.545  63.375  1.00  0.00    -0.232 C  
HETATM   35  N   UNL     1      -9.874  11.956  65.066  1.00  0.00    -0.237 NA 
HETATM   36  C   UNL     1      -9.682   7.629  67.640  1.00  0.00    -0.189 A  
HETATM   37  C   UNL     1     -10.095   8.948  67.894  1.00  0.00    -0.255 A  
ENDBRANCH  26  27
ENDBRANCH  16  26
ENDBRANCH   4   5
ENDBRANCH   3   4
TORSDOF 5
ENDMDL
MODEL      203
REMARK 921   NORMALIZED FREE ENERGY PREDICTED BY IDOCK:   -2.54 KCAL/MOL
REMARK 922        TOTAL FREE ENERGY PREDICTED BY IDOCK:   -3.79 KCAL/MOL
REMARK 923 INTER-LIGAND FREE ENERGY PREDICTED BY IDOCK:   -3.22 KCAL/MOL
REMARK 924 INTRA-LIGAND FREE ENERGY PREDICTED BY IDOCK:   -0.56 KCAL/MOL
REMARK 927      BINDING AFFINITY PREDICTED BY RF-SCORE:    0.00 PKD
ROOT
HETATM    1  C   UNL     1     -11.696  15.079  69.801  1.00  0.00    -0.341 C  
HETATM    2  C   UNL     1     -10.525  14.905  68.846  1.00  0.00    -0.242 C  
HETATM    3  C   UNL     1      -9.522  14.756  68.027  1.00  0.00    -0.204 C  
ENDROOT
BRANCH   3   4
HETATM    4  C   UNL     1      -8.351  14.583  67.073  1.00  0.00    -0.167 C  
BRANCH   4   5
HETATM    5  N   UNL     1      -8.379  13.141  66.616  1.00  0.00     0.094 NA 
HETATM    6  C   UNL     1      -9.012  12.625  65.458  1.00  0.00     0.650 A  
HETATM    7  N   UNL     1      -8.708  11.352  65.293  1.00  0.00     0.043 NA 
HETATM    8  N   UNL     1      -7.395   9.751  66.531  1.00  0.00    -0.094 N  
HETATM    9  C   UNL     1      -7.962  10.999  66.360  1.00  0.00    -0.161 A  
HETATM   10  O   UNL     1      -5.735   8.607  67.602  1.00  0.00    -0.038 OA 
HETATM   11  C   UNL     1      -7.768  12.031  67.240  1.00  0.00    -0.168 A  
HETATM   12  C   UNL     1      -7.593   8.704  65.545  1.00  0.00    -0.087 C  
HETATM   13  C   UNL     1      -7.065  11.802  68.477  1.00  0.00    -0.091 C  
HETATM   14  C   UNL     1      -6.540   9.545  67.599  1.00  0.00    -0.063 C  
HETATM   15  O   UNL     1      -6.853  12.697  69.289  1.00  0.00    -0.088 OA 
HETATM   16  N   UNL     1      -6.610  10.475  68.649  1.00  0.00    -0.051 N  
BRANCH   6  17
HETATM   17  N   UNL     1      -9.750  13.324  64.543  1.00  0.00     0.062 NA 
HETATM   18  N   UNL     1     -12.627  13.214  65.924  1.00  0.00    -0.447 NA 
HETATM   19  C   UNL     1     -12.489  13.534  63.483  1.00  0.00    -0.234 C  
HETATM   20  C   UNL     1     -10.637  14.420  64.970  1.00  0.00    -0.432 C  
HETATM   21  C   UNL     1     -11.648  12.297  63.207  1.00  0.00    -0.434 C  
HETATM   22  C   UNL     1     -10.151  12.605  63.309  1.00  0.00     0.517 C  
HETATM   23  C   UNL     1     -12.156  14.111  64.859  1.00  0.00    -0.428 C  
HETATM   24  H1  UNL     1     -12.405  13.599  66.843  1.00  0.00     0.000 HD 
HETATM   25  H2  UNL     1     -12.262  12.268  65.812  1.00  0.00     0.000 HD 
ENDBRANCH   6  17
BRANCH  16  26
HETATM   26  C   UNL     1      -5.867  10.085  69.873  1.00  0.00    -0.046 C  
BRANCH  26  27
HETATM   27  C   UNL     1      -6.403   8.875  70.675  1.00  0.00    -0.045 A  
HETATM   28  N   UNL     1      -5.548   7.853  70.932  1.00  0.00    -0.030 NA 
HETATM   29  C   UNL     1      -6.040   6.706  71.452  1.00  0.00    -0.037 A  
HETATM   30  C   UNL     1      -7.405   6.531  71.720  1.00  0.00    -0.087 A  
HETATM   31  C   UNL     1      -7.871   5.265  72.202  1.00  0.00    -0.105 A  
HETATM   32  C   UNL     1      -8.201   7.656  71.467  1.00  0.00    -0.103 A  
HETATM   33  C   UNL     1      -7.000   4.203  72.434  1.00  0.00    -0.051 A  
HETATM   34  C   UNL     1      -9.695   7.639  71.626  1.00  0.00    -0.191 C  
HETATM   35  N   UNL     1      -7.712   8.819  70.977  1.00  0.00    -0.107 NA 
HETATM   36  C   UNL     1      -5.648   4.389  72.200  1.00  0.00    -0.008 A  
HETATM   37  C   UNL     1      -5.191   5.627  71.718  1.00  0.00    -0.013 A  
ENDBRANCH  26  27
ENDBRANCH  16  26
ENDBRANCH   4   5
ENDBRANCH   3   4
TORSDOF 5
ENDMDL
MODEL      204
REMARK 921   NORMALIZED FREE ENERGY PREDICTED BY IDOCK:   -2.49 KCAL/MOL
REMARK 922        TOTAL FREE ENERGY PREDICTED BY IDOCK:   -3.72 KCAL/MOL
REMARK 923 INTER-LIGAND FREE ENERGY PREDICTED BY IDOCK:   -5.49 KCAL/MOL
REMARK 924 INTRA-LIGAND FREE ENERGY PREDICTED BY IDOCK:    1.77 KCAL/MOL
REMARK 927      BINDING AFFINITY PREDICTED BY RF-SCORE:    0.00 PKD
ROOT
HETATM    1  C   UNL     1     -11.511  19.155  66.973  1.00  0.00     0.651 C  
HETATM    2  C   UNL     1     -10.636  17.991  66.535  1.00  0.00    -0.263 C  
HETATM    3  C   UNL     1      -9.886  16.993  66.159  1.00  0.00    -0.297 C  
ENDROOT
BRANCH   3   4
HETATM    4  C   UNL     1      -9.012  15.829  65.721  1.00  0.00    -0.037 C  
BRANCH   4   5
HETATM    5  N   UNL     1      -7.992  15.620  66.820  1.00  0.00    -0.235 NA 
HETATM    6  C   UNL     1      -7.214  16.616  67.461  1.00  0.00    -0.145 A  
HETATM    7  N   UNL     1      -6.541  16.097  68.470  1.00  0.00    -0.119 NA 
HETATM    8  N   UNL     1      -6.312  13.879  69.391  1.00  0.00    -0.105 N  
HETATM    9  C   UNL     1      -6.791  14.772  68.452  1.00  0.00    -0.104 A  
HETATM   10  O   UNL     1      -6.658  11.830  70.337  1.00  0.00    -0.108 OA 
HETATM   11  C   UNL     1      -7.629  14.402  67.433  1.00  0.00    -0.172 A  
HETATM   12  C   UNL     1      -5.465  14.330  70.480  1.00  0.00    -0.129 C  
HETATM   13  C   UNL     1      -7.932  13.009  67.218  1.00  0.00    -0.138 C  
HETATM   14  C   UNL     1      -6.744  12.565  69.347  1.00  0.00    -0.022 C  
HETATM   15  O   UNL     1      -8.687  12.629  66.329  1.00  0.00     0.000 OA 
HETATM   16  N   UNL     1      -7.317  12.132  68.140  1.00  0.00    -0.094 N  
BRANCH   6  17
HETATM   17  N   UNL     1      -7.207  17.956  67.191  1.00  0.00    -0.182 NA 
HETATM   18  N   UNL     1      -5.247  18.994  69.488  1.00  0.00    -0.185 NA 
HETATM   19  C   UNL     1      -6.885  20.564  68.519  1.00  0.00    -0.177 C  
HETATM   20  C   UNL     1      -5.938  18.697  67.087  1.00  0.00    -0.158 C  
HETATM   21  C   UNL     1      -8.111  19.705  68.793  1.00  0.00    -0.301 C  
HETATM   22  C   UNL     1      -8.385  18.740  67.636  1.00  0.00    -0.271 C  
HETATM   23  C   UNL     1      -5.662  19.683  68.258  1.00  0.00    -0.210 C  
HETATM   24  H1  UNL     1      -4.432  18.406  69.314  1.00  0.00     0.000 HD 
HETATM   25  H2  UNL     1      -6.014  18.464  69.901  1.00  0.00     0.000 HD 
ENDBRANCH   6  17
BRANCH  16  26
HETATM   26  C   UNL     1      -7.535  10.667  68.049  1.00  0.00    -0.090 C  
BRANCH  26  27
HETATM   27  C   UNL     1      -8.560  10.039  69.023  1.00  0.00    -0.153 A  
HETATM   28  N   UNL     1      -8.408   8.732  69.353  1.00  0.00    -0.115 NA 
HETATM   29  C   UNL     1      -9.395   8.113  70.038  1.00  0.00    -0.159 A  
HETATM   30  C   UNL     1     -10.577   8.770  70.407  1.00  0.00    -0.251 A  
HETATM   31  C   UNL     1     -11.614   8.036  71.067  1.00  0.00    -0.303 A  
HETATM   32  C   UNL     1     -10.623  10.129  70.065  1.00  0.00    -0.287 A  
HETATM   33  C   UNL     1     -11.475   6.685  71.375  1.00  0.00    -0.349 A  
HETATM   34  C   UNL     1     -11.834  10.982  70.315  1.00  0.00    -0.456 C  
HETATM   35  N   UNL     1      -9.625  10.765  69.409  1.00  0.00    -0.100 NA 
HETATM   36  C   UNL     1     -10.293   6.046  71.040  1.00  0.00    -0.270 A  
HETATM   37  C   UNL     1      -9.279   6.762  70.383  1.00  0.00    -0.156 A  
ENDBRANCH  26  27
ENDBRANCH  16  26
ENDBRANCH   4   5
ENDBRANCH   3   4
TORSDOF 5
ENDMDL
MODEL      205
REMARK 921   NORMALIZED FREE ENERGY PREDICTED BY IDOCK:   -2.29 KCAL/MOL
REMARK 922        TOTAL FREE ENERGY PREDICTED BY IDOCK:   -3.46 KCAL/MOL
REMARK 923 INTER-LIGAND FREE ENERGY PREDICTED BY IDOCK:   -4.47 KCAL/MOL
REMARK 924 INTRA-LIGAND FREE ENERGY PREDICTED BY IDOCK:    1.01 KCAL/MOL
REMARK 927      BINDING AFFINITY PREDICTED BY RF-SCORE:    0.00 PKD
ROOT
HETATM    1  C   UNL     1     -10.106  16.476  67.047  1.00  0.00    -0.279 C  
HETATM    2  C   UNL     1      -9.251  15.234  67.244  1.00  0.00    -0.209 C  
HETATM    3  C   UNL     1      -8.519  14.168  67.413  1.00  0.00    -0.214 C  
ENDROOT
BRANCH   3   4
HETATM    4  C   UNL     1      -7.664  12.927  67.610  1.00  0.00    -0.162 C  
BRANCH   4   5
HETATM    5  N   UNL     1      -8.571  11.739  67.371  1.00  0.00    -0.154 NA 
HETATM    6  C   UNL     1      -9.663  11.667  66.470  1.00  0.00    -0.206 A  
HETATM    7  N   UNL     1     -10.134  10.436  66.412  1.00  0.00    -0.220 NA 
HETATM    8  N   UNL     1      -9.593   8.363  67.519  1.00  0.00    -0.149 N  
HETATM    9  C   UNL     1      -9.435   9.720  67.317  1.00  0.00    -0.153 A  
HETATM   10  O   UNL     1      -8.573   6.484  68.323  1.00  0.00    -0.116 OA 
HETATM   11  C   UNL     1      -8.499  10.468  67.980  1.00  0.00    -0.120 A  
HETATM   12  C   UNL     1     -10.568   7.606  66.756  1.00  0.00    -0.186 C  
HETATM   13  C   UNL     1      -7.723   9.876  69.041  1.00  0.00    -0.089 C  
HETATM   14  C   UNL     1      -8.727   7.710  68.379  1.00  0.00    -0.127 C  
HETATM   15  O   UNL     1      -6.863  10.500  69.654  1.00  0.00    -0.085 OA 
HETATM   16  N   UNL     1      -8.013   8.514  69.282  1.00  0.00    -0.109 N  
BRANCH   6  17
HETATM   17  N   UNL     1     -10.132  12.667  65.664  1.00  0.00    -0.274 NA 
HETATM   18  N   UNL     1     -12.980  11.468  64.862  1.00  0.00     1.136 NA 
HETATM   19  C   UNL     1     -11.918  13.116  63.367  1.00  0.00    -0.552 C  
HETATM   20  C   UNL     1     -11.482  13.223  65.862  1.00  0.00    -0.332 C  
HETATM   21  C   UNL     1     -10.612  12.355  63.192  1.00  0.00    -0.025 C  
HETATM   22  C   UNL     1      -9.600  12.725  64.280  1.00  0.00     0.342 C  
HETATM   23  C   UNL     1     -12.507  12.855  64.753  1.00  0.00    -0.455 C  
HETATM   24  H1  UNL     1     -13.374  11.293  65.787  1.00  0.00     0.000 HD 
HETATM   25  H2  UNL     1     -12.246  10.799  64.631  1.00  0.00     0.000 HD 
ENDBRANCH   6  17
BRANCH  16  26
HETATM   26  C   UNL     1      -7.293   7.766  70.343  1.00  0.00    -0.069 C  
BRANCH  26  27
HETATM   27  C   UNL     1      -7.980   6.501  70.911  1.00  0.00    -0.111 A  
HETATM   28  N   UNL     1      -9.282   6.596  71.283  1.00  0.00    -0.155 NA 
HETATM   29  C   UNL     1      -9.843   5.570  71.962  1.00  0.00    -0.166 A  
HETATM   30  C   UNL     1      -9.122   4.418  72.307  1.00  0.00    -0.147 A  
HETATM   31  C   UNL     1      -9.756   3.400  73.090  1.00  0.00    -0.163 A  
HETATM   32  C   UNL     1      -7.801   4.390  71.838  1.00  0.00    -0.085 A  
HETATM   33  C   UNL     1     -11.081   3.511  73.504  1.00  0.00    -0.317 A  
HETATM   34  C   UNL     1      -6.853   3.272  72.167  1.00  0.00    -0.026 C  
HETATM   35  N   UNL     1      -7.242   5.399  71.130  1.00  0.00    -0.075 NA 
HETATM   36  C   UNL     1     -11.801   4.635  73.133  1.00  0.00    -0.086 A  
HETATM   37  C   UNL     1     -11.178   5.639  72.374  1.00  0.00    -0.336 A  
ENDBRANCH  26  27
ENDBRANCH  16  26
ENDBRANCH   4   5
ENDBRANCH   3   4
TORSDOF 5
ENDMDL
MODEL      206
REMARK 921   NORMALIZED FREE ENERGY PREDICTED BY IDOCK:   -2.22 KCAL/MOL
REMARK 922        TOTAL FREE ENERGY PREDICTED BY IDOCK:   -3.37 KCAL/MOL
REMARK 923 INTER-LIGAND FREE ENERGY PREDICTED BY IDOCK:   -7.61 KCAL/MOL
REMARK 924 INTRA-LIGAND FREE ENERGY PREDICTED BY IDOCK:    4.24 KCAL/MOL
REMARK 927      BINDING AFFINITY PREDICTED BY RF-SCORE:    0.00 PKD
ROOT
HETATM    1  C   UNL     1     -12.164  15.376  71.522  1.00  0.00    -0.433 C  
HETATM    2  C   UNL     1     -12.101  14.147  70.630  1.00  0.00    -0.421 C  
HETATM    3  C   UNL     1     -12.046  13.093  69.864  1.00  0.00    -0.357 C  
ENDROOT
BRANCH   3   4
HETATM    4  C   UNL     1     -11.983  11.863  68.972  1.00  0.00    -0.262 C  
BRANCH   4   5
HETATM    5  N   UNL     1     -10.555  11.365  69.028  1.00  0.00    -0.208 NA 
HETATM    6  C   UNL     1     -10.095  10.161  69.619  1.00  0.00    -0.234 A  
HETATM    7  N   UNL     1      -8.816   9.976  69.352  1.00  0.00    -0.178 NA 
HETATM    8  N   UNL     1      -7.135  11.233  68.165  1.00  0.00    -0.069 N  
HETATM    9  C   UNL     1      -8.407  11.069  68.677  1.00  0.00    -0.153 A  
HETATM   10  O   UNL     1      -5.901  12.355  66.605  1.00  0.00    -0.199 OA 
HETATM   11  C   UNL     1      -9.408  11.987  68.491  1.00  0.00    -0.124 A  
HETATM   12  C   UNL     1      -6.122  10.209  68.349  1.00  0.00    -0.044 C  
HETATM   13  C   UNL     1      -9.119  13.251  67.862  1.00  0.00    -0.203 C  
HETATM   14  C   UNL     1      -6.868  12.337  67.374  1.00  0.00    -0.145 C  
HETATM   15  O   UNL     1      -9.983  14.098  67.661  1.00  0.00    -0.228 OA 
HETATM   16  N   UNL     1      -7.772  13.408  67.466  1.00  0.00    -0.173 N  
BRANCH   6  17
HETATM   17  N   UNL     1     -10.845   9.231  70.282  1.00  0.00    -0.234 NA 
HETATM   18  N   UNL     1      -8.881   8.529  72.700  1.00  0.00    -0.361 NA 
HETATM   19  C   UNL     1     -10.563   6.863  72.009  1.00  0.00    -0.238 C  
HETATM   20  C   UNL     1     -11.061   9.334  71.736  1.00  0.00    -0.327 C  
HETATM   21  C   UNL     1     -10.141   6.807  70.548  1.00  0.00    -0.201 C  
HETATM   22  C   UNL     1     -10.877   7.860  69.715  1.00  0.00    -0.202 C  
HETATM   23  C   UNL     1     -10.321   8.260  72.582  1.00  0.00    -0.304 C  
HETATM   24  H1  UNL     1      -8.719   9.461  73.082  1.00  0.00     0.000 HD 
HETATM   25  H2  UNL     1      -8.397   8.395  71.812  1.00  0.00     0.000 HD 
ENDBRANCH   6  17
BRANCH  16  26
HETATM   26  C   UNL     1      -7.322  14.657  66.802  1.00  0.00     0.832 C  
BRANCH  26  27
HETATM   27  C   UNL     1      -8.255  15.888  66.896  1.00  0.00    -0.248 A  
HETATM   28  N   UNL     1      -7.799  17.071  66.413  1.00  0.00    -0.283 NA 
HETATM   29  C   UNL     1      -8.509  18.194  66.662  1.00  0.00    -0.264 A  
HETATM   30  C   UNL     1      -9.692  18.181  67.415  1.00  0.00    -0.296 A  
HETATM   31  C   UNL     1     -10.357  19.416  67.703  1.00  0.00    -0.550 A  
HETATM   32  C   UNL     1     -10.108  16.908  67.829  1.00  0.00    -0.292 A  
HETATM   33  C   UNL     1      -9.872  20.636  67.238  1.00  0.00    -0.529 A  
HETATM   34  C   UNL     1     -11.313  16.700  68.703  1.00  0.00    -0.155 C  
HETATM   35  N   UNL     1      -9.421  15.775  67.556  1.00  0.00    -0.217 NA 
HETATM   36  C   UNL     1      -8.721  20.644  66.467  1.00  0.00     0.013 A  
HETATM   37  C   UNL     1      -8.063  19.434  66.192  1.00  0.00    -0.323 A  
ENDBRANCH  26  27
ENDBRANCH  16  26
ENDBRANCH   4   5
ENDBRANCH   3   4
TORSDOF 5
ENDMDL
MODEL      207
REMARK 921   NORMALIZED FREE ENERGY PREDICTED BY IDOCK:   -2.16 KCAL/MOL
REMARK 922        TOTAL FREE ENERGY PREDICTED BY IDOCK:   -3.29 KCAL/MOL
REMARK 923 INTER-LIGAND FREE ENERGY PREDICTED BY IDOCK:   -2.69 KCAL/MOL
REMARK 924 INTRA-LIGAND FREE ENERGY PREDICTED BY IDOCK:   -0.61 KCAL/MOL
REMARK 927      BINDING AFFINITY PREDICTED BY RF-SCORE:    0.00 PKD
ROOT
HETATM    1  C   UNL     1      -5.541  11.351  71.934  1.00  0.00     0.633 C  
HETATM    2  C   UNL     1      -6.204  10.036  71.557  1.00  0.00     0.276 C  
HETATM    3  C   UNL     1      -6.772   8.908  71.234  1.00  0.00    -0.083 C  
ENDROOT
BRANCH   3   4
HETATM    4  C   UNL     1      -7.435   7.592  70.857  1.00  0.00    -0.071 C  
BRANCH   4   5
HETATM    5  N   UNL     1      -7.512   7.567  69.346  1.00  0.00    -0.085 NA 
HETATM    6  C   UNL     1      -6.879   6.646  68.475  1.00  0.00    -0.070 A  
HETATM    7  N   UNL     1      -7.284   6.831  67.233  1.00  0.00    -0.083 NA 
HETATM    8  N   UNL     1      -8.778   8.387  66.154  1.00  0.00    -0.142 N  
HETATM    9  C   UNL     1      -8.100   7.905  67.256  1.00  0.00    -0.118 A  
HETATM   10  O   UNL     1     -10.573   9.631  65.487  1.00  0.00     0.167 OA 
HETATM   11  C   UNL     1      -8.241   8.440  68.510  1.00  0.00    -0.124 A  
HETATM   12  C   UNL     1      -8.631   7.754  64.856  1.00  0.00     0.087 C  
HETATM   13  C   UNL     1      -9.011   9.644  68.697  1.00  0.00    -0.129 C  
HETATM   14  C   UNL     1      -9.691   9.412  66.325  1.00  0.00    -0.264 C  
HETATM   15  O   UNL     1      -9.178  10.153  69.800  1.00  0.00    -0.208 OA 
HETATM   16  N   UNL     1      -9.584  10.157  67.511  1.00  0.00    -0.154 N  
BRANCH   6  17
HETATM   17  N   UNL     1      -6.047   5.620  68.826  1.00  0.00    -0.024 NA 
HETATM   18  N   UNL     1      -7.014   3.370  66.777  1.00  0.00    -0.053 NA 
HETATM   19  C   UNL     1      -5.927   2.678  68.880  1.00  0.00    -0.024 C  
HETATM   20  C   UNL     1      -5.285   4.882  67.803  1.00  0.00    -0.011 C  
HETATM   21  C   UNL     1      -6.874   3.428  69.804  1.00  0.00    -0.034 C  
HETATM   22  C   UNL     1      -6.392   4.861  70.053  1.00  0.00    -0.030 C  
HETATM   23  C   UNL     1      -5.768   3.425  67.555  1.00  0.00    -0.022 C  
HETATM   24  H1  UNL     1      -6.909   3.869  65.894  1.00  0.00     0.000 HD 
HETATM   25  H2  UNL     1      -7.810   3.715  67.313  1.00  0.00     0.000 HD 
ENDBRANCH   6  17
BRANCH  16  26
HETATM   26  C   UNL     1     -10.407  11.391  67.544  1.00  0.00    -0.195 C  
BRANCH  26  27
HETATM   27  C   UNL     1      -9.677  12.738  67.325  1.00  0.00    -0.206 A  
HETATM   28  N   UNL     1      -8.931  13.232  68.345  1.00  0.00    -0.161 NA 
HETATM   29  C   UNL     1      -8.450  14.492  68.250  1.00  0.00    -0.161 A  
HETATM   30  C   UNL     1      -8.709  15.311  67.142  1.00  0.00    -0.234 A  
HETATM   31  C   UNL     1      -8.230  16.661  67.139  1.00  0.00    -0.206 A  
HETATM   32  C   UNL     1      -9.446  14.698  66.120  1.00  0.00    -0.276 A  
HETATM   33  C   UNL     1      -7.494  17.181  68.200  1.00  0.00    -0.205 A  
HETATM   34  C   UNL     1      -9.880  15.438  64.886  1.00  0.00     0.226 C  
HETATM   35  N   UNL     1      -9.903  13.426  66.192  1.00  0.00    -0.289 NA 
HETATM   36  C   UNL     1      -7.212  16.360  69.279  1.00  0.00    -0.221 A  
HETATM   37  C   UNL     1      -7.689  15.039  69.289  1.00  0.00    -0.194 A  
ENDBRANCH  26  27
ENDBRANCH  16  26
ENDBRANCH   4   5
ENDBRANCH   3   4
TORSDOF 5
ENDMDL
MODEL      208
REMARK 921   NORMALIZED FREE ENERGY PREDICTED BY IDOCK:   -1.60 KCAL/MOL
REMARK 922        TOTAL FREE ENERGY PREDICTED BY IDOCK:   -2.57 KCAL/MOL
REMARK 923 INTER-LIGAND FREE ENERGY PREDICTED BY IDOCK:   -3.66 KCAL/MOL
REMARK 924 INTRA-LIGAND FREE ENERGY PREDICTED BY IDOCK:    1.10 KCAL/MOL
REMARK 927      BINDING AFFINITY PREDICTED BY RF-SCORE:    0.00 PKD
ROOT
HETATM    1  C   UNL     1     -11.764  18.930  66.467  1.00  0.00     1.893 C  
HETATM    2  C   UNL     1     -10.779  17.778  66.337  1.00  0.00    -0.097 C  
HETATM    3  C   UNL     1      -9.935  16.790  66.226  1.00  0.00    -0.336 C  
ENDROOT
BRANCH   3   4
HETATM    4  C   UNL     1      -8.952  15.639  66.096  1.00  0.00    -0.327 C  
BRANCH   4   5
HETATM    5  N   UNL     1      -7.953  15.797  67.222  1.00  0.00    -0.168 NA 
HETATM    6  C   UNL     1      -7.544  17.008  67.834  1.00  0.00    -0.173 A  
HETATM    7  N   UNL     1      -6.776  16.762  68.878  1.00  0.00    -0.183 NA 
HETATM    8  N   UNL     1      -5.899  14.760  69.899  1.00  0.00    -0.114 N  
HETATM    9  C   UNL     1      -6.601  15.424  68.913  1.00  0.00    -0.110 A  
HETATM   10  O   UNL     1      -5.620  12.740  70.926  1.00  0.00    -0.181 OA 
HETATM   11  C   UNL     1      -7.249  14.776  67.894  1.00  0.00    -0.156 A  
HETATM   12  C   UNL     1      -5.269  15.491  70.983  1.00  0.00    -0.127 C  
HETATM   13  C   UNL     1      -7.097  13.351  67.734  1.00  0.00    -0.156 C  
HETATM   14  C   UNL     1      -5.899  13.376  69.904  1.00  0.00    -0.127 C  
HETATM   15  O   UNL     1      -7.668  12.724  66.848  1.00  0.00    -0.042 OA 
HETATM   16  N   UNL     1      -6.270  12.743  68.706  1.00  0.00    -0.070 N  
BRANCH   6  17
HETATM   17  N   UNL     1      -7.945  18.273  67.506  1.00  0.00    -0.230 NA 
HETATM   18  N   UNL     1      -5.215  19.461  66.354  1.00  0.00    -0.158 NA 
HETATM   19  C   UNL     1      -6.907  21.016  67.247  1.00  0.00    -0.434 C  
HETATM   20  C   UNL     1      -7.646  18.839  66.179  1.00  0.00    -0.258 C  
HETATM   21  C   UNL     1      -7.021  20.360  68.615  1.00  0.00    -0.146 C  
HETATM   22  C   UNL     1      -8.075  19.250  68.616  1.00  0.00    -0.370 C  
HETATM   23  C   UNL     1      -6.581  19.972  66.179  1.00  0.00    -0.221 C  
HETATM   24  H1  UNL     1      -4.997  18.764  65.641  1.00  0.00     0.000 HD 
HETATM   25  H2  UNL     1      -5.064  19.099  67.295  1.00  0.00     0.000 HD 
ENDBRANCH   6  17
BRANCH  16  26
HETATM   26  C   UNL     1      -6.019  11.281  68.674  1.00  0.00    -0.042 C  
BRANCH  26  27
HETATM   27  C   UNL     1      -7.209  10.363  68.305  1.00  0.00    -0.083 A  
HETATM   28  N   UNL     1      -8.163  10.148  69.246  1.00  0.00    -0.143 NA 
HETATM   29  C   UNL     1      -9.101   9.201  69.019  1.00  0.00    -0.143 A  
HETATM   30  C   UNL     1      -9.112   8.423  67.852  1.00  0.00    -0.137 A  
HETATM   31  C   UNL     1     -10.090   7.387  67.708  1.00  0.00    -0.232 A  
HETATM   32  C   UNL     1      -8.118   8.750  66.920  1.00  0.00    -0.101 A  
HETATM   33  C   UNL     1     -11.048   7.141  68.688  1.00  0.00    -0.005 A  
HETATM   34  C   UNL     1      -7.928   7.982  65.643  1.00  0.00    -0.114 C  
HETATM   35  N   UNL     1      -7.196   9.720  67.125  1.00  0.00    -0.086 NA 
HETATM   36  C   UNL     1     -11.056   7.932  69.824  1.00  0.00    -0.079 A  
HETATM   37  C   UNL     1     -10.091   8.942  69.972  1.00  0.00    -0.207 A  
ENDBRANCH  26  27
ENDBRANCH  16  26
ENDBRANCH   4   5
ENDBRANCH   3   4
TORSDOF 5
ENDMDL
MODEL      209
REMARK 921   NORMALIZED FREE ENERGY PREDICTED BY IDOCK:   -1.47 KCAL/MOL
REMARK 922        TOTAL FREE ENERGY PREDICTED BY IDOCK:   -2.40 KCAL/MOL
REMARK 923 INTER-LIGAND FREE ENERGY PREDICTED BY IDOCK:   -1.81 KCAL/MOL
REMARK 924 INTRA-LIGAND FREE ENERGY PREDICTED BY IDOCK:   -0.59 KCAL/MOL
REMARK 927      BINDING AFFINITY PREDICTED BY RF-SCORE:    0.00 PKD
ROOT
HETATM    1  C   UNL     1      -6.020  10.354  64.149  1.00  0.00    -0.103 C  
HETATM    2  C   UNL     1      -6.223  10.820  65.581  1.00  0.00    -0.078 C  
HETATM    3  C   UNL     1      -6.398  11.221  66.810  1.00  0.00    -0.139 C  
ENDROOT
BRANCH   3   4
HETATM    4  C   UNL     1      -6.601  11.687  68.242  1.00  0.00    -0.059 C  
BRANCH   4   5
HETATM    5  N   UNL     1      -8.056  11.436  68.574  1.00  0.00    -0.144 NA 
HETATM    6  C   UNL     1      -9.115  12.377  68.531  1.00  0.00    -0.067 A  
HETATM    7  N   UNL     1     -10.273  11.780  68.737  1.00  0.00    -0.195 NA 
HETATM    8  N   UNL     1     -10.947   9.513  69.215  1.00  0.00    -0.190 N  
HETATM    9  C   UNL     1      -9.991  10.487  69.000  1.00  0.00    -0.211 A  
HETATM   10  O   UNL     1     -11.336   7.264  69.165  1.00  0.00     0.029 OA 
HETATM   11  C   UNL     1      -8.648  10.218  68.971  1.00  0.00    -0.162 A  
HETATM   12  C   UNL     1     -12.360   9.842  69.188  1.00  0.00     1.353 C  
HETATM   13  C   UNL     1      -8.168   8.902  69.314  1.00  0.00    -0.114 C  
HETATM   14  C   UNL     1     -10.543   8.196  69.342  1.00  0.00    -0.200 C  
HETATM   15  O   UNL     1      -6.978   8.609  69.289  1.00  0.00    -0.056 OA 
HETATM   16  N   UNL     1      -9.188   7.980  69.639  1.00  0.00    -0.152 N  
BRANCH   6  17
HETATM   17  N   UNL     1      -9.024  13.704  68.215  1.00  0.00    -0.189 NA 
HETATM   18  N   UNL     1     -11.546  14.006  66.279  1.00  0.00    -0.354 NA 
HETATM   19  C   UNL     1      -9.677  15.599  66.057  1.00  0.00    -0.378 C  
HETATM   20  C   UNL     1     -10.199  14.587  68.322  1.00  0.00    -0.234 C  
HETATM   21  C   UNL     1      -8.593  14.548  65.860  1.00  0.00     1.048 C  
HETATM   22  C   UNL     1      -8.012  14.088  67.200  1.00  0.00    -0.059 C  
HETATM   23  C   UNL     1     -10.785  15.061  66.963  1.00  0.00    -0.304 C  
HETATM   24  H1  UNL     1     -12.285  13.646  66.883  1.00  0.00     0.000 HD 
HETATM   25  H2  UNL     1     -10.938  13.259  65.941  1.00  0.00     0.000 HD 
ENDBRANCH   6  17
BRANCH  16  26
HETATM   26  C   UNL     1      -8.851   6.583  70.012  1.00  0.00    -0.144 C  
BRANCH  26  27
HETATM   27  C   UNL     1      -8.336   5.652  68.888  1.00  0.00    -0.103 A  
HETATM   28  N   UNL     1      -7.426   4.701  69.215  1.00  0.00    -0.055 NA 
HETATM   29  C   UNL     1      -6.817   4.013  68.224  1.00  0.00    -0.047 A  
HETATM   30  C   UNL     1      -7.083   4.258  66.869  1.00  0.00    -0.067 A  
HETATM   31  C   UNL     1      -6.349   3.543  65.868  1.00  0.00    -0.032 A  
HETATM   32  C   UNL     1      -8.071   5.223  66.631  1.00  0.00    -0.105 A  
HETATM   33  C   UNL     1      -5.388   2.592  66.202  1.00  0.00    -0.012 A  
HETATM   34  C   UNL     1      -8.443   5.670  65.246  1.00  0.00    -0.147 C  
HETATM   35  N   UNL     1      -8.709   5.893  67.619  1.00  0.00    -0.105 NA 
HETATM   36  C   UNL     1      -5.151   2.327  67.540  1.00  0.00    -0.008 A  
HETATM   37  C   UNL     1      -5.863   3.035  68.523  1.00  0.00    -0.023 A  
ENDBRANCH  26  27
ENDBRANCH  16  26
ENDBRANCH   4   5
ENDBRANCH   3   4
TORSDOF 5
ENDMDL
MODEL      210
REMARK 921   NORMALIZED FREE ENERGY PREDICTED BY IDOCK:   -0.83 KCAL/MOL
REMARK 922        TOTAL FREE ENERGY PREDICTED BY IDOCK:   -1.57 KCAL/MOL
REMARK 923 INTER-LIGAND FREE ENERGY PREDICTED BY IDOCK:   -2.13 KCAL/MOL
REMARK 924 INTRA-LIGAND FREE ENERGY PREDICTED BY IDOCK:    0.56 KCAL/MOL
REMARK 927      BINDING AFFINITY PREDICTED BY RF-SCORE:    0.00 PKD
ROOT
HETATM    1  C   UNL     1      -5.751  13.861  72.485  1.00  0.00     0.039 C  
HETATM    2  C   UNL     1      -5.702  12.647  71.572  1.00  0.00     0.391 C  
HETATM    3  C   UNL     1      -5.660  11.605  70.788  1.00  0.00    -0.113 C  
ENDROOT
BRANCH   3   4
HETATM    4  C   UNL     1      -5.611  10.391  69.875  1.00  0.00    -0.046 C  
BRANCH   4   5
HETATM    5  N   UNL     1      -6.624  10.638  68.778  1.00  0.00    -0.052 NA 
HETATM    6  C   UNL     1      -7.010  11.891  68.240  1.00  0.00    -0.077 A  
HETATM    7  N   UNL     1      -7.802  11.723  67.199  1.00  0.00    -0.160 NA 
HETATM    8  N   UNL     1      -8.751   9.804  66.087  1.00  0.00    -0.134 N  
HETATM    9  C   UNL     1      -8.014  10.395  67.095  1.00  0.00    -0.115 A  
HETATM   10  O   UNL     1      -9.102   7.852  64.955  1.00  0.00     0.219 OA 
HETATM   11  C   UNL     1      -7.367   9.674  68.064  1.00  0.00    -0.082 A  
HETATM   12  C   UNL     1      -9.378  10.611  65.055  1.00  0.00    -0.217 C  
HETATM   13  C   UNL     1      -7.555   8.248  68.148  1.00  0.00    -0.098 C  
HETATM   14  C   UNL     1      -8.788   8.423  66.006  1.00  0.00    -0.167 C  
HETATM   15  O   UNL     1      -6.987   7.558  68.988  1.00  0.00    -0.068 OA 
HETATM   16  N   UNL     1      -8.415   7.716  67.160  1.00  0.00    -0.120 N  
BRANCH   6  17
HETATM   17  N   UNL     1      -6.568  13.125  68.630  1.00  0.00    -0.085 NA 
HETATM   18  N   UNL     1      -8.500  14.995  66.908  1.00  0.00    -0.260 NA 
HETATM   19  C   UNL     1      -6.325  15.891  67.650  1.00  0.00    -0.189 C  
HETATM   20  C   UNL     1      -7.519  14.162  69.069  1.00  0.00    -0.082 C  
HETATM   21  C   UNL     1      -5.480  14.780  67.044  1.00  0.00     1.154 C  
HETATM   22  C   UNL     1      -5.307  13.614  68.021  1.00  0.00    -0.112 C  
HETATM   23  C   UNL     1      -7.689  15.351  68.081  1.00  0.00    -0.124 C  
HETATM   24  H1  UNL     1      -9.410  14.635  67.195  1.00  0.00     0.000 HD 
HETATM   25  H2  UNL     1      -8.011  14.344  66.293  1.00  0.00     0.000 HD 
ENDBRANCH   6  17
BRANCH  16  26
HETATM   26  C   UNL     1      -8.705   6.261  67.116  1.00  0.00    -0.109 C  
BRANCH  26  27
HETATM   27  C   UNL     1      -8.729   5.501  68.464  1.00  0.00    -0.105 A  
HETATM   28  N   UNL     1      -9.724   5.789  69.340  1.00  0.00    -0.148 NA 
HETATM   29  C   UNL     1      -9.654   5.289  70.594  1.00  0.00    -0.176 A  
HETATM   30  C   UNL     1      -8.582   4.494  71.024  1.00  0.00    -0.126 A  
HETATM   31  C   UNL     1      -8.533   4.057  72.387  1.00  0.00    -0.101 A  
HETATM   32  C   UNL     1      -7.629   4.211  70.036  1.00  0.00    -0.052 A  
HETATM   33  C   UNL     1      -9.535   4.381  73.298  1.00  0.00    -0.135 A  
HETATM   34  C   UNL     1      -6.375   3.434  70.325  1.00  0.00    -0.028 C  
HETATM   35  N   UNL     1      -7.708   4.681  68.769  1.00  0.00    -0.071 NA 
HETATM   36  C   UNL     1     -10.610   5.138  72.862  1.00  0.00    -0.280 A  
HETATM   37  C   UNL     1     -10.654   5.576  71.529  1.00  0.00    -0.302 A  
ENDBRANCH  26  27
ENDBRANCH  16  26
ENDBRANCH   4   5
ENDBRANCH   3   4
TORSDOF 5
ENDMDL
MODEL      211
REMARK 921   NORMALIZED FREE ENERGY PREDICTED BY IDOCK:   -0.50 KCAL/MOL
REMARK 922        TOTAL FREE ENERGY PREDICTED BY IDOCK:   -1.15 KCAL/MOL
REMARK 923 INTER-LIGAND FREE ENERGY PREDICTED BY IDOCK:   -5.84 KCAL/MOL
REMARK 924 INTRA-LIGAND FREE ENERGY PREDICTED BY IDOCK:    4.69 KCAL/MOL
REMARK 927      BINDING AFFINITY PREDICTED BY RF-SCORE:    0.00 PKD
ROOT
HETATM    1  C   UNL     1      -5.159   7.488  68.209  1.00  0.00    -0.025 C  
HETATM    2  C   UNL     1      -5.876   8.826  68.118  1.00  0.00    -0.042 C  
HETATM    3  C   UNL     1      -6.490   9.974  68.039  1.00  0.00    -0.058 C  
ENDROOT
BRANCH   3   4
HETATM    4  C   UNL     1      -7.206  11.311  67.948  1.00  0.00    -0.086 C  
BRANCH   4   5
HETATM    5  N   UNL     1      -8.664  11.041  68.254  1.00  0.00    -0.137 NA 
HETATM    6  C   UNL     1      -9.337   9.797  68.165  1.00  0.00    -0.128 A  
HETATM    7  N   UNL     1     -10.560   9.898  68.647  1.00  0.00    -0.209 NA 
HETATM    8  N   UNL     1     -11.874  11.700  69.565  1.00  0.00    -0.329 N  
HETATM    9  C   UNL     1     -10.734  11.196  68.970  1.00  0.00    -0.225 A  
HETATM   10  O   UNL     1     -12.697  13.424  70.816  1.00  0.00    -0.298 OA 
HETATM   11  C   UNL     1      -9.632  11.964  68.703  1.00  0.00    -0.093 A  
HETATM   12  C   UNL     1     -12.998  10.834  69.870  1.00  0.00     0.221 C  
HETATM   13  C   UNL     1      -9.679  13.390  68.910  1.00  0.00     0.129 C  
HETATM   14  C   UNL     1     -11.887  13.023  69.973  1.00  0.00    -0.285 C  
HETATM   15  O   UNL     1      -8.714  14.117  68.700  1.00  0.00    -0.176 OA 
HETATM   16  N   UNL     1     -10.913  13.863  69.410  1.00  0.00    -0.179 N  
BRANCH   6  17
HETATM   17  N   UNL     1      -8.810   8.604  67.753  1.00  0.00    -0.136 NA 
HETATM   18  N   UNL     1     -11.476   7.061  66.912  1.00  0.00    -0.498 NA 
HETATM   19  C   UNL     1      -9.488   5.746  67.544  1.00  0.00    -0.112 C  
HETATM   20  C   UNL     1      -9.195   8.018  66.457  1.00  0.00    -0.188 C  
HETATM   21  C   UNL     1      -9.293   6.395  68.907  1.00  0.00    -0.130 C  
HETATM   22  C   UNL     1      -8.410   7.642  68.809  1.00  0.00    -0.129 C  
HETATM   23  C   UNL     1     -10.086   6.747  66.555  1.00  0.00    -0.066 C  
HETATM   24  H1  UNL     1     -11.875   7.729  66.252  1.00  0.00     0.000 HD 
HETATM   25  H2  UNL     1     -11.555   7.387  67.875  1.00  0.00     0.000 HD 
ENDBRANCH   6  17
BRANCH  16  26
HETATM   26  C   UNL     1     -11.114  15.309  69.676  1.00  0.00    -0.276 C  
BRANCH  26  27
HETATM   27  C   UNL     1     -10.430  16.311  68.714  1.00  0.00    -0.282 A  
HETATM   28  N   UNL     1      -9.393  15.863  67.962  1.00  0.00    -0.200 NA 
HETATM   29  C   UNL     1      -8.657  16.760  67.268  1.00  0.00    -0.192 A  
HETATM   30  C   UNL     1      -8.918  18.137  67.311  1.00  0.00    -0.248 A  
HETATM   31  C   UNL     1      -8.054  19.039  66.611  1.00  0.00    -0.285 A  
HETATM   32  C   UNL     1     -10.036  18.498  68.076  1.00  0.00    -0.355 A  
HETATM   33  C   UNL     1      -6.968  18.585  65.866  1.00  0.00    -0.308 A  
HETATM   34  C   UNL     1     -10.432  19.930  68.297  1.00  0.00    -0.436 C  
HETATM   35  N   UNL     1     -10.799  17.603  68.747  1.00  0.00    -0.055 NA 
HETATM   36  C   UNL     1      -6.732  17.223  65.798  1.00  0.00     0.190 A  
HETATM   37  C   UNL     1      -7.572  16.337  66.493  1.00  0.00    -0.218 A  
ENDBRANCH  26  27
ENDBRANCH  16  26
ENDBRANCH   4   5
ENDBRANCH   3   4
TORSDOF 5
ENDMDL
MODEL      212
REMARK 921   NORMALIZED FREE ENERGY PREDICTED BY IDOCK:   -0.43 KCAL/MOL
REMARK 922        TOTAL FREE ENERGY PREDICTED BY IDOCK:   -1.06 KCAL/MOL
REMARK 923 INTER-LIGAND FREE ENERGY PREDICTED BY IDOCK:   -1.45 KCAL/MOL
REMARK 924 INTRA-LIGAND FREE ENERGY PREDICTED BY IDOCK:    0.39 KCAL/MOL
REMARK 927      BINDING AFFINITY PREDICTED BY RF-SCORE:    0.00 PKD
ROOT
HETATM    1  C   UNL     1     -11.685   5.735  66.158  1.00  0.00     1.752 C  
HETATM    2  C   UNL     1     -10.889   6.017  67.423  1.00  0.00    -0.394 C  
HETATM    3  C   UNL     1     -10.207   6.258  68.508  1.00  0.00    -0.205 C  
ENDROOT
BRANCH   3   4
HETATM    4  C   UNL     1      -9.412   6.540  69.772  1.00  0.00    -0.150 C  
BRANCH   4   5
HETATM    5  N   UNL     1      -8.332   7.529  69.389  1.00  0.00    -0.130 NA 
HETATM    6  C   UNL     1      -6.933   7.367  69.547  1.00  0.00    -0.057 A  
HETATM    7  N   UNL     1      -6.285   8.361  68.970  1.00  0.00    -0.043 NA 
HETATM    8  N   UNL     1      -6.952  10.359  67.794  1.00  0.00    -0.082 N  
HETATM    9  C   UNL     1      -7.227   9.214  68.514  1.00  0.00    -0.073 A  
HETATM   10  O   UNL     1      -7.828  11.877  66.330  1.00  0.00    -0.003 OA 
HETATM   11  C   UNL     1      -8.502   8.793  68.786  1.00  0.00    -0.129 A  
HETATM   12  C   UNL     1      -5.583  10.736  67.492  1.00  0.00    -0.044 C  
HETATM   13  C   UNL     1      -9.625   9.629  68.443  1.00  0.00    -0.144 C  
HETATM   14  C   UNL     1      -8.004  11.085  67.263  1.00  0.00    -0.126 C  
HETATM   15  O   UNL     1     -10.785   9.291  68.652  1.00  0.00    -0.209 OA 
HETATM   16  N   UNL     1      -9.273  10.845  67.813  1.00  0.00    -0.151 N  
BRANCH   6  17
HETATM   17  N   UNL     1      -6.285   6.301  70.106  1.00  0.00    -0.030 NA 
HETATM   18  N   UNL     1      -7.766   3.891  68.625  1.00  0.00    -0.060 NA 
HETATM   19  C   UNL     1      -6.706   3.474  70.812  1.00  0.00    -0.032 C  
HETATM   20  C   UNL     1      -5.733   5.228  69.261  1.00  0.00    -0.015 C  
HETATM   21  C   UNL     1      -7.444   4.574  71.560  1.00  0.00    -0.069 C  
HETATM   22  C   UNL     1      -6.694   5.906  71.476  1.00  0.00    -0.055 C  
HETATM   23  C   UNL     1      -6.489   3.872  69.352  1.00  0.00    -0.033 C  
HETATM   24  H1  UNL     1      -7.622   4.157  67.651  1.00  0.00     0.000 HD 
HETATM   25  H2  UNL     1      -8.453   4.489  69.083  1.00  0.00     0.000 HD 
ENDBRANCH   6  17
BRANCH  16  26
HETATM   26  C   UNL     1     -10.321  11.811  67.398  1.00  0.00    -0.204 C  
BRANCH  26  27
HETATM   27  C   UNL     1     -11.297  12.313  68.489  1.00  0.00    -0.286 A  
HETATM   28  N   UNL     1     -11.037  13.509  69.075  1.00  0.00    -0.257 NA 
HETATM   29  C   UNL     1     -11.755  13.873  70.160  1.00  0.00    -0.244 A  
HETATM   30  C   UNL     1     -12.749  13.052  70.711  1.00  0.00    -0.243 A  
HETATM   31  C   UNL     1     -13.422  13.466  71.906  1.00  0.00    -0.526 A  
HETATM   32  C   UNL     1     -12.978  11.859  70.011  1.00  0.00     0.634 A  
HETATM   33  C   UNL     1     -13.132  14.678  72.528  1.00  0.00    -0.503 A  
HETATM   34  C   UNL     1     -13.953  10.820  70.487  1.00  0.00     1.852 C  
HETATM   35  N   UNL     1     -12.286  11.502  68.904  1.00  0.00    -0.350 NA 
HETATM   36  C   UNL     1     -12.174  15.503  71.964  1.00  0.00    -0.484 A  
HETATM   37  C   UNL     1     -11.506  15.093  70.798  1.00  0.00    -0.350 A  
ENDBRANCH  26  27
ENDBRANCH  16  26
ENDBRANCH   4   5
ENDBRANCH   3   4
TORSDOF 5
ENDMDL
MODEL      213
REMARK 921   NORMALIZED FREE ENERGY PREDICTED BY IDOCK:    1.30 KCAL/MOL
REMARK 922        TOTAL FREE ENERGY PREDICTED BY IDOCK:    1.17 KCAL/MOL
REMARK 923 INTER-LIGAND FREE ENERGY PREDICTED BY IDOCK:   -0.04 KCAL/MOL
REMARK 924 INTRA-LIGAND FREE ENERGY PREDICTED BY IDOCK:    1.22 KCAL/MOL
REMARK 927      BINDING AFFINITY PREDICTED BY RF-SCORE:    0.00 PKD
ROOT
HETATM    1  C   UNL     1      -6.421  16.056  67.177  1.00  0.00    -0.145 C  
HETATM    2  C   UNL     1      -7.055  14.753  66.719  1.00  0.00     1.001 C  
HETATM    3  C   UNL     1      -7.599  13.634  66.326  1.00  0.00     2.257 C  
ENDROOT
BRANCH   3   4
HETATM    4  C   UNL     1      -8.234  12.332  65.869  1.00  0.00     0.850 C  
BRANCH   4   5
HETATM    5  N   UNL     1      -9.145  11.880  66.990  1.00  0.00    -0.185 NA 
HETATM    6  C   UNL     1     -10.232  12.600  67.547  1.00  0.00    -0.215 A  
HETATM    7  N   UNL     1     -10.895  11.846  68.402  1.00  0.00    -0.216 NA 
HETATM    8  N   UNL     1     -10.629   9.598  69.238  1.00  0.00    -0.213 N  
HETATM    9  C   UNL     1     -10.220  10.681  68.484  1.00  0.00    -0.175 A  
HETATM   10  O   UNL     1     -10.436   7.336  69.479  1.00  0.00    -0.218 OA 
HETATM   11  C   UNL     1      -9.105  10.654  67.687  1.00  0.00    -0.142 A  
HETATM   12  C   UNL     1     -11.844   9.662  70.029  1.00  0.00     0.045 C  
HETATM   13  C   UNL     1      -8.223   9.515  67.719  1.00  0.00    -0.114 C  
HETATM   14  C   UNL     1      -9.927   8.410  69.139  1.00  0.00    -0.196 C  
HETATM   15  O   UNL     1      -7.222   9.438  67.014  1.00  0.00    -0.085 OA 
HETATM   16  N   UNL     1      -8.633   8.488  68.599  1.00  0.00    -0.134 N  
BRANCH   6  17
HETATM   17  N   UNL     1     -10.650  13.856  67.204  1.00  0.00    -0.276 NA 
HETATM   18  N   UNL     1      -9.766  15.484  69.805  1.00  0.00    -0.354 NA 
HETATM   19  C   UNL     1     -11.598  16.368  68.411  1.00  0.00    -0.071 C  
HETATM   20  C   UNL     1      -9.746  15.012  67.334  1.00  0.00    -0.216 C  
HETATM   21  C   UNL     1     -12.458  15.114  68.463  1.00  0.00     0.337 C  
HETATM   22  C   UNL     1     -12.099  14.144  67.335  1.00  0.00    -0.344 C  
HETATM   23  C   UNL     1     -10.115  16.003  68.475  1.00  0.00    -0.233 C  
HETATM   24  H1  UNL     1      -8.777  15.239  69.848  1.00  0.00     0.000 HD 
HETATM   25  H2  UNL     1     -10.361  14.700  70.074  1.00  0.00     0.000 HD 
ENDBRANCH   6  17
BRANCH  16  26
HETATM   26  C   UNL     1      -7.828   7.249  68.740  1.00  0.00    -0.121 C  
BRANCH  26  27
HETATM   27  C   UNL     1      -7.475   6.790  70.176  1.00  0.00    -0.094 A  
HETATM   28  N   UNL     1      -7.603   5.472  70.472  1.00  0.00    -0.082 NA 
HETATM   29  C   UNL     1      -7.494   5.080  71.762  1.00  0.00    -0.095 A  
HETATM   30  C   UNL     1      -7.270   5.990  72.804  1.00  0.00    -0.089 A  
HETATM   31  C   UNL     1      -7.238   5.518  74.156  1.00  0.00    -0.082 A  
HETATM   32  C   UNL     1      -7.104   7.321  72.395  1.00  0.00    -0.067 A  
HETATM   33  C   UNL     1      -7.404   4.170  74.466  1.00  0.00    -0.071 A  
HETATM   34  C   UNL     1      -6.924   8.447  73.373  1.00  0.00    -0.119 C  
HETATM   35  N   UNL     1      -7.178   7.717  71.103  1.00  0.00    -0.061 NA 
HETATM   36  C   UNL     1      -7.592   3.269  73.432  1.00  0.00    -0.057 A  
HETATM   37  C   UNL     1      -7.634   3.732  72.106  1.00  0.00    -0.062 A  
ENDBRANCH  26  27
ENDBRANCH  16  26
ENDBRANCH   4   5
ENDBRANCH   3   4
TORSDOF 5
ENDMDL
MODEL      214
REMARK 921   NORMALIZED FREE ENERGY PREDICTED BY IDOCK:    2.59 KCAL/MOL
REMARK 922        TOTAL FREE ENERGY PREDICTED BY IDOCK:    2.84 KCAL/MOL
REMARK 923 INTER-LIGAND FREE ENERGY PREDICTED BY IDOCK:   -1.39 KCAL/MOL
REMARK 924 INTRA-LIGAND FREE ENERGY PREDICTED BY IDOCK:    4.24 KCAL/MOL
REMARK 927      BINDING AFFINITY PREDICTED BY RF-SCORE:    0.00 PKD
ROOT
HETATM    1  C   UNL     1      -9.437  17.699  65.009  1.00  0.00     2.568 C  
HETATM    2  C   UNL     1      -9.487  16.704  66.158  1.00  0.00    -0.319 C  
HETATM    3  C   UNL     1      -9.529  15.851  67.143  1.00  0.00    -0.221 C  
ENDROOT
BRANCH   3   4
HETATM    4  C   UNL     1      -9.579  14.858  68.292  1.00  0.00    -0.214 C  
BRANCH   4   5
HETATM    5  N   UNL     1      -8.505  13.828  68.016  1.00  0.00    -0.165 NA 
HETATM    6  C   UNL     1      -7.110  14.058  67.908  1.00  0.00    -0.160 A  
HETATM    7  N   UNL     1      -6.459  12.915  67.811  1.00  0.00    -0.126 NA 
HETATM    8  N   UNL     1      -7.116  10.596  67.720  1.00  0.00    -0.082 N  
HETATM    9  C   UNL     1      -7.398  11.947  67.765  1.00  0.00    -0.109 A  
HETATM   10  O   UNL     1      -7.961   8.517  68.144  1.00  0.00    -0.108 OA 
HETATM   11  C   UNL     1      -8.675  12.439  67.829  1.00  0.00    -0.176 A  
HETATM   12  C   UNL     1      -5.743  10.123  67.701  1.00  0.00    -0.045 C  
HETATM   13  C   UNL     1      -9.799  11.546  67.706  1.00  0.00    -0.177 C  
HETATM   14  C   UNL     1      -8.159   9.691  67.811  1.00  0.00    -0.113 C  
HETATM   15  O   UNL     1     -10.960  11.936  67.772  1.00  0.00    -0.206 OA 
HETATM   16  N   UNL     1      -9.446  10.187  67.544  1.00  0.00    -0.151 N  
BRANCH   6  17
HETATM   17  N   UNL     1      -6.465  15.260  68.000  1.00  0.00    -0.126 NA 
HETATM   18  N   UNL     1      -5.851  15.343  71.132  1.00  0.00     0.167 NA 
HETATM   19  C   UNL     1      -5.983  17.468  69.887  1.00  0.00    -0.223 C  
HETATM   20  C   UNL     1      -5.179  15.373  68.709  1.00  0.00    -0.098 C  
HETATM   21  C   UNL     1      -7.373  17.232  69.315  1.00  0.00    -0.078 C  
HETATM   22  C   UNL     1      -7.307  16.481  67.982  1.00  0.00    -0.144 C  
HETATM   23  C   UNL     1      -5.243  16.141  70.059  1.00  0.00    -0.144 C  
HETATM   24  H1  UNL     1      -5.358  14.458  71.247  1.00  0.00     0.000 HD 
HETATM   25  H2  UNL     1      -6.850  15.202  70.979  1.00  0.00     0.000 HD 
ENDBRANCH   6  17
BRANCH  16  26
HETATM   26  C   UNL     1     -10.495   9.146  67.407  1.00  0.00    -0.271 C  
BRANCH  26  27
HETATM   27  C   UNL     1     -10.053   7.755  66.891  1.00  0.00    -0.286 A  
HETATM   28  N   UNL     1     -10.486   6.659  67.563  1.00  0.00    -0.204 NA 
HETATM   29  C   UNL     1      -9.957   5.454  67.256  1.00  0.00    -0.171 A  
HETATM   30  C   UNL     1      -8.965   5.299  66.277  1.00  0.00    -0.133 A  
HETATM   31  C   UNL     1      -8.395   4.005  66.051  1.00  0.00    -0.109 A  
HETATM   32  C   UNL     1      -8.617   6.479  65.604  1.00  0.00    -0.126 A  
HETATM   33  C   UNL     1      -8.813   2.885  66.765  1.00  0.00    -0.153 A  
HETATM   34  C   UNL     1      -7.525   6.525  64.573  1.00  0.00    -0.090 C  
HETATM   35  N   UNL     1      -9.166   7.684  65.883  1.00  0.00    -0.063 NA 
HETATM   36  C   UNL     1      -9.816   3.034  67.708  1.00  0.00     0.315 A  
HETATM   37  C   UNL     1     -10.370   4.305  67.937  1.00  0.00     0.346 A  
ENDBRANCH  26  27
ENDBRANCH  16  26
ENDBRANCH   4   5
ENDBRANCH   3   4
TORSDOF 5
ENDMDL
MODEL      215
REMARK 921   NORMALIZED FREE ENERGY PREDICTED BY IDOCK:    3.23 KCAL/MOL
REMARK 922        TOTAL FREE ENERGY PREDICTED BY IDOCK:    3.67 KCAL/MOL
REMARK 923 INTER-LIGAND FREE ENERGY PREDICTED BY IDOCK:    0.19 KCAL/MOL
REMARK 924 INTRA-LIGAND FREE ENERGY PREDICTED BY IDOCK:    3.48 KCAL/MOL
REMARK 927      BINDING AFFINITY PREDICTED BY RF-SCORE:    0.00 PKD
ROOT
HETATM    1  C   UNL     1      -9.146   7.841  73.417  1.00  0.00    -0.336 C  
HETATM    2  C   UNL     1      -9.273   8.086  71.922  1.00  0.00    -0.222 C  
HETATM    3  C   UNL     1      -9.382   8.297  70.640  1.00  0.00    -0.172 C  
ENDROOT
BRANCH   3   4
HETATM    4  C   UNL     1      -9.509   8.543  69.145  1.00  0.00    -0.154 C  
BRANCH   4   5
HETATM    5  N   UNL     1      -8.295   9.351  68.738  1.00  0.00    -0.115 NA 
HETATM    6  C   UNL     1      -7.043   8.849  68.305  1.00  0.00    -0.078 A  
HETATM    7  N   UNL     1      -6.269   9.833  67.891  1.00  0.00    -0.051 NA 
HETATM    8  N   UNL     1      -6.498  12.232  67.773  1.00  0.00    -0.092 N  
HETATM    9  C   UNL     1      -6.950  10.974  68.123  1.00  0.00    -0.069 A  
HETATM   10  O   UNL     1      -7.155  14.372  67.324  1.00  0.00    -0.163 OA 
HETATM   11  C   UNL     1      -8.177  10.756  68.693  1.00  0.00    -0.139 A  
HETATM   12  C   UNL     1      -5.209  12.405  67.128  1.00  0.00    -0.009 C  
HETATM   13  C   UNL     1      -8.999  11.874  69.085  1.00  0.00     0.488 C  
HETATM   14  C   UNL     1      -7.341  13.316  67.939  1.00  0.00    -0.134 C  
HETATM   15  O   UNL     1     -10.110  11.730  69.584  1.00  0.00     0.427 OA 
HETATM   16  N   UNL     1      -8.431  13.138  68.807  1.00  0.00     0.053 N  
BRANCH   6  17
HETATM   17  N   UNL     1      -6.673   7.537  68.201  1.00  0.00    -0.057 NA 
HETATM   18  N   UNL     1      -6.587   7.216  65.025  1.00  0.00    -0.046 NA 
HETATM   19  C   UNL     1      -6.944   5.211  66.416  1.00  0.00    -0.067 C  
HETATM   20  C   UNL     1      -5.562   7.134  67.321  1.00  0.00    -0.024 C  
HETATM   21  C   UNL     1      -8.152   5.751  67.168  1.00  0.00    -0.102 C  
HETATM   22  C   UNL     1      -7.729   6.518  68.424  1.00  0.00    -0.105 C  
HETATM   23  C   UNL     1      -5.990   6.347  66.050  1.00  0.00    -0.025 C  
HETATM   24  H1  UNL     1      -5.951   7.974  64.781  1.00  0.00     0.000 HD 
HETATM   25  H2  UNL     1      -7.501   7.566  65.312  1.00  0.00     0.000 HD 
ENDBRANCH   6  17
BRANCH  16  26
HETATM   26  C   UNL     1      -9.160  14.384  69.152  1.00  0.00     0.093 C  
BRANCH  26  27
HETATM   27  C   UNL     1      -8.656  15.701  68.514  1.00  0.00    -0.180 A  
HETATM   28  N   UNL     1      -9.459  16.320  67.613  1.00  0.00    -0.220 NA 
HETATM   29  C   UNL     1      -8.962  17.355  66.899  1.00  0.00    -0.245 A  
HETATM   30  C   UNL     1      -7.641  17.802  67.048  1.00  0.00    -0.228 A  
HETATM   31  C   UNL     1      -7.157  18.856  66.209  1.00  0.00    -0.268 A  
HETATM   32  C   UNL     1      -6.905  17.133  68.035  1.00  0.00    -0.169 A  
HETATM   33  C   UNL     1      -7.969  19.469  65.258  1.00  0.00     0.715 A  
HETATM   34  C   UNL     1      -5.453  17.423  68.292  1.00  0.00    -0.144 C  
HETATM   35  N   UNL     1      -7.405  16.117  68.777  1.00  0.00    -0.172 NA 
HETATM   36  C   UNL     1      -9.283  19.049  65.136  1.00  0.00     2.199 A  
HETATM   37  C   UNL     1      -9.757  18.008  65.951  1.00  0.00     0.004 A  
ENDBRANCH  26  27
ENDBRANCH  16  26
ENDBRANCH   4   5
ENDBRANCH   3   4
TORSDOF 5
ENDMDL
MODEL      216
REMARK 921   NORMALIZED FREE ENERGY PREDICTED BY IDOCK:    5.65 KCAL/MOL
REMARK 922        TOTAL FREE ENERGY PREDICTED BY IDOCK:    6.80 KCAL/MOL
REMARK 923 INTER-LIGAND FREE ENERGY PREDICTED BY IDOCK:    2.06 KCAL/MOL
REMARK 924 INTRA-LIGAND FREE ENERGY PREDICTED BY IDOCK:    4.74 KCAL/MOL
REMARK 927      BINDING AFFINITY PREDICTED BY RF-SCORE:    0.00 PKD
ROOT
HETATM    1  C   UNL     1      -7.036   5.401  66.256  1.00  0.00    -0.072 C  
HETATM    2  C   UNL     1      -7.720   6.756  66.159  1.00  0.00    -0.091 C  
HETATM    3  C   UNL     1      -8.306   7.917  66.077  1.00  0.00    -0.128 C  
ENDROOT
BRANCH   3   4
HETATM    4  C   UNL     1      -8.988   9.272  65.980  1.00  0.00    -0.176 C  
BRANCH   4   5
HETATM    5  N   UNL     1     -10.015   9.317  67.092  1.00  0.00    -0.200 NA 
HETATM    6  C   UNL     1     -10.855  10.406  67.433  1.00  0.00    -0.286 A  
HETATM    7  N   UNL     1     -11.727  10.045  68.354  1.00  0.00     0.021 NA 
HETATM    8  N   UNL     1     -12.146   8.014  69.586  1.00  0.00     1.049 N  
HETATM    9  C   UNL     1     -11.423   8.774  68.688  1.00  0.00     0.926 A  
HETATM   10  O   UNL     1     -12.627   5.877  70.231  1.00  0.00     1.562 OA 
HETATM   11  C   UNL     1     -10.349   8.283  67.993  1.00  0.00    -0.213 A  
HETATM   12  C   UNL     1     -13.306   8.566  70.262  1.00  0.00     1.671 C  
HETATM   13  C   UNL     1      -9.838   6.968  68.289  1.00  0.00    -0.144 C  
HETATM   14  C   UNL     1     -11.819   6.679  69.748  1.00  0.00    -0.095 C  
HETATM   15  O   UNL     1      -8.889   6.480  67.685  1.00  0.00    -0.115 OA 
HETATM   16  N   UNL     1     -10.548   6.284  69.301  1.00  0.00    -0.241 N  
BRANCH   6  17
HETATM   17  N   UNL     1     -10.881  11.640  66.846  1.00  0.00    -0.263 NA 
HETATM   18  N   UNL     1     -10.771  13.507  69.434  1.00  0.00    -0.444 NA 
HETATM   19  C   UNL     1     -11.751  14.407  67.358  1.00  0.00    -0.424 C  
HETATM   20  C   UNL     1      -9.903  12.675  67.225  1.00  0.00    -0.206 C  
HETATM   21  C   UNL     1     -12.776  13.298  67.171  1.00  0.00     0.745 C  
HETATM   22  C   UNL     1     -12.196  12.132  66.365  1.00  0.00     0.334 C  
HETATM   23  C   UNL     1     -10.493  13.864  68.036  1.00  0.00    -0.243 C  
HETATM   24  H1  UNL     1      -9.931  13.144  69.887  1.00  0.00     0.000 HD 
HETATM   25  H2  UNL     1     -11.553  12.856  69.511  1.00  0.00     0.000 HD 
ENDBRANCH   6  17
BRANCH  16  26
HETATM   26  C   UNL     1     -10.142   4.918  69.716  1.00  0.00    -0.249 C  
BRANCH  26  27
HETATM   27  C   UNL     1      -8.816   4.778  70.500  1.00  0.00    -0.107 A  
HETATM   28  N   UNL     1      -8.793   5.193  71.792  1.00  0.00    -0.133 NA 
HETATM   29  C   UNL     1      -7.605   5.267  72.432  1.00  0.00    -0.097 A  
HETATM   30  C   UNL     1      -6.394   4.943  71.804  1.00  0.00    -0.030 A  
HETATM   31  C   UNL     1      -5.164   5.112  72.517  1.00  0.00    -0.008 A  
HETATM   32  C   UNL     1      -6.523   4.479  70.488  1.00  0.00    -0.034 A  
HETATM   33  C   UNL     1      -5.135   5.572  73.832  1.00  0.00    -0.022 A  
HETATM   34  C   UNL     1      -5.334   4.150  69.630  1.00  0.00    -0.008 C  
HETATM   35  N   UNL     1      -7.712   4.371  69.850  1.00  0.00    -0.053 NA 
HETATM   36  C   UNL     1      -6.334   5.860  74.461  1.00  0.00    -0.074 A  
HETATM   37  C   UNL     1      -7.541   5.704  73.760  1.00  0.00    -0.097 A  
ENDBRANCH  26  27
ENDBRANCH  16  26
ENDBRANCH   4   5
ENDBRANCH   3   4
TORSDOF 5
ENDMDL
MODEL      217
REMARK 921   NORMALIZED FREE ENERGY PREDICTED BY IDOCK:    6.01 KCAL/MOL
REMARK 922        TOTAL FREE ENERGY PREDICTED BY IDOCK:    7.26 KCAL/MOL
REMARK 923 INTER-LIGAND FREE ENERGY PREDICTED BY IDOCK:    4.30 KCAL/MOL
REMARK 924 INTRA-LIGAND FREE ENERGY PREDICTED BY IDOCK:    2.96 KCAL/MOL
REMARK 927      BINDING AFFINITY PREDICTED BY RF-SCORE:    0.00 PKD
ROOT
HETATM    1  C   UNL     1     -12.604  18.357  66.316  1.00  0.00     7.774 C  
HETATM    2  C   UNL     1     -11.535  17.284  66.179  1.00  0.00     1.359 C  
HETATM    3  C   UNL     1     -10.618  16.364  66.063  1.00  0.00    -0.275 C  
ENDROOT
BRANCH   3   4
HETATM    4  C   UNL     1      -9.549  15.292  65.926  1.00  0.00    -0.342 C  
BRANCH   4   5
HETATM    5  N   UNL     1      -8.607  15.473  67.096  1.00  0.00    -0.198 NA 
HETATM    6  C   UNL     1      -8.303  16.684  67.767  1.00  0.00    -0.178 A  
HETATM    7  N   UNL     1      -7.560  16.450  68.831  1.00  0.00    -0.209 NA 
HETATM    8  N   UNL     1      -6.589  14.473  69.815  1.00  0.00    -0.153 N  
HETATM    9  C   UNL     1      -7.297  15.127  68.825  1.00  0.00    -0.131 A  
HETATM   10  O   UNL     1      -6.214  12.438  70.781  1.00  0.00    -0.171 OA 
HETATM   11  C   UNL     1      -7.861  14.476  67.760  1.00  0.00    -0.161 A  
HETATM   12  C   UNL     1      -6.051  15.202  70.949  1.00  0.00     0.157 C  
HETATM   13  C   UNL     1      -7.607  13.071  67.556  1.00  0.00    -0.165 C  
HETATM   14  C   UNL     1      -6.497  13.092  69.771  1.00  0.00    -0.009 C  
HETATM   15  O   UNL     1      -8.101  12.442  66.627  1.00  0.00    -0.055 OA 
HETATM   16  N   UNL     1      -6.778  12.483  68.538  1.00  0.00    -0.072 N  
BRANCH   6  17
HETATM   17  N   UNL     1      -8.776  17.932  67.468  1.00  0.00    -0.242 NA 
HETATM   18  N   UNL     1      -6.229  19.173  65.996  1.00  0.00    -0.176 NA 
HETATM   19  C   UNL     1      -7.855  20.697  67.052  1.00  0.00    -0.307 C  
HETATM   20  C   UNL     1      -8.645  18.481  66.107  1.00  0.00    -0.126 C  
HETATM   21  C   UNL     1      -7.794  20.063  68.434  1.00  0.00    -0.197 C  
HETATM   22  C   UNL     1      -8.808  18.924  68.570  1.00  0.00    -0.352 C  
HETATM   23  C   UNL     1      -7.621  19.643  65.969  1.00  0.00    -0.321 C  
HETATM   24  H1  UNL     1      -6.073  18.470  65.273  1.00  0.00     0.000 HD 
HETATM   25  H2  UNL     1      -5.963  18.832  66.919  1.00  0.00     0.000 HD 
ENDBRANCH   6  17
BRANCH  16  26
HETATM   26  C   UNL     1      -6.429  11.042  68.465  1.00  0.00    -0.054 C  
BRANCH  26  27
HETATM   27  C   UNL     1      -6.795  10.287  67.165  1.00  0.00    -0.082 A  
HETATM   28  N   UNL     1      -7.491   9.128  67.276  1.00  0.00    -0.087 NA 
HETATM   29  C   UNL     1      -7.648   8.354  66.178  1.00  0.00    -0.089 A  
HETATM   30  C   UNL     1      -7.104   8.700  64.933  1.00  0.00    -0.080 A  
HETATM   31  C   UNL     1      -7.245   7.800  63.829  1.00  0.00    -0.089 A  
HETATM   32  C   UNL     1      -6.444   9.937  64.906  1.00  0.00    -0.111 A  
HETATM   33  C   UNL     1      -7.929   6.593  63.949  1.00  0.00    -0.075 A  
HETATM   34  C   UNL     1      -5.737  10.446  63.682  1.00  0.00    -0.138 C  
HETATM   35  N   UNL     1      -6.310  10.734  65.992  1.00  0.00    -0.131 NA 
HETATM   36  C   UNL     1      -8.494   6.268  65.171  1.00  0.00    -0.087 A  
HETATM   37  C   UNL     1      -8.348   7.146  66.258  1.00  0.00    -0.129 A  
ENDBRANCH  26  27
ENDBRANCH  16  26
ENDBRANCH   4   5
ENDBRANCH   3   4
TORSDOF 5
ENDMDL
MODEL      218
REMARK 921   NORMALIZED FREE ENERGY PREDICTED BY IDOCK:    6.17 KCAL/MOL
REMARK 922        TOTAL FREE ENERGY PREDICTED BY IDOCK:    7.47 KCAL/MOL
REMARK 923 INTER-LIGAND FREE ENERGY PREDICTED BY IDOCK:    3.89 KCAL/MOL
REMARK 924 INTRA-LIGAND FREE ENERGY PREDICTED BY IDOCK:    3.58 KCAL/MOL
REMARK 927      BINDING AFFINITY PREDICTED BY RF-SCORE:    0.00 PKD
ROOT
HETATM    1  C   UNL     1     -12.684  11.619  64.334  1.00  0.00     0.336 C  
HETATM    2  C   UNL     1     -11.865  11.662  65.615  1.00  0.00     0.172 C  
HETATM    3  C   UNL     1     -11.163  11.698  66.713  1.00  0.00    -0.371 C  
ENDROOT
BRANCH   3   4
HETATM    4  C   UNL     1     -10.344  11.741  67.993  1.00  0.00    -0.198 C  
BRANCH   4   5
HETATM    5  N   UNL     1     -11.333  11.690  69.138  1.00  0.00    -0.259 NA 
HETATM    6  C   UNL     1     -11.995  10.543  69.642  1.00  0.00    -0.208 A  
HETATM    7  N   UNL     1     -12.669  10.842  70.735  1.00  0.00    -0.349 NA 
HETATM    8  N   UNL     1     -13.052  12.869  71.987  1.00  0.00    -0.400 N  
HETATM    9  C   UNL     1     -12.536  12.173  70.911  1.00  0.00    -0.279 A  
HETATM   10  O   UNL     1     -12.847  14.778  73.222  1.00  0.00    -0.491 OA 
HETATM   11  C   UNL     1     -11.776  12.766  69.937  1.00  0.00    -0.251 A  
HETATM   12  C   UNL     1     -13.812  12.186  73.018  1.00  0.00     2.248 C  
HETATM   13  C   UNL     1     -11.604  14.197  69.927  1.00  0.00    -0.264 C  
HETATM   14  C   UNL     1     -12.738  14.209  72.131  1.00  0.00    -0.294 C  
HETATM   15  O   UNL     1     -10.921  14.772  69.086  1.00  0.00    -0.247 OA 
HETATM   16  N   UNL     1     -12.254  14.867  70.988  1.00  0.00    -0.294 N  
BRANCH   6  17
HETATM   17  N   UNL     1     -11.897   9.263  69.172  1.00  0.00     0.765 NA 
HETATM   18  N   UNL     1     -10.973   7.748  71.827  1.00  0.00    -0.233 NA 
HETATM   19  C   UNL     1     -10.426   6.755  69.637  1.00  0.00    -0.243 C  
HETATM   20  C   UNL     1     -12.531   8.145  69.893  1.00  0.00     1.555 C  
HETATM   21  C   UNL     1      -9.711   7.977  69.081  1.00  0.00    -0.163 C  
HETATM   22  C   UNL     1     -10.688   8.925  68.381  1.00  0.00    -0.076 C  
HETATM   23  C   UNL     1     -11.539   7.177  70.597  1.00  0.00    -0.314 C  
HETATM   24  H1  UNL     1     -11.715   8.030  72.467  1.00  0.00     0.000 HD 
HETATM   25  H2  UNL     1     -10.333   8.517  71.627  1.00  0.00     0.000 HD 
ENDBRANCH   6  17
BRANCH  16  26
HETATM   26  C   UNL     1     -12.168  16.343  71.113  1.00  0.00     0.325 C  
BRANCH  26  27
HETATM   27  C   UNL     1     -11.435  17.110  69.987  1.00  0.00     1.223 A  
HETATM   28  N   UNL     1     -11.585  16.668  68.713  1.00  0.00    -0.071 NA 
HETATM   29  C   UNL     1     -10.804  17.193  67.743  1.00  0.00    -0.270 A  
HETATM   30  C   UNL     1      -9.833  18.169  68.011  1.00  0.00    -0.331 A  
HETATM   31  C   UNL     1      -8.989  18.631  66.950  1.00  0.00    -0.296 A  
HETATM   32  C   UNL     1      -9.785  18.598  69.345  1.00  0.00     0.091 A  
HETATM   33  C   UNL     1      -9.118  18.152  65.649  1.00  0.00     0.681 A  
HETATM   34  C   UNL     1      -8.765  19.585  69.837  1.00  0.00     0.826 C  
HETATM   35  N   UNL     1     -10.586  18.100  70.315  1.00  0.00     1.260 NA 
HETATM   36  C   UNL     1     -10.099  17.213  65.380  1.00  0.00     0.157 A  
HETATM   37  C   UNL     1     -10.921  16.752  66.421  1.00  0.00     0.150 A  
ENDBRANCH  26  27
ENDBRANCH  16  26
ENDBRANCH   4   5
ENDBRANCH   3   4
TORSDOF 5
ENDMDL
MODEL      219
REMARK 921   NORMALIZED FREE ENERGY PREDICTED BY IDOCK:    7.36 KCAL/MOL
REMARK 922        TOTAL FREE ENERGY PREDICTED BY IDOCK:    9.01 KCAL/MOL
REMARK 923 INTER-LIGAND FREE ENERGY PREDICTED BY IDOCK:    9.66 KCAL/MOL
REMARK 924 INTRA-LIGAND FREE ENERGY PREDICTED BY IDOCK:   -0.65 KCAL/MOL
REMARK 927      BINDING AFFINITY PREDICTED BY RF-SCORE:    0.00 PKD
ROOT
HETATM    1  C   UNL     1     -11.962  11.971  69.769  1.00  0.00    -0.370 C  
HETATM    2  C   UNL     1     -11.665  12.614  68.423  1.00  0.00    -0.377 C  
HETATM    3  C   UNL     1     -11.410  13.165  67.270  1.00  0.00    -0.344 C  
ENDROOT
BRANCH   3   4
HETATM    4  C   UNL     1     -11.113  13.806  65.924  1.00  0.00    -0.286 C  
BRANCH   4   5
HETATM    5  N   UNL     1      -9.931  14.726  66.138  1.00  0.00    -0.287 NA 
HETATM    6  C   UNL     1      -9.909  16.136  65.989  1.00  0.00    -0.347 A  
HETATM    7  N   UNL     1      -8.756  16.626  66.400  1.00  0.00    -0.284 NA 
HETATM    8  N   UNL     1      -6.720  15.665  67.265  1.00  0.00    -0.177 N  
HETATM    9  C   UNL     1      -7.990  15.566  66.732  1.00  0.00    -0.179 A  
HETATM   10  O   UNL     1      -5.140  14.562  68.492  1.00  0.00    -0.091 OA 
HETATM   11  C   UNL     1      -8.627  14.368  66.543  1.00  0.00     0.099 A  
HETATM   12  C   UNL     1      -6.106  16.961  67.489  1.00  0.00    -0.147 C  
HETATM   13  C   UNL     1      -7.921  13.132  66.769  1.00  0.00     0.293 C  
HETATM   14  C   UNL     1      -6.082  14.513  67.692  1.00  0.00    -0.052 C  
HETATM   15  O   UNL     1      -8.452  12.036  66.629  1.00  0.00    -0.180 OA 
HETATM   16  N   UNL     1      -6.586  13.298  67.202  1.00  0.00     0.132 N  
BRANCH   6  17
HETATM   17  N   UNL     1     -10.943  16.937  65.591  1.00  0.00    -0.088 NA 
HETATM   18  N   UNL     1      -9.498  19.784  65.602  1.00  0.00    -0.334 NA 
HETATM   19  C   UNL     1     -11.948  19.691  65.863  1.00  0.00     3.027 C  
HETATM   20  C   UNL     1     -10.764  17.911  64.500  1.00  0.00     2.770 C  
HETATM   21  C   UNL     1     -11.946  18.749  67.058  1.00  0.00     2.654 C  
HETATM   22  C   UNL     1     -11.961  17.284  66.613  1.00  0.00     2.832 C  
HETATM   23  C   UNL     1     -10.758  19.399  64.950  1.00  0.00     1.513 C  
HETATM   24  H1  UNL     1      -8.703  19.590  64.993  1.00  0.00     0.000 HD 
HETATM   25  H2  UNL     1      -9.393  19.340  66.514  1.00  0.00     0.000 HD 
ENDBRANCH   6  17
BRANCH  16  26
HETATM   26  C   UNL     1      -5.731  12.116  67.478  1.00  0.00    -0.117 C  
BRANCH  26  27
HETATM   27  C   UNL     1      -6.427  10.846  68.023  1.00  0.00    -0.058 A  
HETATM   28  N   UNL     1      -6.564   9.786  67.188  1.00  0.00    -0.070 NA 
HETATM   29  C   UNL     1      -7.339   8.748  67.573  1.00  0.00    -0.081 A  
HETATM   30  C   UNL     1      -8.019   8.735  68.800  1.00  0.00    -0.106 A  
HETATM   31  C   UNL     1      -8.882   7.637  69.115  1.00  0.00    -0.139 A  
HETATM   32  C   UNL     1      -7.778   9.851  69.614  1.00  0.00    -0.149 A  
HETATM   33  C   UNL     1      -9.051   6.563  68.243  1.00  0.00    -0.119 A  
HETATM   34  C   UNL     1      -8.471  10.049  70.933  1.00  0.00     1.022 C  
HETATM   35  N   UNL     1      -6.978  10.879  69.250  1.00  0.00    -0.099 NA 
HETATM   36  C   UNL     1      -8.353   6.562  67.047  1.00  0.00    -0.113 A  
HETATM   37  C   UNL     1      -7.514   7.644  66.732  1.00  0.00    -0.093 A  
ENDBRANCH  26  27
ENDBRANCH  16  26
ENDBRANCH   4   5
ENDBRANCH   3   4
TORSDOF 5
ENDMDL
MODEL      220
REMARK 921   NORMALIZED FREE ENERGY PREDICTED BY IDOCK:    7.68 KCAL/MOL
REMARK 922        TOTAL FREE ENERGY PREDICTED BY IDOCK:    9.42 KCAL/MOL
REMARK 923 INTER-LIGAND FREE ENERGY PREDICTED BY IDOCK:    6.15 KCAL/MOL
REMARK 924 INTRA-LIGAND FREE ENERGY PREDICTED BY IDOCK:    3.27 KCAL/MOL
REMARK 927      BINDING AFFINITY PREDICTED BY RF-SCORE:    0.00 PKD
ROOT
HETATM    1  C   UNL     1      -9.154   7.843  73.430  1.00  0.00    -0.347 C  
HETATM    2  C   UNL     1      -9.405   8.214  71.977  1.00  0.00    -0.266 C  
HETATM    3  C   UNL     1      -9.620   8.532  70.731  1.00  0.00    -0.217 C  
ENDROOT
BRANCH   3   4
HETATM    4  C   UNL     1      -9.870   8.902  69.278  1.00  0.00    -0.176 C  
BRANCH   4   5
HETATM    5  N   UNL     1      -8.870   9.984  68.932  1.00  0.00    -0.139 NA 
HETATM    6  C   UNL     1      -7.581   9.804  68.368  1.00  0.00    -0.080 A  
HETATM    7  N   UNL     1      -7.045  10.970  68.062  1.00  0.00    -0.076 NA 
HETATM    8  N   UNL     1      -7.737  13.268  68.303  1.00  0.00    -0.133 N  
HETATM    9  C   UNL     1      -7.911  11.910  68.491  1.00  0.00    -0.137 A  
HETATM   10  O   UNL     1      -8.825  15.273  68.201  1.00  0.00    -0.166 OA 
HETATM   11  C   UNL     1      -9.026  11.378  69.084  1.00  0.00     0.215 A  
HETATM   12  C   UNL     1      -6.559  13.779  67.626  1.00  0.00    -0.168 C  
HETATM   13  C   UNL     1     -10.014  12.246  69.673  1.00  0.00     1.304 C  
HETATM   14  C   UNL     1      -8.757  14.130  68.666  1.00  0.00    -0.126 C  
HETATM   15  O   UNL     1     -11.034  11.818  70.202  1.00  0.00     0.181 OA 
HETATM   16  N   UNL     1      -9.721  13.624  69.553  1.00  0.00     0.711 N  
BRANCH   6  17
HETATM   17  N   UNL     1      -6.977   8.618  68.057  1.00  0.00    -0.073 NA 
HETATM   18  N   UNL     1      -9.541   6.777  67.577  1.00  0.00    -0.126 NA 
HETATM   19  C   UNL     1      -7.411   5.710  68.216  1.00  0.00    -0.077 C  
HETATM   20  C   UNL     1      -7.383   7.855  66.864  1.00  0.00    -0.090 C  
HETATM   21  C   UNL     1      -7.196   6.528  69.481  1.00  0.00    -0.082 C  
HETATM   22  C   UNL     1      -6.432   7.822  69.185  1.00  0.00    -0.036 C  
HETATM   23  C   UNL     1      -8.151   6.537  67.164  1.00  0.00    -0.113 C  
HETATM   24  H1  UNL     1     -10.035   7.328  66.876  1.00  0.00     0.000 HD 
HETATM   25  H2  UNL     1      -9.592   7.206  68.501  1.00  0.00     0.000 HD 
ENDBRANCH   6  17
BRANCH  16  26
HETATM   26  C   UNL     1     -10.646  14.643  70.110  1.00  0.00     0.136 C  
BRANCH  26  27
HETATM   27  C   UNL     1     -10.481  16.099  69.614  1.00  0.00    -0.291 A  
HETATM   28  N   UNL     1     -11.484  16.638  68.875  1.00  0.00    -0.141 NA 
HETATM   29  C   UNL     1     -11.279  17.828  68.267  1.00  0.00     0.431 A  
HETATM   30  C   UNL     1     -10.061  18.517  68.361  1.00  0.00    -0.423 A  
HETATM   31  C   UNL     1      -9.885  19.737  67.633  1.00  0.00    -0.514 A  
HETATM   32  C   UNL     1      -9.104  17.906  69.183  1.00  0.00     0.101 A  
HETATM   33  C   UNL     1     -10.901  20.275  66.846  1.00  0.00     0.117 A  
HETATM   34  C   UNL     1      -7.717  18.458  69.351  1.00  0.00     0.195 C  
HETATM   35  N   UNL     1      -9.313  16.731  69.822  1.00  0.00     0.429 NA 
HETATM   36  C   UNL     1     -12.114  19.610  66.781  1.00  0.00     2.625 A  
HETATM   37  C   UNL     1     -12.285  18.407  67.487  1.00  0.00     3.698 A  
ENDBRANCH  26  27
ENDBRANCH  16  26
ENDBRANCH   4   5
ENDBRANCH   3   4
TORSDOF 5
ENDMDL
MODEL      221
REMARK 921   NORMALIZED FREE ENERGY PREDICTED BY IDOCK:    8.27 KCAL/MOL
REMARK 922        TOTAL FREE ENERGY PREDICTED BY IDOCK:   10.18 KCAL/MOL
REMARK 923 INTER-LIGAND FREE ENERGY PREDICTED BY IDOCK:    2.51 KCAL/MOL
REMARK 924 INTRA-LIGAND FREE ENERGY PREDICTED BY IDOCK:    7.67 KCAL/MOL
REMARK 927      BINDING AFFINITY PREDICTED BY RF-SCORE:    0.00 PKD
ROOT
HETATM    1  C   UNL     1      -6.667  16.684  65.343  1.00  0.00     3.012 C  
HETATM    2  C   UNL     1      -7.447  15.639  66.124  1.00  0.00     1.438 C  
HETATM    3  C   UNL     1      -8.116  14.742  66.793  1.00  0.00     0.037 C  
ENDROOT
BRANCH   3   4
HETATM    4  C   UNL     1      -8.896  13.697  67.574  1.00  0.00    -0.205 C  
BRANCH   4   5
HETATM    5  N   UNL     1      -7.891  12.663  68.031  1.00  0.00    -0.136 NA 
HETATM    6  C   UNL     1      -6.591  12.905  68.542  1.00  0.00    -0.087 A  
HETATM    7  N   UNL     1      -6.050  11.783  68.978  1.00  0.00    -0.061 NA 
HETATM    8  N   UNL     1      -6.752   9.476  69.037  1.00  0.00    -0.050 N  
HETATM    9  C   UNL     1      -6.927  10.801  68.687  1.00  0.00    -0.070 A  
HETATM   10  O   UNL     1      -7.840   7.504  69.407  1.00  0.00    -0.115 OA 
HETATM   11  C   UNL     1      -8.052  11.261  68.055  1.00  0.00    -0.128 A  
HETATM   12  C   UNL     1      -5.561   9.047  69.748  1.00  0.00    -0.032 C  
HETATM   13  C   UNL     1      -9.054  10.331  67.597  1.00  0.00    -0.137 C  
HETATM   14  C   UNL     1      -7.780   8.580  68.803  1.00  0.00    -0.102 C  
HETATM   15  O   UNL     1     -10.084  10.695  67.040  1.00  0.00    -0.195 OA 
HETATM   16  N   UNL     1      -8.761   8.977  67.881  1.00  0.00    -0.129 N  
BRANCH   6  17
HETATM   17  N   UNL     1      -5.978  14.117  68.692  1.00  0.00    -0.084 NA 
HETATM   18  N   UNL     1      -6.960  14.897  71.628  1.00  0.00     1.037 NA 
HETATM   19  C   UNL     1      -6.300  16.696  70.076  1.00  0.00     0.002 C  
HETATM   20  C   UNL     1      -5.194  14.421  69.902  1.00  0.00    -0.093 C  
HETATM   21  C   UNL     1      -7.250  16.298  68.956  1.00  0.00    -0.204 C  
HETATM   22  C   UNL     1      -6.604  15.279  68.013  1.00  0.00    -0.141 C  
HETATM   23  C   UNL     1      -5.845  15.462  70.856  1.00  0.00     0.106 C  
HETATM   24  H1  UNL     1      -6.657  14.074  72.148  1.00  0.00     0.000 HD 
HETATM   25  H2  UNL     1      -7.766  14.695  71.036  1.00  0.00     0.000 HD 
ENDBRANCH   6  17
BRANCH  16  26
HETATM   26  C   UNL     1      -9.700   7.902  67.472  1.00  0.00    -0.159 C  
BRANCH  26  27
HETATM   27  C   UNL     1      -9.088   6.627  66.844  1.00  0.00    -0.136 A  
HETATM   28  N   UNL     1      -8.348   6.765  65.714  1.00  0.00    -0.139 NA 
HETATM   29  C   UNL     1      -7.974   5.655  65.040  1.00  0.00    -0.115 A  
HETATM   30  C   UNL     1      -8.336   4.367  65.458  1.00  0.00    -0.114 A  
HETATM   31  C   UNL     1      -7.968   3.238  64.658  1.00  0.00    -0.082 A  
HETATM   32  C   UNL     1      -9.058   4.322  66.659  1.00  0.00    -0.129 A  
HETATM   33  C   UNL     1      -7.239   3.380  63.480  1.00  0.00    -0.050 A  
HETATM   34  C   UNL     1      -9.593   3.039  67.230  1.00  0.00    -0.022 C  
HETATM   35  N   UNL     1      -9.409   5.427  67.358  1.00  0.00    -0.111 NA 
HETATM   36  C   UNL     1      -6.854   4.651  63.086  1.00  0.00    -0.038 A  
HETATM   37  C   UNL     1      -7.223   5.760  63.865  1.00  0.00    -0.055 A  
ENDBRANCH  26  27
ENDBRANCH  16  26
ENDBRANCH   4   5
ENDBRANCH   3   4
TORSDOF 5
ENDMDL
MODEL      222
REMARK 921   NORMALIZED FREE ENERGY PREDICTED BY IDOCK:    8.48 KCAL/MOL
REMARK 922        TOTAL FREE ENERGY PREDICTED BY IDOCK:   10.45 KCAL/MOL
REMARK 923 INTER-LIGAND FREE ENERGY PREDICTED BY IDOCK:    9.25 KCAL/MOL
REMARK 924 INTRA-LIGAND FREE ENERGY PREDICTED BY IDOCK:    1.20 KCAL/MOL
REMARK 927      BINDING AFFINITY PREDICTED BY RF-SCORE:    0.00 PKD
ROOT
HETATM    1  C   UNL     1      -9.329   9.466  69.898  1.00  0.00    -0.234 C  
HETATM    2  C   UNL     1      -8.433   9.892  68.745  1.00  0.00    -0.122 C  
HETATM    3  C   UNL     1      -7.664  10.257  67.757  1.00  0.00    -0.090 C  
ENDROOT
BRANCH   3   4
HETATM    4  C   UNL     1      -6.769  10.683  66.605  1.00  0.00    -0.106 C  
BRANCH   4   5
HETATM    5  N   UNL     1      -7.678  10.904  65.414  1.00  0.00     0.024 NA 
HETATM    6  C   UNL     1      -7.958   9.982  64.374  1.00  0.00    -0.152 A  
HETATM    7  N   UNL     1      -8.904  10.452  63.584  1.00  0.00    -0.197 NA 
HETATM    8  N   UNL     1     -10.176  12.500  63.498  1.00  0.00    -0.329 N  
HETATM    9  C   UNL     1      -9.189  11.693  64.029  1.00  0.00     0.155 A  
HETATM   10  O   UNL     1     -11.547  14.273  63.935  1.00  0.00    -0.158 OA 
HETATM   11  C   UNL     1      -8.435  12.056  65.114  1.00  0.00     1.162 A  
HETATM   12  C   UNL     1     -10.980  12.049  62.377  1.00  0.00     2.173 C  
HETATM   13  C   UNL     1      -8.552  13.384  65.663  1.00  0.00     1.717 C  
HETATM   14  C   UNL     1     -10.468  13.700  64.122  1.00  0.00     0.043 C  
HETATM   15  O   UNL     1      -7.910  13.751  66.641  1.00  0.00     0.355 OA 
HETATM   16  N   UNL     1      -9.495  14.203  65.002  1.00  0.00     0.413 N  
BRANCH   6  17
HETATM   17  N   UNL     1      -7.438   8.727  64.224  1.00  0.00    -0.104 NA 
HETATM   18  N   UNL     1      -9.713   7.374  62.439  1.00  0.00     1.554 NA 
HETATM   19  C   UNL     1      -8.271   5.931  63.824  1.00  0.00    -0.051 C  
HETATM   20  C   UNL     1      -7.349   8.102  62.893  1.00  0.00    -0.102 C  
HETATM   21  C   UNL     1      -8.553   6.639  65.141  1.00  0.00     0.023 C  
HETATM   22  C   UNL     1      -7.578   7.797  65.372  1.00  0.00    -0.089 C  
HETATM   23  C   UNL     1      -8.333   6.921  62.660  1.00  0.00     0.063 C  
HETATM   24  H1  UNL     1      -9.756   8.034  61.663  1.00  0.00     0.000 HD 
HETATM   25  H2  UNL     1     -10.125   7.761  63.288  1.00  0.00     0.000 HD 
ENDBRANCH   6  17
BRANCH  16  26
HETATM   26  C   UNL     1      -9.730  15.598  65.453  1.00  0.00    -0.158 C  
BRANCH  26  27
HETATM   27  C   UNL     1      -9.251  15.974  66.875  1.00  0.00    -0.224 A  
HETATM   28  N   UNL     1      -7.914  16.040  67.101  1.00  0.00    -0.180 NA 
HETATM   29  C   UNL     1      -7.473  16.170  68.372  1.00  0.00    -0.153 A  
HETATM   30  C   UNL     1      -8.348  16.224  69.466  1.00  0.00     0.127 A  
HETATM   31  C   UNL     1      -7.811  16.289  70.793  1.00  0.00     3.385 A  
HETATM   32  C   UNL     1      -9.708  16.197  69.131  1.00  0.00    -0.248 A  
HETATM   33  C   UNL     1      -6.439  16.321  71.028  1.00  0.00     1.605 A  
HETATM   34  C   UNL     1     -10.794  16.176  70.170  1.00  0.00    -0.328 C  
HETATM   35  N   UNL     1     -10.160  16.101  67.859  1.00  0.00    -0.240 NA 
HETATM   36  C   UNL     1      -5.578  16.301  69.944  1.00  0.00    -0.170 A  
HETATM   37  C   UNL     1      -6.102  16.228  68.643  1.00  0.00    -0.117 A  
ENDBRANCH  26  27
ENDBRANCH  16  26
ENDBRANCH   4   5
ENDBRANCH   3   4
TORSDOF 5
ENDMDL
MODEL      223
REMARK 921   NORMALIZED FREE ENERGY PREDICTED BY IDOCK:    8.70 KCAL/MOL
REMARK 922        TOTAL FREE ENERGY PREDICTED BY IDOCK:   10.75 KCAL/MOL
REMARK 923 INTER-LIGAND FREE ENERGY PREDICTED BY IDOCK:    2.91 KCAL/MOL
REMARK 924 INTRA-LIGAND FREE ENERGY PREDICTED BY IDOCK:    7.84 KCAL/MOL
REMARK 927      BINDING AFFINITY PREDICTED BY RF-SCORE:    0.00 PKD
ROOT
HETATM    1  C   UNL     1      -8.516  15.813  67.646  1.00  0.00    -0.171 C  
HETATM    2  C   UNL     1      -8.024  14.386  67.462  1.00  0.00    -0.208 C  
HETATM    3  C   UNL     1      -7.602  13.162  67.304  1.00  0.00    -0.090 C  
ENDROOT
BRANCH   3   4
HETATM    4  C   UNL     1      -7.112  11.736  67.121  1.00  0.00    -0.146 C  
BRANCH   4   5
HETATM    5  N   UNL     1      -8.292  10.834  67.412  1.00  0.00    -0.119 NA 
HETATM    6  C   UNL     1      -8.322   9.419  67.340  1.00  0.00    -0.125 A  
HETATM    7  N   UNL     1      -9.468   8.958  67.803  1.00  0.00    -0.140 NA 
HETATM    8  N   UNL     1     -11.479   9.974  68.662  1.00  0.00    -0.053 N  
HETATM    9  C   UNL     1     -10.222  10.037  68.095  1.00  0.00    -0.175 A  
HETATM   10  O   UNL     1     -13.026  11.150  69.863  1.00  0.00    -0.001 OA 
HETATM   11  C   UNL     1      -9.584  11.220  67.827  1.00  0.00    -0.174 A  
HETATM   12  C   UNL     1     -12.092   8.695  68.970  1.00  0.00     2.388 C  
HETATM   13  C   UNL     1     -10.281  12.470  68.002  1.00  0.00    -0.225 C  
HETATM   14  C   UNL     1     -12.103  11.151  69.040  1.00  0.00    -0.246 C  
HETATM   15  O   UNL     1      -9.749  13.555  67.790  1.00  0.00    -0.214 OA 
HETATM   16  N   UNL     1     -11.606  12.335  68.473  1.00  0.00    -0.289 N  
BRANCH   6  17
HETATM   17  N   UNL     1      -7.301   8.592  66.962  1.00  0.00    -0.079 NA 
HETATM   18  N   UNL     1      -8.702   7.007  64.571  1.00  0.00    -0.239 NA 
HETATM   19  C   UNL     1      -6.813   5.952  65.754  1.00  0.00    -0.056 C  
HETATM   20  C   UNL     1      -6.909   8.477  65.547  1.00  0.00    -0.071 C  
HETATM   21  C   UNL     1      -7.415   6.064  67.147  1.00  0.00    -0.084 C  
HETATM   22  C   UNL     1      -7.052   7.398  67.806  1.00  0.00    -0.085 C  
HETATM   23  C   UNL     1      -7.269   7.120  64.879  1.00  0.00    -0.071 C  
HETATM   24  H1  UNL     1      -9.007   7.786  63.987  1.00  0.00     0.000 HD 
HETATM   25  H2  UNL     1      -9.266   6.925  65.417  1.00  0.00     0.000 HD 
ENDBRANCH   6  17
BRANCH  16  26
HETATM   26  C   UNL     1     -12.450  13.534  68.704  1.00  0.00     0.318 C  
BRANCH  26  27
HETATM   27  C   UNL     1     -11.727  14.854  69.065  1.00  0.00    -0.319 A  
HETATM   28  N   UNL     1     -11.856  15.904  68.215  1.00  0.00    -0.189 NA 
HETATM   29  C   UNL     1     -11.079  16.994  68.404  1.00  0.00    -0.164 A  
HETATM   30  C   UNL     1     -10.134  17.071  69.437  1.00  0.00    -0.139 A  
HETATM   31  C   UNL     1      -9.292  18.225  69.536  1.00  0.00     0.494 A  
HETATM   32  C   UNL     1     -10.108  15.960  70.291  1.00  0.00     0.130 A  
HETATM   33  C   UNL     1      -9.399  19.289  68.643  1.00  0.00    -0.446 A  
HETATM   34  C   UNL     1      -9.116  15.829  71.412  1.00  0.00     4.304 C  
HETATM   35  N   UNL     1     -10.905  14.878  70.129  1.00  0.00    -0.181 NA 
HETATM   36  C   UNL     1     -10.355  19.225  67.644  1.00  0.00    -0.532 A  
HETATM   37  C   UNL     1     -11.174  18.089  67.539  1.00  0.00     0.304 A  
ENDBRANCH  26  27
ENDBRANCH  16  26
ENDBRANCH   4   5
ENDBRANCH   3   4
TORSDOF 5
ENDMDL
MODEL      224
REMARK 921   NORMALIZED FREE ENERGY PREDICTED BY IDOCK:    9.63 KCAL/MOL
REMARK 922        TOTAL FREE ENERGY PREDICTED BY IDOCK:   11.94 KCAL/MOL
REMARK 923 INTER-LIGAND FREE ENERGY PREDICTED BY IDOCK:   10.19 KCAL/MOL
REMARK 924 INTRA-LIGAND FREE ENERGY PREDICTED BY IDOCK:    1.74 KCAL/MOL
REMARK 927      BINDING AFFINITY PREDICTED BY RF-SCORE:    0.00 PKD
ROOT
HETATM    1  C   UNL     1     -12.409  16.046  71.690  1.00  0.00    -0.472 C  
HETATM    2  C   UNL     1     -12.093  14.747  70.967  1.00  0.00    -0.391 C  
HETATM    3  C   UNL     1     -11.821  13.632  70.347  1.00  0.00    -0.308 C  
ENDROOT
BRANCH   3   4
HETATM    4  C   UNL     1     -11.504  12.333  69.624  1.00  0.00    -0.215 C  
BRANCH   4   5
HETATM    5  N   UNL     1     -10.072  11.987  69.970  1.00  0.00     1.673 NA 
HETATM    6  C   UNL     1      -9.598  10.770  70.521  1.00  0.00     1.876 A  
HETATM    7  N   UNL     1      -8.279  10.761  70.554  1.00  0.00     1.141 NA 
HETATM    8  N   UNL     1      -6.560  12.343  69.954  1.00  0.00     0.027 N  
HETATM    9  C   UNL     1      -7.880  11.974  70.121  1.00  0.00     2.632 A  
HETATM   10  O   UNL     1      -5.169  13.794  68.871  1.00  0.00    -0.070 OA 
HETATM   11  C   UNL     1      -8.928  12.796  69.799  1.00  0.00     2.526 A  
HETATM   12  C   UNL     1      -5.485  11.417  70.265  1.00  0.00    -0.116 C  
HETATM   13  C   UNL     1      -8.680  14.159  69.400  1.00  0.00     0.507 C  
HETATM   14  C   UNL     1      -6.274  13.567  69.376  1.00  0.00    -0.107 C  
HETATM   15  O   UNL     1      -9.583  14.928  69.088  1.00  0.00    -0.210 OA 
HETATM   16  N   UNL     1      -7.312  14.512  69.362  1.00  0.00    -0.130 N  
BRANCH   6  17
HETATM   17  N   UNL     1     -10.345   9.682  70.877  1.00  0.00    -0.296 NA 
HETATM   18  N   UNL     1     -10.595   8.209  68.055  1.00  0.00    -0.399 NA 
HETATM   19  C   UNL     1     -12.311   7.787  69.776  1.00  0.00     1.362 C  
HETATM   20  C   UNL     1      -9.935   8.324  70.480  1.00  0.00    -0.184 C  
HETATM   21  C   UNL     1     -12.683   9.246  69.992  1.00  0.00     1.028 C  
HETATM   22  C   UNL     1     -11.801   9.894  71.063  1.00  0.00    -0.376 C  
HETATM   23  C   UNL     1     -10.834   7.662  69.398  1.00  0.00    -0.127 C  
HETATM   24  H1  UNL     1      -9.610   8.126  67.803  1.00  0.00     0.000 HD 
HETATM   25  H2  UNL     1     -10.926   9.170  67.974  1.00  0.00     0.000 HD 
ENDBRANCH   6  17
BRANCH  16  26
HETATM   26  C   UNL     1      -6.898  15.882  68.967  1.00  0.00    -0.153 C  
BRANCH  26  27
HETATM   27  C   UNL     1      -8.018  16.888  68.609  1.00  0.00    -0.256 A  
HETATM   28  N   UNL     1      -8.451  16.929  67.323  1.00  0.00    -0.192 NA 
HETATM   29  C   UNL     1      -9.280  17.928  66.946  1.00  0.00    -0.264 A  
HETATM   30  C   UNL     1      -9.696  18.931  67.832  1.00  0.00    -0.376 A  
HETATM   31  C   UNL     1     -10.517  20.000  67.349  1.00  0.00    -0.490 A  
HETATM   32  C   UNL     1      -9.238  18.777  69.148  1.00  0.00    -0.044 A  
HETATM   33  C   UNL     1     -10.933  20.064  66.021  1.00  0.00    -0.078 A  
HETATM   34  C   UNL     1      -9.522  19.787  70.223  1.00  0.00     0.931 C  
HETATM   35  N   UNL     1      -8.434  17.762  69.542  1.00  0.00     0.517 NA 
HETATM   36  C   UNL     1     -10.547  19.055  65.155  1.00  0.00     0.817 A  
HETATM   37  C   UNL     1      -9.734  18.010  65.625  1.00  0.00     0.410 A  
ENDBRANCH  26  27
ENDBRANCH  16  26
ENDBRANCH   4   5
ENDBRANCH   3   4
TORSDOF 5
ENDMDL
MODEL      225
REMARK 921   NORMALIZED FREE ENERGY PREDICTED BY IDOCK:    9.86 KCAL/MOL
REMARK 922        TOTAL FREE ENERGY PREDICTED BY IDOCK:   12.24 KCAL/MOL
REMARK 923 INTER-LIGAND FREE ENERGY PREDICTED BY IDOCK:    3.77 KCAL/MOL
REMARK 924 INTRA-LIGAND FREE ENERGY PREDICTED BY IDOCK:    8.47 KCAL/MOL
REMARK 927      BINDING AFFINITY PREDICTED BY RF-SCORE:    0.00 PKD
ROOT
HETATM    1  C   UNL     1      -5.942  16.174  65.968  1.00  0.00     2.502 C  
HETATM    2  C   UNL     1      -6.840  15.225  66.747  1.00  0.00     0.787 C  
HETATM    3  C   UNL     1      -7.609  14.411  67.414  1.00  0.00    -0.196 C  
ENDROOT
BRANCH   3   4
HETATM    4  C   UNL     1      -8.506  13.462  68.193  1.00  0.00    -0.172 C  
BRANCH   4   5
HETATM    5  N   UNL     1      -7.590  12.477  68.886  1.00  0.00    -0.018 NA 
HETATM    6  C   UNL     1      -6.352  12.761  69.515  1.00  0.00    -0.108 A  
HETATM    7  N   UNL     1      -5.898  11.694  70.144  1.00  0.00    -0.139 NA 
HETATM    8  N   UNL     1      -6.669   9.422  70.396  1.00  0.00    -0.071 N  
HETATM    9  C   UNL     1      -6.763  10.696  69.871  1.00  0.00    -0.147 A  
HETATM   10  O   UNL     1      -7.850   7.526  70.870  1.00  0.00    -0.092 OA 
HETATM   11  C   UNL     1      -7.795  11.091  69.060  1.00  0.00    -0.126 A  
HETATM   12  C   UNL     1      -5.581   9.066  71.289  1.00  0.00    -0.047 C  
HETATM   13  C   UNL     1      -8.763  10.127  68.602  1.00  0.00    -0.128 C  
HETATM   14  C   UNL     1      -7.689   8.519  70.152  1.00  0.00    -0.086 C  
HETATM   15  O   UNL     1      -9.711  10.435  67.888  1.00  0.00    -0.148 OA 
HETATM   16  N   UNL     1      -8.545   8.814  69.079  1.00  0.00    -0.130 N  
BRANCH   6  17
HETATM   17  N   UNL     1      -5.725  13.974  69.589  1.00  0.00    -0.098 NA 
HETATM   18  N   UNL     1      -7.138  15.190  72.181  1.00  0.00     2.420 NA 
HETATM   19  C   UNL     1      -6.168  16.732  70.519  1.00  0.00     0.533 C  
HETATM   20  C   UNL     1      -5.136  14.441  70.856  1.00  0.00    -0.117 C  
HETATM   21  C   UNL     1      -6.939  16.187  69.326  1.00  0.00    -0.210 C  
HETATM   22  C   UNL     1      -6.189  15.031  68.658  1.00  0.00    -0.085 C  
HETATM   23  C   UNL     1      -5.892  15.620  71.531  1.00  0.00     0.653 C  
HETATM   24  H1  UNL     1      -6.954  14.448  72.856  1.00  0.00     0.000 HD 
HETATM   25  H2  UNL     1      -7.845  14.915  71.500  1.00  0.00     0.000 HD 
ENDBRANCH   6  17
BRANCH  16  26
HETATM   26  C   UNL     1      -9.460   7.711  68.695  1.00  0.00    -0.151 C  
BRANCH  26  27
HETATM   27  C   UNL     1      -8.852   6.522  67.912  1.00  0.00    -0.114 A  
HETATM   28  N   UNL     1      -9.555   5.362  67.867  1.00  0.00    -0.124 NA 
HETATM   29  C   UNL     1      -8.959   4.258  67.364  1.00  0.00    -0.120 A  
HETATM   30  C   UNL     1      -7.636   4.267  66.900  1.00  0.00    -0.081 A  
HETATM   31  C   UNL     1      -7.041   3.045  66.447  1.00  0.00    -0.058 A  
HETATM   32  C   UNL     1      -7.008   5.519  66.942  1.00  0.00    -0.065 A  
HETATM   33  C   UNL     1      -7.750   1.846  66.433  1.00  0.00    -0.067 A  
HETATM   34  C   UNL     1      -5.570   5.713  66.553  1.00  0.00    -0.017 C  
HETATM   35  N   UNL     1      -7.608   6.637  67.414  1.00  0.00    -0.102 NA 
HETATM   36  C   UNL     1      -9.067   1.847  66.860  1.00  0.00    -0.092 A  
HETATM   37  C   UNL     1      -9.648   3.042  67.315  1.00  0.00    -0.022 A  
ENDBRANCH  26  27
ENDBRANCH  16  26
ENDBRANCH   4   5
ENDBRANCH   3   4
TORSDOF 5
ENDMDL
MODEL      226
REMARK 921   NORMALIZED FREE ENERGY PREDICTED BY IDOCK:   16.31 KCAL/MOL
REMARK 922        TOTAL FREE ENERGY PREDICTED BY IDOCK:   20.58 KCAL/MOL
REMARK 923 INTER-LIGAND FREE ENERGY PREDICTED BY IDOCK:   20.35 KCAL/MOL
REMARK 924 INTRA-LIGAND FREE ENERGY PREDICTED BY IDOCK:    0.22 KCAL/MOL
REMARK 927      BINDING AFFINITY PREDICTED BY RF-SCORE:    0.00 PKD
ROOT
HETATM    1  C   UNL     1     -11.574   8.193  64.518  1.00  0.00    15.650 C  
HETATM    2  C   UNL     1     -11.475   8.648  65.965  1.00  0.00     4.692 C  
HETATM    3  C   UNL     1     -11.391   9.038  67.206  1.00  0.00     1.062 C  
ENDROOT
BRANCH   3   4
HETATM    4  C   UNL     1     -11.291   9.494  68.653  1.00  0.00     0.233 C  
BRANCH   4   5
HETATM    5  N   UNL     1      -9.818   9.496  69.002  1.00  0.00    -0.170 NA 
HETATM    6  C   UNL     1      -9.169   8.683  69.965  1.00  0.00    -0.157 A  
HETATM    7  N   UNL     1      -7.862   8.845  69.901  1.00  0.00    -0.087 NA 
HETATM    8  N   UNL     1      -6.390  10.226  68.579  1.00  0.00    -0.051 N  
HETATM    9  C   UNL     1      -7.644   9.807  68.980  1.00  0.00    -0.082 A  
HETATM   10  O   UNL     1      -5.235  11.249  66.896  1.00  0.00    -0.062 OA 
HETATM   11  C   UNL     1      -8.802  10.290  68.429  1.00  0.00    -0.129 A  
HETATM   12  C   UNL     1      -5.192   9.648  69.161  1.00  0.00    -0.036 C  
HETATM   13  C   UNL     1      -8.753  11.382  67.490  1.00  0.00    -0.140 C  
HETATM   14  C   UNL     1      -6.288  11.124  67.531  1.00  0.00    -0.065 C  
HETATM   15  O   UNL     1      -9.760  11.838  66.959  1.00  0.00    -0.183 OA 
HETATM   16  N   UNL     1      -7.448  11.847  67.208  1.00  0.00    -0.143 N  
BRANCH   6  17
HETATM   17  N   UNL     1      -9.751   7.762  70.791  1.00  0.00    -0.173 NA 
HETATM   18  N   UNL     1     -11.609   9.666  72.556  1.00  0.00     0.847 NA 
HETATM   19  C   UNL     1     -10.896   7.498  73.491  1.00  0.00    -0.213 C  
HETATM   20  C   UNL     1     -11.211   7.741  70.987  1.00  0.00    -0.266 C  
HETATM   21  C   UNL     1      -9.403   7.727  73.305  1.00  0.00    -0.331 C  
HETATM   22  C   UNL     1      -8.935   7.260  71.924  1.00  0.00    -0.126 C  
HETATM   23  C   UNL     1     -11.687   8.208  72.392  1.00  0.00    -0.399 C  
HETATM   24  H1  UNL     1     -12.137  10.140  71.823  1.00  0.00     0.000 HD 
HETATM   25  H2  UNL     1     -10.643   9.991  72.598  1.00  0.00     0.000 HD 
ENDBRANCH   6  17
BRANCH  16  26
HETATM   26  C   UNL     1      -7.236  12.967  66.257  1.00  0.00     2.089 C  
BRANCH  26  27
HETATM   27  C   UNL     1      -8.039  14.267  66.500  1.00  0.00     0.674 A  
HETATM   28  N   UNL     1      -7.510  15.196  67.336  1.00  0.00    -0.198 NA 
HETATM   29  C   UNL     1      -8.277  16.242  67.717  1.00  0.00    -0.149 A  
HETATM   30  C   UNL     1      -9.604  16.392  67.291  1.00  0.00    -0.235 A  
HETATM   31  C   UNL     1     -10.384  17.485  67.790  1.00  0.00    -0.367 A  
HETATM   32  C   UNL     1     -10.045  15.411  66.392  1.00  0.00    -0.279 A  
HETATM   33  C   UNL     1      -9.854  18.419  68.676  1.00  0.00    -0.403 A  
HETATM   34  C   UNL     1     -11.457  15.365  65.880  1.00  0.00    -0.014 C  
HETATM   35  N   UNL     1      -9.274  14.379  65.979  1.00  0.00    -0.127 NA 
HETATM   36  C   UNL     1      -8.533  18.287  69.070  1.00  0.00    -0.047 A  
HETATM   37  C   UNL     1      -7.770  17.211  68.589  1.00  0.00    -0.260 A  
ENDBRANCH  26  27
ENDBRANCH  16  26
ENDBRANCH   4   5
ENDBRANCH   3   4
TORSDOF 5
ENDMDL
MODEL      227
REMARK 921   NORMALIZED FREE ENERGY PREDICTED BY IDOCK:   19.92 KCAL/MOL
REMARK 922        TOTAL FREE ENERGY PREDICTED BY IDOCK:   25.24 KCAL/MOL
REMARK 923 INTER-LIGAND FREE ENERGY PREDICTED BY IDOCK:   16.03 KCAL/MOL
REMARK 924 INTRA-LIGAND FREE ENERGY PREDICTED BY IDOCK:    9.20 KCAL/MOL
REMARK 927      BINDING AFFINITY PREDICTED BY RF-SCORE:    0.00 PKD
ROOT
HETATM    1  C   UNL     1     -12.404  13.784  64.078  1.00  0.00    -0.370 C  
HETATM    2  C   UNL     1     -12.239  13.801  65.590  1.00  0.00    -0.484 C  
HETATM    3  C   UNL     1     -12.099  13.816  66.886  1.00  0.00    -0.454 C  
ENDROOT
BRANCH   3   4
HETATM    4  C   UNL     1     -11.934  13.833  68.397  1.00  0.00    -0.360 C  
BRANCH   4   5
HETATM    5  N   UNL     1     -10.448  13.743  68.668  1.00  0.00    -0.242 NA 
HETATM    6  C   UNL     1      -9.479  14.755  68.451  1.00  0.00    -0.213 A  
HETATM    7  N   UNL     1      -8.310  14.387  68.936  1.00  0.00    -0.122 NA 
HETATM    8  N   UNL     1      -7.478  12.402  70.026  1.00  0.00     1.299 N  
HETATM    9  C   UNL     1      -8.466  13.126  69.388  1.00  0.00     1.096 A  
HETATM   10  O   UNL     1      -7.091  10.652  71.441  1.00  0.00     1.035 OA 
HETATM   11  C   UNL     1      -9.738  12.648  69.204  1.00  0.00     0.520 A  
HETATM   12  C   UNL     1      -6.160  12.972  70.238  1.00  0.00    -0.071 C  
HETATM   13  C   UNL     1     -10.054  11.286  69.554  1.00  0.00     0.233 C  
HETATM   14  C   UNL     1      -7.795  11.167  70.565  1.00  0.00     2.589 C  
HETATM   15  O   UNL     1     -11.180  10.818  69.422  1.00  0.00    -0.233 OA 
HETATM   16  N   UNL     1      -8.969  10.559  70.094  1.00  0.00     0.463 N  
BRANCH   6  17
HETATM   17  N   UNL     1      -9.692  15.999  67.923  1.00  0.00    -0.220 NA 
HETATM   18  N   UNL     1     -11.543  15.254  65.430  1.00  0.00    -0.178 NA 
HETATM   19  C   UNL     1     -10.233  17.342  65.359  1.00  0.00     0.099 C  
HETATM   20  C   UNL     1     -11.053  16.452  67.587  1.00  0.00    -0.150 C  
HETATM   21  C   UNL     1      -8.882  16.692  65.620  1.00  0.00     0.329 C  
HETATM   22  C   UNL     1      -8.593  16.588  67.120  1.00  0.00    -0.186 C  
HETATM   23  C   UNL     1     -11.345  16.565  66.064  1.00  0.00     0.564 C  
HETATM   24  H1  UNL     1     -12.285  14.735  65.900  1.00  0.00     0.000 HD 
HETATM   25  H2  UNL     1     -10.675  14.719  65.388  1.00  0.00     0.000 HD 
ENDBRANCH   6  17
BRANCH  16  26
HETATM   26  C   UNL     1      -9.140   9.142  70.503  1.00  0.00    -0.241 C  
BRANCH  26  27
HETATM   27  C   UNL     1      -9.602   8.140  69.419  1.00  0.00    -0.167 A  
HETATM   28  N   UNL     1      -9.193   8.349  68.142  1.00  0.00    -0.138 NA 
HETATM   29  C   UNL     1      -9.742   7.609  67.152  1.00  0.00    -0.183 A  
HETATM   30  C   UNL     1     -10.729   6.644  67.397  1.00  0.00    -0.409 A  
HETATM   31  C   UNL     1     -11.320   5.947  66.295  1.00  0.00     0.690 A  
HETATM   32  C   UNL     1     -11.051   6.466  68.750  1.00  0.00    -0.326 A  
HETATM   33  C   UNL     1     -10.927   6.185  64.981  1.00  0.00     4.106 A  
HETATM   34  C   UNL     1     -12.133   5.528  69.203  1.00  0.00     4.413 C  
HETATM   35  N   UNL     1     -10.483   7.179  69.750  1.00  0.00    -0.218 NA 
HETATM   36  C   UNL     1      -9.928   7.115  64.743  1.00  0.00     3.493 A  
HETATM   37  C   UNL     1      -9.355   7.807  65.823  1.00  0.00     0.068 A  
ENDBRANCH  26  27
ENDBRANCH  16  26
ENDBRANCH   4   5
ENDBRANCH   3   4
TORSDOF 5
ENDMDL
MODEL      228
REMARK 921   NORMALIZED FREE ENERGY PREDICTED BY IDOCK:   21.91 KCAL/MOL
REMARK 922        TOTAL FREE ENERGY PREDICTED BY IDOCK:   27.81 KCAL/MOL
REMARK 923 INTER-LIGAND FREE ENERGY PREDICTED BY IDOCK:   26.18 KCAL/MOL
REMARK 924 INTRA-LIGAND FREE ENERGY PREDICTED BY IDOCK:    1.63 KCAL/MOL
REMARK 927      BINDING AFFINITY PREDICTED BY RF-SCORE:    0.00 PKD
ROOT
HETATM    1  C   UNL     1      -9.718  13.567  72.839  1.00  0.00    13.635 C  
HETATM    2  C   UNL     1     -10.064  14.175  71.488  1.00  0.00     4.679 C  
HETATM    3  C   UNL     1     -10.360  14.695  70.330  1.00  0.00     0.359 C  
ENDROOT
BRANCH   3   4
HETATM    4  C   UNL     1     -10.706  15.302  68.980  1.00  0.00    -0.244 C  
BRANCH   4   5
HETATM    5  N   UNL     1      -9.391  15.602  68.294  1.00  0.00    -0.190 NA 
HETATM    6  C   UNL     1      -8.691  16.834  68.295  1.00  0.00    -0.227 A  
HETATM    7  N   UNL     1      -7.511  16.695  67.722  1.00  0.00    -0.151 NA 
HETATM    8  N   UNL     1      -6.351  14.868  66.656  1.00  0.00     1.705 N  
HETATM    9  C   UNL     1      -7.456  15.425  67.269  1.00  0.00    -0.207 A  
HETATM   10  O   UNL     1      -5.312  12.896  66.159  1.00  0.00     1.538 OA 
HETATM   11  C   UNL     1      -8.597  14.715  67.536  1.00  0.00    -0.187 A  
HETATM   12  C   UNL     1      -5.148  15.651  66.439  1.00  0.00     2.172 C  
HETATM   13  C   UNL     1      -8.738  13.367  67.046  1.00  0.00    -0.187 C  
HETATM   14  C   UNL     1      -6.363  13.517  66.355  1.00  0.00     3.472 C  
HETATM   15  O   UNL     1      -9.733  12.686  67.270  1.00  0.00    -0.201 OA 
HETATM   16  N   UNL     1      -7.620  12.892  66.323  1.00  0.00     1.231 N  
BRANCH   6  17
HETATM   17  N   UNL     1      -9.082  18.002  68.887  1.00  0.00    -0.192 NA 
HETATM   18  N   UNL     1      -9.497  19.842  66.311  1.00  0.00    -0.393 NA 
HETATM   19  C   UNL     1      -9.018  20.917  68.478  1.00  0.00     0.930 C  
HETATM   20  C   UNL     1     -10.281  18.720  68.421  1.00  0.00    -0.361 C  
HETATM   21  C   UNL     1      -7.735  20.149  68.757  1.00  0.00     0.006 C  
HETATM   22  C   UNL     1      -8.018  18.839  69.497  1.00  0.00     0.385 C  
HETATM   23  C   UNL     1      -9.994  20.055  67.678  1.00  0.00    -0.428 C  
HETATM   24  H1  UNL     1     -10.148  19.266  65.777  1.00  0.00     0.000 HD 
HETATM   25  H2  UNL     1      -8.555  19.450  66.308  1.00  0.00     0.000 HD 
ENDBRANCH   6  17
BRANCH  16  26
HETATM   26  C   UNL     1      -7.615  11.520  65.757  1.00  0.00     0.512 C  
BRANCH  26  27
HETATM   27  C   UNL     1      -8.543  10.474  66.420  1.00  0.00    -0.144 A  
HETATM   28  N   UNL     1      -8.919  10.682  67.708  1.00  0.00    -0.139 NA 
HETATM   29  C   UNL     1      -9.559   9.691  68.368  1.00  0.00    -0.144 A  
HETATM   30  C   UNL     1      -9.836   8.452  67.774  1.00  0.00    -0.218 A  
HETATM   31  C   UNL     1     -10.452   7.420  68.552  1.00  0.00    -0.215 A  
HETATM   32  C   UNL     1      -9.453   8.349  66.429  1.00  0.00    -0.227 A  
HETATM   33  C   UNL     1     -10.807   7.619  69.884  1.00  0.00    -0.241 A  
HETATM   34  C   UNL     1      -9.604   7.076  65.644  1.00  0.00     0.531 C  
HETATM   35  N   UNL     1      -8.841   9.347  65.750  1.00  0.00    -0.160 NA 
HETATM   36  C   UNL     1     -10.563   8.855  70.459  1.00  0.00    -0.262 A  
HETATM   37  C   UNL     1      -9.949   9.865  69.700  1.00  0.00    -0.255 A  
ENDBRANCH  26  27
ENDBRANCH  16  26
ENDBRANCH   4   5
ENDBRANCH   3   4
TORSDOF 5
ENDMDL
MODEL      229
REMARK 921   NORMALIZED FREE ENERGY PREDICTED BY IDOCK:   67.56 KCAL/MOL
REMARK 922        TOTAL FREE ENERGY PREDICTED BY IDOCK:   86.80 KCAL/MOL
REMARK 923 INTER-LIGAND FREE ENERGY PREDICTED BY IDOCK:   84.05 KCAL/MOL
REMARK 924 INTRA-LIGAND FREE ENERGY PREDICTED BY IDOCK:    2.75 KCAL/MOL
REMARK 927      BINDING AFFINITY PREDICTED BY RF-SCORE:    0.00 PKD
ROOT
HETATM    1  C   UNL     1     -13.965  12.136  62.713  1.00  0.00     3.563 C  
HETATM    2  C   UNL     1     -12.881  11.871  63.745  1.00  0.00    -0.396 C  
HETATM    3  C   UNL     1     -11.951  11.642  64.630  1.00  0.00    -0.046 C  
ENDROOT
BRANCH   3   4
HETATM    4  C   UNL     1     -10.866  11.377  65.661  1.00  0.00    -0.218 C  
BRANCH   4   5
HETATM    5  N   UNL     1     -11.565  11.256  66.998  1.00  0.00    -0.480 NA 
HETATM    6  C   UNL     1     -12.463  10.237  67.402  1.00  0.00     5.072 A  
HETATM    7  N   UNL     1     -12.764  10.366  68.680  1.00  0.00     1.115 NA 
HETATM    8  N   UNL     1     -12.179  11.948  70.405  1.00  0.00    -0.338 N  
HETATM    9  C   UNL     1     -12.155  11.494  69.101  1.00  0.00    -0.263 A  
HETATM   10  O   UNL     1     -11.098  13.267  71.923  1.00  0.00     3.603 OA 
HETATM   11  C   UNL     1     -11.448  12.120  68.108  1.00  0.00    -0.317 A  
HETATM   12  C   UNL     1     -12.905  11.221  71.431  1.00  0.00    -0.410 C  
HETATM   13  C   UNL     1     -10.807  13.385  68.367  1.00  0.00    -0.264 C  
HETATM   14  C   UNL     1     -11.407  13.044  70.747  1.00  0.00     1.295 C  
HETATM   15  O   UNL     1     -10.151  13.977  67.516  1.00  0.00    -0.233 OA 
HETATM   16  N   UNL     1     -10.967  13.857  69.690  1.00  0.00    -0.081 N  
BRANCH   6  17
HETATM   17  N   UNL     1     -12.900   9.181  66.653  1.00  0.00    11.987 NA 
HETATM   18  N   UNL     1     -11.535   6.759  68.224  1.00  0.00    -0.505 NA 
HETATM   19  C   UNL     1     -12.118   6.459  65.847  1.00  0.00     4.763 C  
HETATM   20  C   UNL     1     -13.513   8.004  67.294  1.00  0.00    20.180 C  
HETATM   21  C   UNL     1     -11.344   7.666  65.339  1.00  0.00     7.626 C  
HETATM   22  C   UNL     1     -12.205   8.932  65.366  1.00  0.00    13.164 C  
HETATM   23  C   UNL     1     -12.643   6.716  67.259  1.00  0.00     7.245 C  
HETATM   24  H1  UNL     1     -11.885   6.931  69.167  1.00  0.00     0.000 HD 
HETATM   25  H2  UNL     1     -10.825   7.440  67.955  1.00  0.00     0.000 HD 
ENDBRANCH   6  17
BRANCH  16  26
HETATM   26  C   UNL     1     -10.361  15.145  70.109  1.00  0.00    -0.121 C  
BRANCH  26  27
HETATM   27  C   UNL     1     -10.509  16.347  69.145  1.00  0.00    -0.303 A  
HETATM   28  N   UNL     1     -10.276  17.590  69.637  1.00  0.00     0.017 NA 
HETATM   29  C   UNL     1     -10.590  18.662  68.874  1.00  0.00     0.301 A  
HETATM   30  C   UNL     1     -11.160  18.533  67.600  1.00  0.00    -0.000 A  
HETATM   31  C   UNL     1     -11.535  19.710  66.875  1.00  0.00     0.540 A  
HETATM   32  C   UNL     1     -11.317  17.212  67.159  1.00  0.00     0.546 A  
HETATM   33  C   UNL     1     -11.330  20.986  67.392  1.00  0.00     3.573 A  
HETATM   34  C   UNL     1     -11.974  16.872  65.851  1.00  0.00     2.581 C  
HETATM   35  N   UNL     1     -10.976  16.133  67.902  1.00  0.00    -0.334 NA 
HETATM   36  C   UNL     1     -10.737  21.112  68.637  1.00  0.00     1.217 A  
HETATM   37  C   UNL     1     -10.377  19.958  69.353  1.00  0.00    -0.022 A  
ENDBRANCH  26  27
ENDBRANCH  16  26
ENDBRANCH   4   5
ENDBRANCH   3   4
TORSDOF 5
ENDMDL
