MODEL        1
REMARK 921   NORMALIZED FREE ENERGY PREDICTED BY IDOCK:   -7.40 KCAL/MOL
REMARK 922        TOTAL FREE ENERGY PREDICTED BY IDOCK:   -9.53 KCAL/MOL
REMARK 923 INTER-LIGAND FREE ENERGY PREDICTED BY IDOCK:   -9.13 KCAL/MOL
REMARK 924 INTRA-LIGAND FREE ENERGY PREDICTED BY IDOCK:   -0.40 KCAL/MOL
REMARK 927      BINDING AFFINITY PREDICTED BY RF-SCORE:    0.00 PKD
ROOT
HETATM    1  C   UNL     1     -10.231  19.915  67.691  1.00  0.00    -0.564 C  
HETATM    2  C   UNL     1     -10.493  19.241  66.372  1.00  0.00    -0.474 C  
HETATM    3  N   UNL     1     -10.388  17.871  66.424  1.00  0.00    -0.374 N  
HETATM    4  O   UNL     1     -10.793  19.859  65.359  1.00  0.00    -0.398 OA 
HETATM    5  H   UNL     1     -10.191  17.422  67.319  1.00  0.00     0.000 HD 
ENDROOT
BRANCH   3   6
HETATM    6  C   UNL     1     -10.549  17.044  65.237  1.00  0.00    -0.080 C  
BRANCH   6   7
HETATM    7  C   UNL     1     -10.670  15.575  65.612  1.00  0.00    -0.366 C  
HETATM    8  C   UNL     1     -10.994  15.332  67.067  1.00  0.00    -0.324 C  
HETATM    9  N   UNL     1     -11.648  14.060  66.989  1.00  0.00    -0.350 N  
HETATM   10  C   UNL     1     -12.200  13.925  65.719  1.00  0.00    -0.460 C  
HETATM   11  O   UNL     1     -12.966  13.073  65.302  1.00  0.00    -0.697 OA 
HETATM   12  O   UNL     1     -11.767  14.960  64.923  1.00  0.00    -0.382 OA 
BRANCH   9  13
HETATM   13  C   UNL     1     -11.726  13.132  68.056  1.00  0.00    -0.355 A  
HETATM   14  C   UNL     1     -12.072  13.542  69.343  1.00  0.00    -0.340 A  
HETATM   15  C   UNL     1     -12.174  12.620  70.387  1.00  0.00    -0.288 A  
HETATM   16  C   UNL     1     -11.926  11.249  70.216  1.00  0.00    -0.379 A  
HETATM   17  F   UNL     1     -12.576  13.092  71.580  1.00  0.00    -0.416 F  
HETATM   18  C   UNL     1     -11.504  11.766  67.852  1.00  0.00    -0.387 A  
HETATM   19  C   UNL     1     -11.605  10.846  68.913  1.00  0.00    -0.378 A  
BRANCH  16  20
HETATM   20  N   UNL     1     -11.940  10.337  71.253  1.00  0.00    -0.373 NA 
HETATM   21  C   UNL     1     -13.148  10.091  72.059  1.00  0.00    -0.441 C  
HETATM   22  C   UNL     1     -13.627   8.647  71.874  1.00  0.00    -0.410 C  
HETATM   23  O   UNL     1     -12.580   7.716  72.203  1.00  0.00    -0.271 OA 
HETATM   24  C   UNL     1     -11.452   7.914  71.334  1.00  0.00    -0.260 C  
HETATM   25  C   UNL     1     -10.875   9.341  71.440  1.00  0.00    -0.364 C  
ENDBRANCH  16  20
ENDBRANCH   9  13
ENDBRANCH   6   7
ENDBRANCH   3   6
TORSDOF 4
ENDMDL
MODEL        2
REMARK 921   NORMALIZED FREE ENERGY PREDICTED BY IDOCK:   -7.15 KCAL/MOL
REMARK 922        TOTAL FREE ENERGY PREDICTED BY IDOCK:   -9.22 KCAL/MOL
REMARK 923 INTER-LIGAND FREE ENERGY PREDICTED BY IDOCK:   -8.90 KCAL/MOL
REMARK 924 INTRA-LIGAND FREE ENERGY PREDICTED BY IDOCK:   -0.31 KCAL/MOL
REMARK 927      BINDING AFFINITY PREDICTED BY RF-SCORE:    0.00 PKD
ROOT
HETATM    1  C   UNL     1      -9.944  19.808  67.806  1.00  0.00    -0.535 C  
HETATM    2  C   UNL     1     -10.375  19.198  66.501  1.00  0.00    -0.442 C  
HETATM    3  N   UNL     1     -10.333  17.824  66.495  1.00  0.00    -0.355 N  
HETATM    4  O   UNL     1     -10.748  19.869  65.546  1.00  0.00    -0.461 OA 
HETATM    5  H   UNL     1     -10.067  17.332  67.348  1.00  0.00     0.000 HD 
ENDROOT
BRANCH   3   6
HETATM    6  C   UNL     1     -10.658  17.052  65.305  1.00  0.00    -0.080 C  
BRANCH   6   7
HETATM    7  C   UNL     1     -10.768  15.571  65.632  1.00  0.00    -0.366 C  
HETATM    8  C   UNL     1     -11.053  15.278  67.086  1.00  0.00    -0.323 C  
HETATM    9  N   UNL     1     -11.708  14.008  66.983  1.00  0.00    -0.376 N  
HETATM   10  C   UNL     1     -12.293  13.916  65.724  1.00  0.00    -0.486 C  
HETATM   11  O   UNL     1     -13.070  13.078  65.298  1.00  0.00    -0.689 OA 
HETATM   12  O   UNL     1     -11.883  14.978  64.952  1.00  0.00    -0.362 OA 
BRANCH   9  13
HETATM   13  C   UNL     1     -11.758  13.045  68.019  1.00  0.00    -0.355 A  
HETATM   14  C   UNL     1     -11.498  11.699  67.764  1.00  0.00    -0.373 A  
HETATM   15  C   UNL     1     -11.521  10.756  68.794  1.00  0.00    -0.295 A  
HETATM   16  C   UNL     1     -11.816  11.092  70.125  1.00  0.00    -0.357 A  
HETATM   17  F   UNL     1     -11.196   9.492  68.471  1.00  0.00    -0.196 F  
HETATM   18  C   UNL     1     -12.024  13.412  69.342  1.00  0.00    -0.369 A  
HETATM   19  C   UNL     1     -12.049  12.452  70.372  1.00  0.00    -0.381 A  
BRANCH  16  20
HETATM   20  N   UNL     1     -11.926  10.161  71.140  1.00  0.00    -0.364 NA 
HETATM   21  C   UNL     1     -13.191   9.938  71.860  1.00  0.00    -0.458 C  
HETATM   22  C   UNL     1     -13.700   8.513  71.614  1.00  0.00    -0.372 C  
HETATM   23  O   UNL     1     -12.705   7.544  71.991  1.00  0.00    -0.286 OA 
HETATM   24  C   UNL     1     -11.516   7.724  71.202  1.00  0.00    -0.274 C  
HETATM   25  C   UNL     1     -10.905   9.130  71.375  1.00  0.00    -0.349 C  
ENDBRANCH  16  20
ENDBRANCH   9  13
ENDBRANCH   6   7
ENDBRANCH   3   6
TORSDOF 4
ENDMDL
MODEL        3
REMARK 921   NORMALIZED FREE ENERGY PREDICTED BY IDOCK:   -6.92 KCAL/MOL
REMARK 922        TOTAL FREE ENERGY PREDICTED BY IDOCK:   -8.94 KCAL/MOL
REMARK 923 INTER-LIGAND FREE ENERGY PREDICTED BY IDOCK:   -8.46 KCAL/MOL
REMARK 924 INTRA-LIGAND FREE ENERGY PREDICTED BY IDOCK:   -0.48 KCAL/MOL
REMARK 927      BINDING AFFINITY PREDICTED BY RF-SCORE:    0.00 PKD
ROOT
HETATM    1  C   UNL     1     -11.080   6.334  69.904  1.00  0.00    -0.469 C  
HETATM    2  C   UNL     1     -12.023   6.950  70.901  1.00  0.00    -0.381 C  
HETATM    3  N   UNL     1     -12.398   8.234  70.584  1.00  0.00    -0.480 N  
HETATM    4  O   UNL     1     -12.430   6.349  71.887  1.00  0.00    -0.337 OA 
HETATM    5  H   UNL     1     -12.063   8.649  69.714  1.00  0.00     0.000 HD 
ENDROOT
BRANCH   3   6
HETATM    6  C   UNL     1     -13.260   9.018  71.456  1.00  0.00    -0.334 C  
BRANCH   6   7
HETATM    7  C   UNL     1     -12.704  10.420  71.650  1.00  0.00    -0.455 C  
HETATM    8  C   UNL     1     -12.424  11.159  70.362  1.00  0.00    -0.299 C  
HETATM    9  N   UNL     1     -12.553  12.518  70.796  1.00  0.00    -0.267 N  
HETATM   10  C   UNL     1     -13.397  12.549  71.901  1.00  0.00    -0.368 C  
HETATM   11  O   UNL     1     -13.889  13.512  72.464  1.00  0.00    -0.660 OA 
HETATM   12  O   UNL     1     -13.659  11.262  72.310  1.00  0.00    -0.244 OA 
BRANCH   9  13
HETATM   13  C   UNL     1     -11.933  13.623  70.164  1.00  0.00    -0.337 A  
HETATM   14  C   UNL     1     -11.850  13.704  68.775  1.00  0.00    -0.395 A  
HETATM   15  C   UNL     1     -11.262  14.809  68.155  1.00  0.00    -0.294 A  
HETATM   16  C   UNL     1     -10.714  15.882  68.875  1.00  0.00    -0.254 A  
HETATM   17  F   UNL     1     -11.282  14.836  66.811  1.00  0.00    -0.315 F  
HETATM   18  C   UNL     1     -11.422  14.694  70.905  1.00  0.00    -0.213 A  
HETATM   19  C   UNL     1     -10.828  15.800  70.270  1.00  0.00    -0.363 A  
BRANCH  16  20
HETATM   20  N   UNL     1     -10.055  16.941  68.282  1.00  0.00    -0.286 NA 
HETATM   21  C   UNL     1      -8.618  16.886  67.966  1.00  0.00    -0.214 C  
HETATM   22  C   UNL     1      -8.401  16.972  66.451  1.00  0.00    -0.284 C  
HETATM   23  O   UNL     1      -9.011  18.161  65.914  1.00  0.00    -0.503 OA 
HETATM   24  C   UNL     1     -10.428  18.139  66.151  1.00  0.00    -0.364 C  
HETATM   25  C   UNL     1     -10.771  18.061  67.653  1.00  0.00    -0.344 C  
ENDBRANCH  16  20
ENDBRANCH   9  13
ENDBRANCH   6   7
ENDBRANCH   3   6
TORSDOF 4
ENDMDL
MODEL        4
REMARK 921   NORMALIZED FREE ENERGY PREDICTED BY IDOCK:   -6.89 KCAL/MOL
REMARK 922        TOTAL FREE ENERGY PREDICTED BY IDOCK:   -8.90 KCAL/MOL
REMARK 923 INTER-LIGAND FREE ENERGY PREDICTED BY IDOCK:   -8.59 KCAL/MOL
REMARK 924 INTRA-LIGAND FREE ENERGY PREDICTED BY IDOCK:   -0.31 KCAL/MOL
REMARK 927      BINDING AFFINITY PREDICTED BY RF-SCORE:    0.00 PKD
ROOT
HETATM    1  C   UNL     1     -10.437  20.049  65.576  1.00  0.00    -0.315 C  
HETATM    2  C   UNL     1     -10.259  19.611  67.003  1.00  0.00    -0.439 C  
HETATM    3  N   UNL     1     -10.365  18.251  67.179  1.00  0.00    -0.368 N  
HETATM    4  O   UNL     1     -10.020  20.395  67.913  1.00  0.00    -0.389 OA 
HETATM    5  H   UNL     1     -10.508  17.655  66.364  1.00  0.00     0.000 HD 
ENDROOT
BRANCH   3   6
HETATM    6  C   UNL     1     -10.280  17.640  68.497  1.00  0.00    -0.386 C  
BRANCH   6   7
HETATM    7  C   UNL     1     -10.364  16.125  68.399  1.00  0.00    -0.257 C  
HETATM    8  C   UNL     1     -10.975  15.458  69.609  1.00  0.00    -0.284 C  
HETATM    9  N   UNL     1     -11.496  14.259  69.023  1.00  0.00    -0.265 N  
HETATM   10  C   UNL     1     -11.748  14.500  67.676  1.00  0.00    -0.382 C  
HETATM   11  O   UNL     1     -12.338  13.803  66.869  1.00  0.00    -0.392 OA 
HETATM   12  O   UNL     1     -11.236  15.729  67.330  1.00  0.00    -0.286 OA 
BRANCH   9  13
HETATM   13  C   UNL     1     -11.730  13.057  69.733  1.00  0.00    -0.276 A  
HETATM   14  C   UNL     1     -12.551  13.034  70.859  1.00  0.00    -0.364 A  
HETATM   15  C   UNL     1     -12.801  11.841  71.541  1.00  0.00    -0.345 A  
HETATM   16  C   UNL     1     -12.241  10.613  71.153  1.00  0.00    -0.374 A  
HETATM   17  F   UNL     1     -13.655  11.898  72.577  1.00  0.00    -0.519 F  
HETATM   18  C   UNL     1     -11.185  11.841  69.306  1.00  0.00    -0.318 A  
HETATM   19  C   UNL     1     -11.440  10.645  70.004  1.00  0.00    -0.404 A  
BRANCH  16  20
HETATM   20  N   UNL     1     -12.410   9.440  71.864  1.00  0.00    -0.375 NA 
HETATM   21  C   UNL     1     -13.739   8.975  72.296  1.00  0.00    -0.492 C  
HETATM   22  C   UNL     1     -14.086   7.647  71.615  1.00  0.00    -0.434 C  
HETATM   23  O   UNL     1     -13.074   6.658  71.878  1.00  0.00    -0.280 OA 
HETATM   24  C   UNL     1     -11.808   7.096  71.357  1.00  0.00    -0.308 C  
HETATM   25  C   UNL     1     -11.348   8.431  71.979  1.00  0.00    -0.342 C  
ENDBRANCH  16  20
ENDBRANCH   9  13
ENDBRANCH   6   7
ENDBRANCH   3   6
TORSDOF 4
ENDMDL
MODEL        5
REMARK 921   NORMALIZED FREE ENERGY PREDICTED BY IDOCK:   -6.82 KCAL/MOL
REMARK 922        TOTAL FREE ENERGY PREDICTED BY IDOCK:   -8.82 KCAL/MOL
REMARK 923 INTER-LIGAND FREE ENERGY PREDICTED BY IDOCK:   -8.54 KCAL/MOL
REMARK 924 INTRA-LIGAND FREE ENERGY PREDICTED BY IDOCK:   -0.28 KCAL/MOL
REMARK 927      BINDING AFFINITY PREDICTED BY RF-SCORE:    0.00 PKD
ROOT
HETATM    1  C   UNL     1     -10.471  11.584  63.080  1.00  0.00    -0.350 C  
HETATM    2  C   UNL     1     -11.558  12.481  63.603  1.00  0.00    -0.504 C  
HETATM    3  N   UNL     1     -11.087  13.571  64.297  1.00  0.00    -0.501 N  
HETATM    4  O   UNL     1     -12.748  12.267  63.405  1.00  0.00    -0.727 OA 
HETATM    5  H   UNL     1     -10.080  13.714  64.371  1.00  0.00     0.000 HD 
ENDROOT
BRANCH   3   6
HETATM    6  C   UNL     1     -11.987  14.524  64.930  1.00  0.00    -0.422 C  
BRANCH   6   7
HETATM    7  C   UNL     1     -12.267  14.131  66.372  1.00  0.00    -0.446 C  
HETATM    8  C   UNL     1     -11.648  12.818  66.787  1.00  0.00    -0.370 C  
HETATM    9  N   UNL     1     -11.509  13.018  68.199  1.00  0.00    -0.297 N  
HETATM   10  C   UNL     1     -11.416  14.384  68.443  1.00  0.00    -0.301 C  
HETATM   11  O   UNL     1     -11.131  14.961  69.478  1.00  0.00    -0.260 OA 
HETATM   12  O   UNL     1     -11.681  15.073  67.282  1.00  0.00    -0.330 OA 
BRANCH   9  13
HETATM   13  C   UNL     1     -11.450  11.975  69.154  1.00  0.00    -0.300 A  
HETATM   14  C   UNL     1     -12.316  11.949  70.246  1.00  0.00    -0.287 A  
HETATM   15  C   UNL     1     -12.273  10.904  71.172  1.00  0.00    -0.336 A  
HETATM   16  C   UNL     1     -11.363   9.839  71.074  1.00  0.00    -0.387 A  
HETATM   17  F   UNL     1     -13.186  10.925  72.158  1.00  0.00    -0.559 F  
HETATM   18  C   UNL     1     -10.555  10.909  69.015  1.00  0.00    -0.248 A  
HETATM   19  C   UNL     1     -10.517   9.863  69.957  1.00  0.00    -0.331 A  
BRANCH  16  20
HETATM   20  N   UNL     1     -11.250   8.843  72.024  1.00  0.00    -0.368 NA 
HETATM   21  C   UNL     1     -12.350   7.906  72.305  1.00  0.00    -0.256 C  
HETATM   22  C   UNL     1     -11.936   6.474  71.947  1.00  0.00    -0.341 C  
HETATM   23  O   UNL     1     -10.736   6.099  72.648  1.00  0.00    -0.208 OA 
HETATM   24  C   UNL     1      -9.655   6.971  72.277  1.00  0.00    -0.149 C  
HETATM   25  C   UNL     1      -9.956   8.449  72.600  1.00  0.00    -0.258 C  
ENDBRANCH  16  20
ENDBRANCH   9  13
ENDBRANCH   6   7
ENDBRANCH   3   6
TORSDOF 4
ENDMDL
MODEL        6
REMARK 921   NORMALIZED FREE ENERGY PREDICTED BY IDOCK:   -6.70 KCAL/MOL
REMARK 922        TOTAL FREE ENERGY PREDICTED BY IDOCK:   -8.67 KCAL/MOL
REMARK 923 INTER-LIGAND FREE ENERGY PREDICTED BY IDOCK:   -8.24 KCAL/MOL
REMARK 924 INTRA-LIGAND FREE ENERGY PREDICTED BY IDOCK:   -0.43 KCAL/MOL
REMARK 927      BINDING AFFINITY PREDICTED BY RF-SCORE:    0.00 PKD
ROOT
HETATM    1  C   UNL     1     -13.388   8.780  72.505  1.00  0.00    -0.403 C  
HETATM    2  C   UNL     1     -12.155   9.149  71.727  1.00  0.00    -0.376 C  
HETATM    3  N   UNL     1     -12.421   9.836  70.566  1.00  0.00    -0.495 N  
HETATM    4  O   UNL     1     -11.024   8.878  72.110  1.00  0.00    -0.362 OA 
HETATM    5  H   UNL     1     -13.387  10.076  70.342  1.00  0.00     0.000 HD 
ENDROOT
BRANCH   3   6
HETATM    6  C   UNL     1     -11.362  10.230  69.649  1.00  0.00    -0.257 C  
BRANCH   6   7
HETATM    7  C   UNL     1     -11.709  11.534  68.948  1.00  0.00    -0.339 C  
HETATM    8  C   UNL     1     -10.535  12.467  68.760  1.00  0.00    -0.154 C  
HETATM    9  N   UNL     1     -10.960  13.206  67.608  1.00  0.00    -0.256 N  
HETATM   10  C   UNL     1     -11.845  12.418  66.880  1.00  0.00    -0.307 C  
HETATM   11  O   UNL     1     -12.303  12.607  65.767  1.00  0.00    -0.594 OA 
HETATM   12  O   UNL     1     -12.154  11.291  67.606  1.00  0.00    -0.600 OA 
BRANCH   9  13
HETATM   13  C   UNL     1     -10.510  14.508  67.282  1.00  0.00    -0.266 A  
HETATM   14  C   UNL     1     -10.827  15.602  68.086  1.00  0.00    -0.301 A  
HETATM   15  C   UNL     1     -10.358  16.881  67.775  1.00  0.00    -0.327 A  
HETATM   16  C   UNL     1      -9.566  17.146  66.647  1.00  0.00    -0.267 A  
HETATM   17  F   UNL     1     -10.658  17.866  68.639  1.00  0.00    -0.340 F  
HETATM   18  C   UNL     1      -9.695  14.739  66.169  1.00  0.00    -0.338 A  
HETATM   19  C   UNL     1      -9.232  16.034  65.862  1.00  0.00    -0.321 A  
BRANCH  16  20
HETATM   20  N   UNL     1      -9.165  18.416  66.279  1.00  0.00    -0.453 NA 
HETATM   21  C   UNL     1     -10.125  19.520  66.115  1.00  0.00    -0.469 C  
HETATM   22  C   UNL     1      -9.849  20.623  67.142  1.00  0.00    -0.357 C  
HETATM   23  O   UNL     1      -8.491  21.090  67.039  1.00  0.00    -0.095 OA 
HETATM   24  C   UNL     1      -7.577  20.012  67.301  1.00  0.00    -0.286 C  
HETATM   25  C   UNL     1      -7.757  18.837  66.317  1.00  0.00    -0.272 C  
ENDBRANCH  16  20
ENDBRANCH   9  13
ENDBRANCH   6   7
ENDBRANCH   3   6
TORSDOF 4
ENDMDL
MODEL        7
REMARK 921   NORMALIZED FREE ENERGY PREDICTED BY IDOCK:   -6.68 KCAL/MOL
REMARK 922        TOTAL FREE ENERGY PREDICTED BY IDOCK:   -8.64 KCAL/MOL
REMARK 923 INTER-LIGAND FREE ENERGY PREDICTED BY IDOCK:   -8.37 KCAL/MOL
REMARK 924 INTRA-LIGAND FREE ENERGY PREDICTED BY IDOCK:   -0.26 KCAL/MOL
REMARK 927      BINDING AFFINITY PREDICTED BY RF-SCORE:    0.00 PKD
ROOT
HETATM    1  C   UNL     1      -6.882  16.856  66.638  1.00  0.00    -0.271 C  
HETATM    2  C   UNL     1      -8.300  16.922  66.141  1.00  0.00    -0.251 C  
HETATM    3  N   UNL     1      -8.887  15.689  65.984  1.00  0.00    -0.386 N  
HETATM    4  O   UNL     1      -8.877  17.980  65.921  1.00  0.00    -0.504 OA 
HETATM    5  H   UNL     1      -8.362  14.853  66.243  1.00  0.00     0.000 HD 
ENDROOT
BRANCH   3   6
HETATM    6  C   UNL     1     -10.236  15.543  65.457  1.00  0.00    -0.386 C  
BRANCH   6   7
HETATM    7  C   UNL     1     -11.176  14.994  66.519  1.00  0.00    -0.312 C  
HETATM    8  C   UNL     1     -10.670  13.749  67.210  1.00  0.00    -0.283 C  
HETATM    9  N   UNL     1     -11.344  13.847  68.470  1.00  0.00    -0.261 N  
HETATM   10  C   UNL     1     -11.621  15.187  68.719  1.00  0.00    -0.349 C  
HETATM   11  O   UNL     1     -12.033  15.708  69.741  1.00  0.00    -0.346 OA 
HETATM   12  O   UNL     1     -11.331  15.928  67.597  1.00  0.00    -0.270 OA 
BRANCH   9  13
HETATM   13  C   UNL     1     -11.636  12.745  69.310  1.00  0.00    -0.314 A  
HETATM   14  C   UNL     1     -12.398  12.903  70.467  1.00  0.00    -0.362 A  
HETATM   15  C   UNL     1     -12.706  11.809  71.278  1.00  0.00    -0.316 A  
HETATM   16  C   UNL     1     -12.267  10.506  70.996  1.00  0.00    -0.400 A  
HETATM   17  F   UNL     1     -13.499  12.041  72.339  1.00  0.00    -0.612 F  
HETATM   18  C   UNL     1     -11.212  11.451  68.988  1.00  0.00    -0.319 A  
HETATM   19  C   UNL     1     -11.525  10.356  69.816  1.00  0.00    -0.348 A  
BRANCH  16  20
HETATM   20  N   UNL     1     -12.491   9.428  71.830  1.00  0.00    -0.366 NA 
HETATM   21  C   UNL     1     -13.840   8.877  72.045  1.00  0.00    -0.456 C  
HETATM   22  C   UNL     1     -13.917   7.438  71.523  1.00  0.00    -0.396 C  
HETATM   23  O   UNL     1     -12.910   6.616  72.140  1.00  0.00    -0.215 OA 
HETATM   24  C   UNL     1     -11.601   7.121  71.830  1.00  0.00    -0.280 C  
HETATM   25  C   UNL     1     -11.401   8.571  72.318  1.00  0.00    -0.371 C  
ENDBRANCH  16  20
ENDBRANCH   9  13
ENDBRANCH   6   7
ENDBRANCH   3   6
TORSDOF 4
ENDMDL
MODEL        8
REMARK 921   NORMALIZED FREE ENERGY PREDICTED BY IDOCK:   -6.68 KCAL/MOL
REMARK 922        TOTAL FREE ENERGY PREDICTED BY IDOCK:   -8.64 KCAL/MOL
REMARK 923 INTER-LIGAND FREE ENERGY PREDICTED BY IDOCK:   -8.19 KCAL/MOL
REMARK 924 INTRA-LIGAND FREE ENERGY PREDICTED BY IDOCK:   -0.44 KCAL/MOL
REMARK 927      BINDING AFFINITY PREDICTED BY RF-SCORE:    0.00 PKD
ROOT
HETATM    1  C   UNL     1     -10.220  18.094  66.216  1.00  0.00    -0.401 C  
HETATM    2  C   UNL     1     -10.783  16.831  65.627  1.00  0.00    -0.192 C  
HETATM    3  N   UNL     1     -10.940  15.818  66.544  1.00  0.00    -0.230 N  
HETATM    4  O   UNL     1     -11.091  16.730  64.446  1.00  0.00    -1.072 OA 
HETATM    5  H   UNL     1     -10.716  15.996  67.523  1.00  0.00     0.000 HD 
ENDROOT
BRANCH   3   6
HETATM    6  C   UNL     1     -11.417  14.499  66.154  1.00  0.00    -0.357 C  
BRANCH   6   7
HETATM    7  C   UNL     1     -12.014  13.766  67.345  1.00  0.00    -0.388 C  
HETATM    8  C   UNL     1     -11.233  12.545  67.775  1.00  0.00    -0.269 C  
HETATM    9  N   UNL     1     -11.591  12.470  69.160  1.00  0.00    -0.301 N  
HETATM   10  C   UNL     1     -11.934  13.745  69.597  1.00  0.00    -0.342 C  
HETATM   11  O   UNL     1     -12.139  14.138  70.732  1.00  0.00    -0.322 OA 
HETATM   12  O   UNL     1     -11.999  14.594  68.516  1.00  0.00    -0.315 OA 
BRANCH   9  13
HETATM   13  C   UNL     1     -11.559  11.283  69.932  1.00  0.00    -0.334 A  
HETATM   14  C   UNL     1     -12.557  11.004  70.864  1.00  0.00    -0.488 A  
HETATM   15  C   UNL     1     -12.537   9.820  71.605  1.00  0.00    -0.416 A  
HETATM   16  C   UNL     1     -11.522   8.859  71.472  1.00  0.00    -0.321 A  
HETATM   17  F   UNL     1     -13.572   9.601  72.434  1.00  0.00    -0.461 F  
HETATM   18  C   UNL     1     -10.553  10.328  69.758  1.00  0.00    -0.312 A  
HETATM   19  C   UNL     1     -10.540   9.139  70.513  1.00  0.00    -0.287 A  
BRANCH  16  20
HETATM   20  N   UNL     1     -11.441   7.723  72.255  1.00  0.00    -0.309 NA 
HETATM   21  C   UNL     1     -12.004   6.435  71.819  1.00  0.00    -0.316 C  
HETATM   22  C   UNL     1     -10.889   5.397  71.646  1.00  0.00    -0.162 C  
HETATM   23  O   UNL     1     -10.132   5.254  72.861  1.00  0.00    -0.166 OA 
HETATM   24  C   UNL     1      -9.513   6.504  73.208  1.00  0.00    -0.143 C  
HETATM   25  C   UNL     1     -10.545   7.631  73.417  1.00  0.00    -0.293 C  
ENDBRANCH  16  20
ENDBRANCH   9  13
ENDBRANCH   6   7
ENDBRANCH   3   6
TORSDOF 4
ENDMDL
MODEL        9
REMARK 921   NORMALIZED FREE ENERGY PREDICTED BY IDOCK:   -6.61 KCAL/MOL
REMARK 922        TOTAL FREE ENERGY PREDICTED BY IDOCK:   -8.56 KCAL/MOL
REMARK 923 INTER-LIGAND FREE ENERGY PREDICTED BY IDOCK:   -7.94 KCAL/MOL
REMARK 924 INTRA-LIGAND FREE ENERGY PREDICTED BY IDOCK:   -0.61 KCAL/MOL
REMARK 927      BINDING AFFINITY PREDICTED BY RF-SCORE:    0.00 PKD
ROOT
HETATM    1  C   UNL     1      -9.411  19.002  67.035  1.00  0.00    -0.345 C  
HETATM    2  C   UNL     1     -10.384  18.536  65.987  1.00  0.00    -0.393 C  
HETATM    3  N   UNL     1     -10.371  17.175  65.790  1.00  0.00    -0.300 N  
HETATM    4  O   UNL     1     -11.129  19.300  65.387  1.00  0.00    -0.384 OA 
HETATM    5  H   UNL     1      -9.763  16.596  66.369  1.00  0.00     0.000 HD 
ENDROOT
BRANCH   3   6
HETATM    6  C   UNL     1     -11.200  16.540  64.777  1.00  0.00    -0.143 C  
BRANCH   6   7
HETATM    7  C   UNL     1     -11.123  15.025  64.885  1.00  0.00    -0.415 C  
HETATM    8  C   UNL     1     -10.986  14.511  66.299  1.00  0.00    -0.323 C  
HETATM    9  N   UNL     1     -11.562  13.206  66.170  1.00  0.00    -0.338 N  
HETATM   10  C   UNL     1     -12.458  13.224  65.106  1.00  0.00    -0.470 C  
HETATM   11  O   UNL     1     -13.266  12.375  64.769  1.00  0.00    -0.784 OA 
HETATM   12  O   UNL     1     -12.340  14.416  64.431  1.00  0.00    -0.571 OA 
BRANCH   9  13
HETATM   13  C   UNL     1     -11.269  12.113  67.020  1.00  0.00    -0.314 A  
HETATM   14  C   UNL     1     -11.961  11.923  68.215  1.00  0.00    -0.235 A  
HETATM   15  C   UNL     1     -11.686  10.828  69.037  1.00  0.00    -0.286 A  
HETATM   16  C   UNL     1     -10.705   9.873  68.729  1.00  0.00    -0.220 A  
HETATM   17  F   UNL     1     -12.445  10.687  70.138  1.00  0.00    -0.346 F  
HETATM   18  C   UNL     1     -10.306  11.158  66.673  1.00  0.00    -0.286 A  
HETATM   19  C   UNL     1     -10.035  10.061  67.512  1.00  0.00    -0.232 A  
BRANCH  16  20
HETATM   20  N   UNL     1     -10.362   8.832  69.570  1.00  0.00    -0.209 NA 
HETATM   21  C   UNL     1      -9.837   9.066  70.925  1.00  0.00    -0.264 C  
HETATM   22  C   UNL     1     -10.804   8.508  71.975  1.00  0.00    -0.335 C  
HETATM   23  O   UNL     1     -11.057   7.110  71.745  1.00  0.00    -0.231 OA 
HETATM   24  C   UNL     1     -11.661   6.923  70.454  1.00  0.00    -0.335 C  
HETATM   25  C   UNL     1     -10.769   7.444  69.309  1.00  0.00    -0.185 C  
ENDBRANCH  16  20
ENDBRANCH   9  13
ENDBRANCH   6   7
ENDBRANCH   3   6
TORSDOF 4
ENDMDL
MODEL       10
REMARK 921   NORMALIZED FREE ENERGY PREDICTED BY IDOCK:   -6.61 KCAL/MOL
REMARK 922        TOTAL FREE ENERGY PREDICTED BY IDOCK:   -8.55 KCAL/MOL
REMARK 923 INTER-LIGAND FREE ENERGY PREDICTED BY IDOCK:   -7.91 KCAL/MOL
REMARK 924 INTRA-LIGAND FREE ENERGY PREDICTED BY IDOCK:   -0.64 KCAL/MOL
REMARK 927      BINDING AFFINITY PREDICTED BY RF-SCORE:    0.00 PKD
ROOT
HETATM    1  C   UNL     1     -13.231   9.096  72.222  1.00  0.00    -0.528 C  
HETATM    2  C   UNL     1     -12.101   9.480  71.308  1.00  0.00    -0.360 C  
HETATM    3  N   UNL     1     -12.518   9.977  70.095  1.00  0.00    -0.513 N  
HETATM    4  O   UNL     1     -10.923   9.378  71.630  1.00  0.00    -0.369 OA 
HETATM    5  H   UNL     1     -13.516  10.087  69.921  1.00  0.00     0.000 HD 
ENDROOT
BRANCH   3   6
HETATM    6  C   UNL     1     -11.572  10.350  69.054  1.00  0.00    -0.150 C  
BRANCH   6   7
HETATM    7  C   UNL     1     -11.826  11.770  68.573  1.00  0.00    -0.303 C  
HETATM    8  C   UNL     1     -10.625  12.681  68.670  1.00  0.00    -0.222 C  
HETATM    9  N   UNL     1     -10.922  13.630  67.639  1.00  0.00    -0.263 N  
HETATM   10  C   UNL     1     -11.743  13.016  66.698  1.00  0.00    -0.381 C  
HETATM   11  O   UNL     1     -12.085  13.418  65.600  1.00  0.00    -0.383 OA 
HETATM   12  O   UNL     1     -12.140  11.788  67.174  1.00  0.00    -0.592 OA 
BRANCH   9  13
HETATM   13  C   UNL     1     -10.421  14.954  67.599  1.00  0.00    -0.249 A  
HETATM   14  C   UNL     1      -9.268  15.266  66.882  1.00  0.00    -0.255 A  
HETATM   15  C   UNL     1      -8.792  16.578  66.824  1.00  0.00    -0.226 A  
HETATM   16  C   UNL     1      -9.423  17.645  67.483  1.00  0.00    -0.256 A  
HETATM   17  F   UNL     1      -7.711  16.801  66.056  1.00  0.00    -0.325 F  
HETATM   18  C   UNL     1     -11.087  16.003  68.240  1.00  0.00    -0.351 A  
HETATM   19  C   UNL     1     -10.596  17.322  68.178  1.00  0.00    -0.386 A  
BRANCH  16  20
HETATM   20  N   UNL     1      -8.921  18.932  67.505  1.00  0.00    -0.283 NA 
HETATM   21  C   UNL     1      -8.093  19.426  68.618  1.00  0.00    -0.366 C  
HETATM   22  C   UNL     1      -6.682  19.764  68.124  1.00  0.00    -0.273 C  
HETATM   23  O   UNL     1      -6.733  20.716  67.046  1.00  0.00    -0.243 OA 
HETATM   24  C   UNL     1      -7.463  20.167  65.936  1.00  0.00    -0.261 C  
HETATM   25  C   UNL     1      -8.912  19.793  66.314  1.00  0.00    -0.376 C  
ENDBRANCH  16  20
ENDBRANCH   9  13
ENDBRANCH   6   7
ENDBRANCH   3   6
TORSDOF 4
ENDMDL
MODEL       11
REMARK 921   NORMALIZED FREE ENERGY PREDICTED BY IDOCK:   -6.60 KCAL/MOL
REMARK 922        TOTAL FREE ENERGY PREDICTED BY IDOCK:   -8.54 KCAL/MOL
REMARK 923 INTER-LIGAND FREE ENERGY PREDICTED BY IDOCK:   -8.10 KCAL/MOL
REMARK 924 INTRA-LIGAND FREE ENERGY PREDICTED BY IDOCK:   -0.44 KCAL/MOL
REMARK 927      BINDING AFFINITY PREDICTED BY RF-SCORE:    0.00 PKD
ROOT
HETATM    1  C   UNL     1     -10.910   7.825  70.114  1.00  0.00    -0.248 C  
HETATM    2  C   UNL     1     -11.487   8.649  71.231  1.00  0.00    -0.283 C  
HETATM    3  N   UNL     1     -12.581   9.395  70.858  1.00  0.00    -0.489 N  
HETATM    4  O   UNL     1     -11.033   8.635  72.369  1.00  0.00    -0.353 OA 
HETATM    5  H   UNL     1     -12.937   9.310  69.906  1.00  0.00     0.000 HD 
ENDROOT
BRANCH   3   6
HETATM    6  C   UNL     1     -13.243  10.301  71.784  1.00  0.00    -0.430 C  
BRANCH   6   7
HETATM    7  C   UNL     1     -12.661  11.702  71.682  1.00  0.00    -0.270 C  
HETATM    8  C   UNL     1     -12.370  12.150  70.268  1.00  0.00    -0.191 C  
HETATM    9  N   UNL     1     -12.473  13.572  70.409  1.00  0.00    -0.305 N  
HETATM   10  C   UNL     1     -13.314  13.849  71.481  1.00  0.00    -0.335 C  
HETATM   11  O   UNL     1     -13.786  14.918  71.829  1.00  0.00    -0.378 OA 
HETATM   12  O   UNL     1     -13.599  12.681  72.150  1.00  0.00    -0.517 OA 
BRANCH   9  13
HETATM   13  C   UNL     1     -11.835  14.509  69.560  1.00  0.00    -0.329 A  
HETATM   14  C   UNL     1     -11.768  14.304  68.183  1.00  0.00    -0.385 A  
HETATM   15  C   UNL     1     -11.161  15.244  67.347  1.00  0.00    -0.326 A  
HETATM   16  C   UNL     1     -10.577  16.426  67.830  1.00  0.00    -0.321 A  
HETATM   17  F   UNL     1     -11.198  14.998  66.025  1.00  0.00    -0.335 F  
HETATM   18  C   UNL     1     -11.288  15.693  70.064  1.00  0.00    -0.341 A  
HETATM   19  C   UNL     1     -10.675  16.632  69.212  1.00  0.00    -0.337 A  
BRANCH  16  20
HETATM   20  N   UNL     1      -9.899  17.324  67.028  1.00  0.00    -0.271 NA 
HETATM   21  C   UNL     1     -10.588  18.128  66.004  1.00  0.00    -0.264 C  
HETATM   22  C   UNL     1     -10.492  19.619  66.344  1.00  0.00    -0.513 C  
HETATM   23  O   UNL     1      -9.118  20.023  66.490  1.00  0.00    -0.354 OA 
HETATM   24  C   UNL     1      -8.500  19.291  67.563  1.00  0.00    -0.291 C  
HETATM   25  C   UNL     1      -8.530  17.767  67.326  1.00  0.00    -0.231 C  
ENDBRANCH  16  20
ENDBRANCH   9  13
ENDBRANCH   6   7
ENDBRANCH   3   6
TORSDOF 4
ENDMDL
MODEL       12
REMARK 921   NORMALIZED FREE ENERGY PREDICTED BY IDOCK:   -6.58 KCAL/MOL
REMARK 922        TOTAL FREE ENERGY PREDICTED BY IDOCK:   -8.51 KCAL/MOL
REMARK 923 INTER-LIGAND FREE ENERGY PREDICTED BY IDOCK:   -7.95 KCAL/MOL
REMARK 924 INTRA-LIGAND FREE ENERGY PREDICTED BY IDOCK:   -0.56 KCAL/MOL
REMARK 927      BINDING AFFINITY PREDICTED BY RF-SCORE:    0.00 PKD
ROOT
HETATM    1  C   UNL     1     -13.891  15.748  72.776  1.00  0.00    -0.600 C  
HETATM    2  C   UNL     1     -12.854  15.724  71.687  1.00  0.00    -0.448 C  
HETATM    3  N   UNL     1     -13.278  15.101  70.537  1.00  0.00    -0.676 N  
HETATM    4  O   UNL     1     -11.747  16.233  71.813  1.00  0.00    -0.486 OA 
HETATM    5  H   UNL     1     -14.235  14.752  70.485  1.00  0.00     0.000 HD 
ENDROOT
BRANCH   3   6
HETATM    6  C   UNL     1     -12.397  14.926  69.391  1.00  0.00    -0.133 C  
BRANCH   6   7
HETATM    7  C   UNL     1     -11.666  13.595  69.467  1.00  0.00    -0.322 C  
HETATM    8  C   UNL     1     -12.193  12.659  70.529  1.00  0.00    -0.299 C  
HETATM    9  N   UNL     1     -11.824  11.389  69.977  1.00  0.00    -0.333 N  
HETATM   10  C   UNL     1     -11.733  11.519  68.595  1.00  0.00    -0.326 C  
HETATM   11  O   UNL     1     -11.604  10.650  67.750  1.00  0.00    -0.501 OA 
HETATM   12  O   UNL     1     -11.837  12.847  68.255  1.00  0.00    -0.329 OA 
BRANCH   9  13
HETATM   13  C   UNL     1     -11.622  10.213  70.739  1.00  0.00    -0.357 A  
HETATM   14  C   UNL     1     -10.355   9.645  70.865  1.00  0.00    -0.334 A  
HETATM   15  C   UNL     1     -10.155   8.500  71.640  1.00  0.00    -0.268 A  
HETATM   16  C   UNL     1     -11.199   7.850  72.317  1.00  0.00    -0.331 A  
HETATM   17  F   UNL     1      -8.891   8.057  71.759  1.00  0.00    -0.127 F  
HETATM   18  C   UNL     1     -12.674   9.603  71.430  1.00  0.00    -0.466 A  
HETATM   19  C   UNL     1     -12.462   8.446  72.204  1.00  0.00    -0.422 A  
BRANCH  16  20
HETATM   20  N   UNL     1     -11.035   6.671  73.018  1.00  0.00    -0.262 NA 
HETATM   21  C   UNL     1     -11.343   5.360  72.421  1.00  0.00    -0.179 C  
HETATM   22  C   UNL     1     -10.071   4.512  72.313  1.00  0.00    -0.191 C  
HETATM   23  O   UNL     1      -9.442   4.367  73.599  1.00  0.00    -0.116 OA 
HETATM   24  C   UNL     1      -9.064   5.656  74.111  1.00  0.00    -0.122 C  
HETATM   25  C   UNL     1     -10.272   6.601  74.272  1.00  0.00    -0.326 C  
ENDBRANCH  16  20
ENDBRANCH   9  13
ENDBRANCH   6   7
ENDBRANCH   3   6
TORSDOF 4
ENDMDL
MODEL       13
REMARK 921   NORMALIZED FREE ENERGY PREDICTED BY IDOCK:   -6.58 KCAL/MOL
REMARK 922        TOTAL FREE ENERGY PREDICTED BY IDOCK:   -8.51 KCAL/MOL
REMARK 923 INTER-LIGAND FREE ENERGY PREDICTED BY IDOCK:   -7.78 KCAL/MOL
REMARK 924 INTRA-LIGAND FREE ENERGY PREDICTED BY IDOCK:   -0.73 KCAL/MOL
REMARK 927      BINDING AFFINITY PREDICTED BY RF-SCORE:    0.00 PKD
ROOT
HETATM    1  C   UNL     1     -11.490   8.000  72.570  1.00  0.00    -0.471 C  
HETATM    2  C   UNL     1     -10.684   8.711  71.518  1.00  0.00    -0.282 C  
HETATM    3  N   UNL     1     -11.289   8.733  70.283  1.00  0.00    -0.408 N  
HETATM    4  O   UNL     1      -9.603   9.236  71.752  1.00  0.00    -0.291 OA 
HETATM    5  H   UNL     1     -12.217   8.325  70.177  1.00  0.00     0.000 HD 
ENDROOT
BRANCH   3   6
HETATM    6  C   UNL     1     -10.639   9.324  69.122  1.00  0.00    -0.212 C  
BRANCH   6   7
HETATM    7  C   UNL     1     -11.252  10.675  68.787  1.00  0.00    -0.279 C  
HETATM    8  C   UNL     1     -10.275  11.826  68.826  1.00  0.00    -0.160 C  
HETATM    9  N   UNL     1     -10.894  12.738  67.911  1.00  0.00    -0.214 N  
HETATM   10  C   UNL     1     -11.672  12.007  67.019  1.00  0.00    -0.267 C  
HETATM   11  O   UNL     1     -12.226  12.381  66.000  1.00  0.00    -0.636 OA 
HETATM   12  O   UNL     1     -11.733  10.698  67.436  1.00  0.00    -0.391 OA 
BRANCH   9  13
HETATM   13  C   UNL     1     -10.700  14.141  67.924  1.00  0.00    -0.240 A  
HETATM   14  C   UNL     1      -9.774  14.747  67.078  1.00  0.00    -0.242 A  
HETATM   15  C   UNL     1      -9.605  16.134  67.075  1.00  0.00    -0.224 A  
HETATM   16  C   UNL     1     -10.332  16.990  67.917  1.00  0.00    -0.338 A  
HETATM   17  F   UNL     1      -8.737  16.640  66.181  1.00  0.00    -0.290 F  
HETATM   18  C   UNL     1     -11.460  14.973  68.752  1.00  0.00    -0.337 A  
HETATM   19  C   UNL     1     -11.279  16.370  68.744  1.00  0.00    -0.313 A  
BRANCH  16  20
HETATM   20  N   UNL     1     -10.119  18.353  67.987  1.00  0.00    -0.349 NA 
HETATM   21  C   UNL     1      -8.962  18.925  68.695  1.00  0.00    -0.350 C  
HETATM   22  C   UNL     1      -8.047  19.664  67.711  1.00  0.00    -0.301 C  
HETATM   23  O   UNL     1      -8.778  20.677  66.997  1.00  0.00    -0.281 OA 
HETATM   24  C   UNL     1      -9.839  20.076  66.236  1.00  0.00    -0.462 C  
HETATM   25  C   UNL     1     -10.836  19.306  67.128  1.00  0.00    -0.440 C  
ENDBRANCH  16  20
ENDBRANCH   9  13
ENDBRANCH   6   7
ENDBRANCH   3   6
TORSDOF 4
ENDMDL
MODEL       14
REMARK 921   NORMALIZED FREE ENERGY PREDICTED BY IDOCK:   -6.57 KCAL/MOL
REMARK 922        TOTAL FREE ENERGY PREDICTED BY IDOCK:   -8.50 KCAL/MOL
REMARK 923 INTER-LIGAND FREE ENERGY PREDICTED BY IDOCK:   -7.91 KCAL/MOL
REMARK 924 INTRA-LIGAND FREE ENERGY PREDICTED BY IDOCK:   -0.59 KCAL/MOL
REMARK 927      BINDING AFFINITY PREDICTED BY RF-SCORE:    0.00 PKD
ROOT
HETATM    1  C   UNL     1     -13.385   9.481  71.906  1.00  0.00    -0.518 C  
HETATM    2  C   UNL     1     -12.206   9.899  71.071  1.00  0.00    -0.353 C  
HETATM    3  N   UNL     1     -12.556  10.461  69.866  1.00  0.00    -0.551 N  
HETATM    4  O   UNL     1     -11.047   9.768  71.447  1.00  0.00    -0.359 OA 
HETATM    5  H   UNL     1     -13.543  10.591  69.647  1.00  0.00     0.000 HD 
ENDROOT
BRANCH   3   6
HETATM    6  C   UNL     1     -11.555  10.876  68.894  1.00  0.00    -0.309 C  
BRANCH   6   7
HETATM    7  C   UNL     1     -11.732  12.340  68.525  1.00  0.00    -0.331 C  
HETATM    8  C   UNL     1     -10.440  13.118  68.439  1.00  0.00    -0.253 C  
HETATM    9  N   UNL     1     -10.807  14.151  67.516  1.00  0.00    -0.272 N  
HETATM   10  C   UNL     1     -11.843  13.679  66.716  1.00  0.00    -0.413 C  
HETATM   11  O   UNL     1     -12.327  14.178  65.715  1.00  0.00    -0.438 OA 
HETATM   12  O   UNL     1     -12.283  12.472  67.207  1.00  0.00    -0.454 OA 
BRANCH   9  13
HETATM   13  C   UNL     1     -10.179  15.417  67.439  1.00  0.00    -0.249 A  
HETATM   14  C   UNL     1     -10.581  16.472  68.258  1.00  0.00    -0.326 A  
HETATM   15  C   UNL     1      -9.940  17.711  68.198  1.00  0.00    -0.330 A  
HETATM   16  C   UNL     1      -8.880  17.977  67.317  1.00  0.00    -0.247 A  
HETATM   17  F   UNL     1     -10.349  18.652  69.068  1.00  0.00    -0.389 F  
HETATM   18  C   UNL     1      -9.104  15.646  66.574  1.00  0.00    -0.337 A  
HETATM   19  C   UNL     1      -8.468  16.901  66.519  1.00  0.00    -0.307 A  
BRANCH  16  20
HETATM   20  N   UNL     1      -8.292  19.220  67.185  1.00  0.00    -0.275 NA 
HETATM   21  C   UNL     1      -7.377  19.761  68.204  1.00  0.00    -0.303 C  
HETATM   22  C   UNL     1      -5.973  19.945  67.616  1.00  0.00    -0.189 C  
HETATM   23  O   UNL     1      -6.015  20.787  66.449  1.00  0.00    -0.193 OA 
HETATM   24  C   UNL     1      -6.836  20.185  65.435  1.00  0.00    -0.306 C  
HETATM   25  C   UNL     1      -8.285  19.956  65.913  1.00  0.00    -0.211 C  
ENDBRANCH  16  20
ENDBRANCH   9  13
ENDBRANCH   6   7
ENDBRANCH   3   6
TORSDOF 4
ENDMDL
MODEL       15
REMARK 921   NORMALIZED FREE ENERGY PREDICTED BY IDOCK:   -6.50 KCAL/MOL
REMARK 922        TOTAL FREE ENERGY PREDICTED BY IDOCK:   -8.42 KCAL/MOL
REMARK 923 INTER-LIGAND FREE ENERGY PREDICTED BY IDOCK:   -7.87 KCAL/MOL
REMARK 924 INTRA-LIGAND FREE ENERGY PREDICTED BY IDOCK:   -0.55 KCAL/MOL
REMARK 927      BINDING AFFINITY PREDICTED BY RF-SCORE:    0.00 PKD
ROOT
HETATM    1  C   UNL     1     -12.645  12.200  63.338  1.00  0.00    -0.584 C  
HETATM    2  C   UNL     1     -11.842  12.556  64.559  1.00  0.00    -0.383 C  
HETATM    3  N   UNL     1     -12.448  13.494  65.361  1.00  0.00    -0.474 N  
HETATM    4  O   UNL     1     -10.763  12.039  64.818  1.00  0.00    -0.282 OA 
HETATM    5  H   UNL     1     -13.375  13.838  65.110  1.00  0.00     0.000 HD 
ENDROOT
BRANCH   3   6
HETATM    6  C   UNL     1     -11.802  14.011  66.559  1.00  0.00    -0.417 C  
BRANCH   6   7
HETATM    7  C   UNL     1     -12.278  13.266  67.796  1.00  0.00    -0.113 C  
HETATM    8  C   UNL     1     -11.420  12.081  68.173  1.00  0.00    -0.322 C  
HETATM    9  N   UNL     1     -11.669  12.004  69.582  1.00  0.00    -0.324 N  
HETATM   10  C   UNL     1     -12.029  13.270  70.035  1.00  0.00    -0.329 C  
HETATM   11  O   UNL     1     -12.164  13.665  71.180  1.00  0.00    -0.344 OA 
HETATM   12  O   UNL     1     -12.209  14.105  68.957  1.00  0.00    -0.332 OA 
BRANCH   9  13
HETATM   13  C   UNL     1     -11.533  10.828  70.357  1.00  0.00    -0.307 A  
HETATM   14  C   UNL     1     -12.554  10.401  71.204  1.00  0.00    -0.512 A  
HETATM   15  C   UNL     1     -12.426   9.225  71.947  1.00  0.00    -0.382 A  
HETATM   16  C   UNL     1     -11.278   8.419  71.901  1.00  0.00    -0.311 A  
HETATM   17  F   UNL     1     -13.485   8.854  72.689  1.00  0.00    -0.433 F  
HETATM   18  C   UNL     1     -10.390  10.026  70.268  1.00  0.00    -0.301 A  
HETATM   19  C   UNL     1     -10.270   8.844  71.025  1.00  0.00    -0.322 A  
BRANCH  16  20
HETATM   20  N   UNL     1     -11.101   7.299  72.691  1.00  0.00    -0.291 NA 
HETATM   21  C   UNL     1     -11.604   5.975  72.289  1.00  0.00    -0.307 C  
HETATM   22  C   UNL     1     -10.438   5.002  72.082  1.00  0.00    -0.210 C  
HETATM   23  O   UNL     1      -9.627   4.917  73.269  1.00  0.00    -0.129 OA 
HETATM   24  C   UNL     1      -9.070   6.205  73.579  1.00  0.00    -0.127 C  
HETATM   25  C   UNL     1     -10.158   7.272  73.818  1.00  0.00    -0.329 C  
ENDBRANCH  16  20
ENDBRANCH   9  13
ENDBRANCH   6   7
ENDBRANCH   3   6
TORSDOF 4
ENDMDL
MODEL       16
REMARK 921   NORMALIZED FREE ENERGY PREDICTED BY IDOCK:   -6.49 KCAL/MOL
REMARK 922        TOTAL FREE ENERGY PREDICTED BY IDOCK:   -8.41 KCAL/MOL
REMARK 923 INTER-LIGAND FREE ENERGY PREDICTED BY IDOCK:   -8.03 KCAL/MOL
REMARK 924 INTRA-LIGAND FREE ENERGY PREDICTED BY IDOCK:   -0.38 KCAL/MOL
REMARK 927      BINDING AFFINITY PREDICTED BY RF-SCORE:    0.00 PKD
ROOT
HETATM    1  C   UNL     1      -9.337  10.490  62.420  1.00  0.00    -0.281 C  
HETATM    2  C   UNL     1     -10.253  10.989  63.503  1.00  0.00    -0.365 C  
HETATM    3  N   UNL     1     -11.013  12.071  63.126  1.00  0.00    -0.692 N  
HETATM    4  O   UNL     1     -10.324  10.462  64.606  1.00  0.00    -0.314 OA 
HETATM    5  H   UNL     1     -10.941  12.420  62.170  1.00  0.00     0.000 HD 
ENDROOT
BRANCH   3   6
HETATM    6  C   UNL     1     -11.918  12.733  64.055  1.00  0.00    -0.447 C  
BRANCH   6   7
HETATM    7  C   UNL     1     -11.150  13.351  65.212  1.00  0.00    -0.291 C  
HETATM    8  C   UNL     1     -10.840  14.819  65.036  1.00  0.00    -0.425 C  
HETATM    9  N   UNL     1     -10.740  15.240  66.402  1.00  0.00    -0.314 N  
HETATM   10  C   UNL     1     -11.503  14.380  67.185  1.00  0.00    -0.362 C  
HETATM   11  O   UNL     1     -11.812  14.484  68.360  1.00  0.00    -0.323 OA 
HETATM   12  O   UNL     1     -11.928  13.322  66.417  1.00  0.00    -0.384 OA 
BRANCH   9  13
HETATM   13  C   UNL     1     -10.002  16.366  66.841  1.00  0.00    -0.271 A  
HETATM   14  C   UNL     1     -10.643  17.549  67.206  1.00  0.00    -0.287 A  
HETATM   15  C   UNL     1      -9.914  18.649  67.664  1.00  0.00    -0.341 A  
HETATM   16  C   UNL     1      -8.514  18.640  67.772  1.00  0.00    -0.275 A  
HETATM   17  F   UNL     1     -10.616  19.726  68.056  1.00  0.00    -0.514 F  
HETATM   18  C   UNL     1      -8.610  16.320  66.968  1.00  0.00    -0.227 A  
HETATM   19  C   UNL     1      -7.884  17.437  67.427  1.00  0.00    -0.212 A  
BRANCH  16  20
HETATM   20  N   UNL     1      -7.771  19.745  68.142  1.00  0.00    -0.303 NA 
HETATM   21  C   UNL     1      -6.803  19.696  69.251  1.00  0.00    -0.355 C  
HETATM   22  C   UNL     1      -5.383  19.942  68.730  1.00  0.00    -0.203 C  
HETATM   23  O   UNL     1      -5.308  21.193  68.023  1.00  0.00    -0.268 OA 
HETATM   24  C   UNL     1      -6.190  21.173  66.888  1.00  0.00    -0.321 C  
HETATM   25  C   UNL     1      -7.661  20.939  67.293  1.00  0.00    -0.256 C  
ENDBRANCH  16  20
ENDBRANCH   9  13
ENDBRANCH   6   7
ENDBRANCH   3   6
TORSDOF 4
ENDMDL
MODEL       17
REMARK 921   NORMALIZED FREE ENERGY PREDICTED BY IDOCK:   -6.43 KCAL/MOL
REMARK 922        TOTAL FREE ENERGY PREDICTED BY IDOCK:   -8.33 KCAL/MOL
REMARK 923 INTER-LIGAND FREE ENERGY PREDICTED BY IDOCK:   -7.64 KCAL/MOL
REMARK 924 INTRA-LIGAND FREE ENERGY PREDICTED BY IDOCK:   -0.69 KCAL/MOL
REMARK 927      BINDING AFFINITY PREDICTED BY RF-SCORE:    0.00 PKD
ROOT
HETATM    1  C   UNL     1      -9.885   4.378  70.583  1.00  0.00    -0.280 C  
HETATM    2  C   UNL     1     -10.220   5.187  71.806  1.00  0.00    -0.209 C  
HETATM    3  N   UNL     1      -9.674   6.448  71.798  1.00  0.00    -0.160 N  
HETATM    4  O   UNL     1     -10.932   4.762  72.707  1.00  0.00    -0.222 OA 
HETATM    5  H   UNL     1      -9.139   6.753  70.984  1.00  0.00     0.000 HD 
ENDROOT
BRANCH   3   6
HETATM    6  C   UNL     1      -9.838   7.361  72.920  1.00  0.00    -0.204 C  
BRANCH   6   7
HETATM    7  C   UNL     1     -10.645   8.583  72.510  1.00  0.00    -0.238 C  
HETATM    8  C   UNL     1     -10.262   9.157  71.167  1.00  0.00    -0.314 C  
HETATM    9  N   UNL     1     -11.490   9.786  70.781  1.00  0.00    -0.314 N  
HETATM   10  C   UNL     1     -12.539   9.135  71.422  1.00  0.00    -0.323 C  
HETATM   11  O   UNL     1     -13.739   9.252  71.242  1.00  0.00    -0.342 OA 
HETATM   12  O   UNL     1     -12.030   8.248  72.342  1.00  0.00    -0.361 OA 
BRANCH   9  13
HETATM   13  C   UNL     1     -11.585  10.870  69.875  1.00  0.00    -0.331 A  
HETATM   14  C   UNL     1     -12.051  12.117  70.289  1.00  0.00    -0.385 A  
HETATM   15  C   UNL     1     -12.118  13.190  69.397  1.00  0.00    -0.231 A  
HETATM   16  C   UNL     1     -11.742  13.082  68.049  1.00  0.00    -0.355 A  
HETATM   17  F   UNL     1     -12.518  14.373  69.896  1.00  0.00    -0.348 F  
HETATM   18  C   UNL     1     -11.174  10.744  68.543  1.00  0.00    -0.340 A  
HETATM   19  C   UNL     1     -11.250  11.831  67.653  1.00  0.00    -0.345 A  
BRANCH  16  20
HETATM   20  N   UNL     1     -11.880  14.109  67.135  1.00  0.00    -0.405 NA 
HETATM   21  C   UNL     1     -11.020  15.303  67.168  1.00  0.00    -0.331 C  
HETATM   22  C   UNL     1     -10.173  15.386  65.894  1.00  0.00    -0.344 C  
HETATM   23  O   UNL     1     -11.010  15.375  64.723  1.00  0.00    -0.420 OA 
HETATM   24  C   UNL     1     -11.764  14.153  64.666  1.00  0.00    -0.417 C  
HETATM   25  C   UNL     1     -12.667  13.963  65.902  1.00  0.00    -0.421 C  
ENDBRANCH  16  20
ENDBRANCH   9  13
ENDBRANCH   6   7
ENDBRANCH   3   6
TORSDOF 4
ENDMDL
MODEL       18
REMARK 921   NORMALIZED FREE ENERGY PREDICTED BY IDOCK:   -6.43 KCAL/MOL
REMARK 922        TOTAL FREE ENERGY PREDICTED BY IDOCK:   -8.33 KCAL/MOL
REMARK 923 INTER-LIGAND FREE ENERGY PREDICTED BY IDOCK:   -7.64 KCAL/MOL
REMARK 924 INTRA-LIGAND FREE ENERGY PREDICTED BY IDOCK:   -0.69 KCAL/MOL
REMARK 927      BINDING AFFINITY PREDICTED BY RF-SCORE:    0.00 PKD
ROOT
HETATM    1  C   UNL     1     -11.015   6.138  67.084  1.00  0.00    -0.420 C  
HETATM    2  C   UNL     1     -10.851   6.952  68.338  1.00  0.00    -0.180 C  
HETATM    3  N   UNL     1     -10.706   8.299  68.105  1.00  0.00    -0.439 N  
HETATM    4  O   UNL     1     -10.870   6.456  69.457  1.00  0.00    -0.252 OA 
HETATM    5  H   UNL     1     -10.759   8.646  67.147  1.00  0.00     0.000 HD 
ENDROOT
BRANCH   3   6
HETATM    6  C   UNL     1     -10.478   9.244  69.189  1.00  0.00    -0.217 C  
BRANCH   6   7
HETATM    7  C   UNL     1     -11.131  10.583  68.887  1.00  0.00    -0.261 C  
HETATM    8  C   UNL     1     -10.181  11.757  68.916  1.00  0.00    -0.100 C  
HETATM    9  N   UNL     1     -10.845  12.665  68.030  1.00  0.00    -0.217 N  
HETATM   10  C   UNL     1     -11.628  11.927  67.148  1.00  0.00    -0.290 C  
HETATM   11  O   UNL     1     -12.217  12.300  66.148  1.00  0.00    -0.647 OA 
HETATM   12  O   UNL     1     -11.646  10.611  67.548  1.00  0.00    -0.482 OA 
BRANCH   9  13
HETATM   13  C   UNL     1     -10.686  14.072  68.056  1.00  0.00    -0.246 A  
HETATM   14  C   UNL     1      -9.881  14.723  67.122  1.00  0.00    -0.232 A  
HETATM   15  C   UNL     1      -9.747  16.113  67.135  1.00  0.00    -0.233 A  
HETATM   16  C   UNL     1     -10.390  16.929  68.079  1.00  0.00    -0.334 A  
HETATM   17  F   UNL     1      -9.003  16.663  66.159  1.00  0.00    -0.282 F  
HETATM   18  C   UNL     1     -11.363  14.864  68.989  1.00  0.00    -0.310 A  
HETATM   19  C   UNL     1     -11.217  16.265  68.995  1.00  0.00    -0.326 A  
BRANCH  16  20
HETATM   20  N   UNL     1     -10.203  18.295  68.159  1.00  0.00    -0.371 NA 
HETATM   21  C   UNL     1      -9.106  18.888  68.942  1.00  0.00    -0.240 C  
HETATM   22  C   UNL     1      -8.138  19.638  68.021  1.00  0.00    -0.308 C  
HETATM   23  O   UNL     1      -8.834  20.638  67.254  1.00  0.00    -0.340 OA 
HETATM   24  C   UNL     1      -9.832  20.019  66.426  1.00  0.00    -0.459 C  
HETATM   25  C   UNL     1     -10.874  19.235  67.250  1.00  0.00    -0.449 C  
ENDBRANCH  16  20
ENDBRANCH   9  13
ENDBRANCH   6   7
ENDBRANCH   3   6
TORSDOF 4
ENDMDL
MODEL       19
REMARK 921   NORMALIZED FREE ENERGY PREDICTED BY IDOCK:   -6.36 KCAL/MOL
REMARK 922        TOTAL FREE ENERGY PREDICTED BY IDOCK:   -8.25 KCAL/MOL
REMARK 923 INTER-LIGAND FREE ENERGY PREDICTED BY IDOCK:   -7.64 KCAL/MOL
REMARK 924 INTRA-LIGAND FREE ENERGY PREDICTED BY IDOCK:   -0.61 KCAL/MOL
REMARK 927      BINDING AFFINITY PREDICTED BY RF-SCORE:    0.00 PKD
ROOT
HETATM    1  C   UNL     1     -11.032   6.396  67.196  1.00  0.00    -0.476 C  
HETATM    2  C   UNL     1     -10.769   7.268  68.392  1.00  0.00    -0.121 C  
HETATM    3  N   UNL     1     -10.911   8.611  68.137  1.00  0.00    -0.464 N  
HETATM    4  O   UNL     1     -10.478   6.814  69.492  1.00  0.00    -0.199 OA 
HETATM    5  H   UNL     1     -11.212   8.911  67.210  1.00  0.00     0.000 HD 
ENDROOT
BRANCH   3   6
HETATM    6  C   UNL     1     -10.642   9.618  69.153  1.00  0.00    -0.220 C  
BRANCH   6   7
HETATM    7  C   UNL     1     -11.130  10.986  68.704  1.00  0.00    -0.240 C  
HETATM    8  C   UNL     1     -10.024  11.955  68.359  1.00  0.00    -0.203 C  
HETATM    9  N   UNL     1     -10.696  12.812  67.428  1.00  0.00    -0.228 N  
HETATM   10  C   UNL     1     -11.732  12.094  66.837  1.00  0.00    -0.301 C  
HETATM   11  O   UNL     1     -12.432  12.400  65.888  1.00  0.00    -0.583 OA 
HETATM   12  O   UNL     1     -11.874  10.888  67.482  1.00  0.00    -0.524 OA 
BRANCH   9  13
HETATM   13  C   UNL     1     -10.323  14.151  67.157  1.00  0.00    -0.265 A  
HETATM   14  C   UNL     1     -10.266  15.102  68.175  1.00  0.00    -0.227 A  
HETATM   15  C   UNL     1      -9.872  16.415  67.908  1.00  0.00    -0.238 A  
HETATM   16  C   UNL     1      -9.528  16.859  66.622  1.00  0.00    -0.265 A  
HETATM   17  F   UNL     1      -9.782  17.250  68.959  1.00  0.00    -0.263 F  
HETATM   18  C   UNL     1      -9.956  14.559  65.871  1.00  0.00    -0.352 A  
HETATM   19  C   UNL     1      -9.564  15.886  65.613  1.00  0.00    -0.266 A  
BRANCH  16  20
HETATM   20  N   UNL     1      -9.218  18.172  66.326  1.00  0.00    -0.463 NA 
HETATM   21  C   UNL     1     -10.250  19.218  66.248  1.00  0.00    -0.464 C  
HETATM   22  C   UNL     1     -10.023  20.273  67.337  1.00  0.00    -0.427 C  
HETATM   23  O   UNL     1      -8.701  20.833  67.238  1.00  0.00    -0.296 OA 
HETATM   24  C   UNL     1      -7.714  19.803  67.417  1.00  0.00    -0.272 C  
HETATM   25  C   UNL     1      -7.840  18.682  66.365  1.00  0.00    -0.283 C  
ENDBRANCH  16  20
ENDBRANCH   9  13
ENDBRANCH   6   7
ENDBRANCH   3   6
TORSDOF 4
ENDMDL
MODEL       20
REMARK 921   NORMALIZED FREE ENERGY PREDICTED BY IDOCK:   -6.35 KCAL/MOL
REMARK 922        TOTAL FREE ENERGY PREDICTED BY IDOCK:   -8.23 KCAL/MOL
REMARK 923 INTER-LIGAND FREE ENERGY PREDICTED BY IDOCK:   -7.63 KCAL/MOL
REMARK 924 INTRA-LIGAND FREE ENERGY PREDICTED BY IDOCK:   -0.61 KCAL/MOL
REMARK 927      BINDING AFFINITY PREDICTED BY RF-SCORE:    0.00 PKD
ROOT
HETATM    1  C   UNL     1     -12.446   6.881  71.294  1.00  0.00    -0.409 C  
HETATM    2  C   UNL     1     -11.400   7.904  70.944  1.00  0.00    -0.277 C  
HETATM    3  N   UNL     1     -11.383   8.239  69.611  1.00  0.00    -0.437 N  
HETATM    4  O   UNL     1     -10.654   8.402  71.778  1.00  0.00    -0.239 OA 
HETATM    5  H   UNL     1     -12.074   7.825  68.986  1.00  0.00     0.000 HD 
ENDROOT
BRANCH   3   6
HETATM    6  C   UNL     1     -10.404   9.170  69.067  1.00  0.00    -0.215 C  
BRANCH   6   7
HETATM    7  C   UNL     1     -11.034  10.529  68.808  1.00  0.00    -0.251 C  
HETATM    8  C   UNL     1     -10.053  11.678  68.818  1.00  0.00    -0.156 C  
HETATM    9  N   UNL     1     -10.727  12.616  67.969  1.00  0.00    -0.219 N  
HETATM   10  C   UNL     1     -11.560  11.910  67.108  1.00  0.00    -0.290 C  
HETATM   11  O   UNL     1     -12.176  12.312  66.136  1.00  0.00    -0.647 OA 
HETATM   12  O   UNL     1     -11.598  10.590  67.491  1.00  0.00    -0.421 OA 
BRANCH   9  13
HETATM   13  C   UNL     1     -10.530  14.017  68.009  1.00  0.00    -0.241 A  
HETATM   14  C   UNL     1     -11.006  14.782  69.072  1.00  0.00    -0.257 A  
HETATM   15  C   UNL     1     -10.787  16.160  69.121  1.00  0.00    -0.298 A  
HETATM   16  C   UNL     1     -10.098  16.855  68.114  1.00  0.00    -0.299 A  
HETATM   17  F   UNL     1     -11.225  16.809  70.213  1.00  0.00    -0.338 F  
HETATM   18  C   UNL     1      -9.812  14.680  67.008  1.00  0.00    -0.244 A  
HETATM   19  C   UNL     1      -9.600  16.071  67.064  1.00  0.00    -0.229 A  
BRANCH  16  20
HETATM   20  N   UNL     1      -9.944  18.228  68.104  1.00  0.00    -0.340 NA 
HETATM   21  C   UNL     1      -8.685  18.874  68.509  1.00  0.00    -0.347 C  
HETATM   22  C   UNL     1      -8.064  19.621  67.323  1.00  0.00    -0.282 C  
HETATM   23  O   UNL     1      -8.992  20.577  66.779  1.00  0.00    -0.253 OA 
HETATM   24  C   UNL     1     -10.170  19.906  66.302  1.00  0.00    -0.502 C  
HETATM   25  C   UNL     1     -10.890  19.120  67.418  1.00  0.00    -0.435 C  
ENDBRANCH  16  20
ENDBRANCH   9  13
ENDBRANCH   6   7
ENDBRANCH   3   6
TORSDOF 4
ENDMDL
MODEL       21
REMARK 921   NORMALIZED FREE ENERGY PREDICTED BY IDOCK:   -6.34 KCAL/MOL
REMARK 922        TOTAL FREE ENERGY PREDICTED BY IDOCK:   -8.23 KCAL/MOL
REMARK 923 INTER-LIGAND FREE ENERGY PREDICTED BY IDOCK:   -7.58 KCAL/MOL
REMARK 924 INTRA-LIGAND FREE ENERGY PREDICTED BY IDOCK:   -0.65 KCAL/MOL
REMARK 927      BINDING AFFINITY PREDICTED BY RF-SCORE:    0.00 PKD
ROOT
HETATM    1  C   UNL     1      -9.391  19.954  66.538  1.00  0.00    -0.501 C  
HETATM    2  C   UNL     1      -9.994  19.224  67.706  1.00  0.00    -0.365 C  
HETATM    3  N   UNL     1     -10.331  17.920  67.425  1.00  0.00    -0.363 N  
HETATM    4  O   UNL     1     -10.147  19.741  68.805  1.00  0.00    -0.450 OA 
HETATM    5  H   UNL     1     -10.121  17.541  66.502  1.00  0.00     0.000 HD 
ENDROOT
BRANCH   3   6
HETATM    6  C   UNL     1     -10.981  17.068  68.410  1.00  0.00    -0.263 C  
BRANCH   6   7
HETATM    7  C   UNL     1     -10.740  15.599  68.099  1.00  0.00    -0.287 C  
HETATM    8  C   UNL     1     -10.932  14.676  69.279  1.00  0.00    -0.260 C  
HETATM    9  N   UNL     1     -11.276  13.455  68.614  1.00  0.00    -0.254 N  
HETATM   10  C   UNL     1     -11.838  13.768  67.381  1.00  0.00    -0.396 C  
HETATM   11  O   UNL     1     -12.404  13.035  66.588  1.00  0.00    -0.381 OA 
HETATM   12  O   UNL     1     -11.695  15.115  67.144  1.00  0.00    -0.275 OA 
BRANCH   9  13
HETATM   13  C   UNL     1     -11.088  12.163  69.163  1.00  0.00    -0.205 A  
HETATM   14  C   UNL     1     -11.967  11.651  70.116  1.00  0.00    -0.441 A  
HETATM   15  C   UNL     1     -11.794  10.366  70.635  1.00  0.00    -0.350 A  
HETATM   16  C   UNL     1     -10.736   9.528  70.251  1.00  0.00    -0.265 A  
HETATM   17  F   UNL     1     -12.724   9.927  71.501  1.00  0.00    -0.371 F  
HETATM   18  C   UNL     1     -10.043  11.336  68.739  1.00  0.00    -0.204 A  
HETATM   19  C   UNL     1      -9.875  10.044  69.273  1.00  0.00    -0.227 A  
BRANCH  16  20
HETATM   20  N   UNL     1     -10.501   8.289  70.814  1.00  0.00    -0.194 NA 
HETATM   21  C   UNL     1      -9.774   8.136  72.086  1.00  0.00    -0.244 C  
HETATM   22  C   UNL     1     -10.692   7.534  73.156  1.00  0.00    -0.398 C  
HETATM   23  O   UNL     1     -11.240   6.280  72.712  1.00  0.00    -0.257 OA 
HETATM   24  C   UNL     1     -12.026   6.477  71.525  1.00  0.00    -0.329 C  
HETATM   25  C   UNL     1     -11.201   7.076  70.367  1.00  0.00    -0.299 C  
ENDBRANCH  16  20
ENDBRANCH   9  13
ENDBRANCH   6   7
ENDBRANCH   3   6
TORSDOF 4
ENDMDL
MODEL       22
REMARK 921   NORMALIZED FREE ENERGY PREDICTED BY IDOCK:   -6.28 KCAL/MOL
REMARK 922        TOTAL FREE ENERGY PREDICTED BY IDOCK:   -8.15 KCAL/MOL
REMARK 923 INTER-LIGAND FREE ENERGY PREDICTED BY IDOCK:   -7.55 KCAL/MOL
REMARK 924 INTRA-LIGAND FREE ENERGY PREDICTED BY IDOCK:   -0.60 KCAL/MOL
REMARK 927      BINDING AFFINITY PREDICTED BY RF-SCORE:    0.00 PKD
ROOT
HETATM    1  C   UNL     1     -11.932   9.972  70.845  1.00  0.00    -0.453 C  
HETATM    2  C   UNL     1     -12.540  11.249  71.356  1.00  0.00    -0.351 C  
HETATM    3  N   UNL     1     -12.011  12.380  70.780  1.00  0.00    -0.458 N  
HETATM    4  O   UNL     1     -13.437  11.269  72.190  1.00  0.00    -0.390 OA 
HETATM    5  H   UNL     1     -11.306  12.282  70.050  1.00  0.00     0.000 HD 
ENDROOT
BRANCH   3   6
HETATM    6  C   UNL     1     -12.429  13.714  71.186  1.00  0.00    -0.359 C  
BRANCH   6   7
HETATM    7  C   UNL     1     -12.269  14.703  70.043  1.00  0.00    -0.333 C  
HETATM    8  C   UNL     1     -10.946  15.433  70.035  1.00  0.00    -0.299 C  
HETATM    9  N   UNL     1     -10.814  15.740  68.642  1.00  0.00    -0.262 N  
HETATM   10  C   UNL     1     -11.538  14.801  67.914  1.00  0.00    -0.351 C  
HETATM   11  O   UNL     1     -11.554  14.612  66.710  1.00  0.00    -0.365 OA 
HETATM   12  O   UNL     1     -12.279  14.028  68.777  1.00  0.00    -0.337 OA 
BRANCH   9  13
HETATM   13  C   UNL     1     -10.044  16.810  68.128  1.00  0.00    -0.282 A  
HETATM   14  C   UNL     1     -10.632  17.822  67.370  1.00  0.00    -0.341 A  
HETATM   15  C   UNL     1      -9.873  18.890  66.886  1.00  0.00    -0.329 A  
HETATM   16  C   UNL     1      -8.493  19.006  67.114  1.00  0.00    -0.280 A  
HETATM   17  F   UNL     1     -10.532  19.854  66.220  1.00  0.00    -0.500 F  
HETATM   18  C   UNL     1      -8.675  16.918  68.396  1.00  0.00    -0.244 A  
HETATM   19  C   UNL     1      -7.919  17.997  67.900  1.00  0.00    -0.241 A  
BRANCH  16  20
HETATM   20  N   UNL     1      -7.712  20.010  66.574  1.00  0.00    -0.290 NA 
HETATM   21  C   UNL     1      -7.314  21.193  67.355  1.00  0.00    -0.146 C  
HETATM   22  C   UNL     1      -5.791  21.230  67.527  1.00  0.00    -0.359 C  
HETATM   23  O   UNL     1      -5.132  21.200  66.248  1.00  0.00    -0.180 OA 
HETATM   24  C   UNL     1      -5.462  19.987  65.550  1.00  0.00    -0.160 C  
HETATM   25  C   UNL     1      -6.979  19.843  65.311  1.00  0.00    -0.241 C  
ENDBRANCH  16  20
ENDBRANCH   9  13
ENDBRANCH   6   7
ENDBRANCH   3   6
TORSDOF 4
ENDMDL
MODEL       23
REMARK 921   NORMALIZED FREE ENERGY PREDICTED BY IDOCK:   -6.27 KCAL/MOL
REMARK 922        TOTAL FREE ENERGY PREDICTED BY IDOCK:   -8.14 KCAL/MOL
REMARK 923 INTER-LIGAND FREE ENERGY PREDICTED BY IDOCK:   -7.57 KCAL/MOL
REMARK 924 INTRA-LIGAND FREE ENERGY PREDICTED BY IDOCK:   -0.57 KCAL/MOL
REMARK 927      BINDING AFFINITY PREDICTED BY RF-SCORE:    0.00 PKD
ROOT
HETATM    1  C   UNL     1      -9.929  19.719  66.303  1.00  0.00    -0.581 C  
HETATM    2  C   UNL     1     -10.415  18.989  67.524  1.00  0.00    -0.454 C  
HETATM    3  N   UNL     1     -10.741  17.675  67.286  1.00  0.00    -0.288 N  
HETATM    4  O   UNL     1     -10.489  19.517  68.627  1.00  0.00    -0.337 OA 
HETATM    5  H   UNL     1     -10.598  17.289  66.353  1.00  0.00     0.000 HD 
ENDROOT
BRANCH   3   6
HETATM    6  C   UNL     1     -11.285  16.819  68.330  1.00  0.00    -0.176 C  
BRANCH   6   7
HETATM    7  C   UNL     1     -10.939  15.361  68.071  1.00  0.00    -0.307 C  
HETATM    8  C   UNL     1     -11.163  14.451  69.256  1.00  0.00    -0.275 C  
HETATM    9  N   UNL     1     -11.388  13.199  68.598  1.00  0.00    -0.269 N  
HETATM   10  C   UNL     1     -11.877  13.455  67.321  1.00  0.00    -0.376 C  
HETATM   11  O   UNL     1     -12.342  12.676  66.507  1.00  0.00    -0.500 OA 
HETATM   12  O   UNL     1     -11.794  14.804  67.063  1.00  0.00    -0.362 OA 
BRANCH   9  13
HETATM   13  C   UNL     1     -11.167  11.932  69.189  1.00  0.00    -0.255 A  
HETATM   14  C   UNL     1     -10.121  11.113  68.767  1.00  0.00    -0.211 A  
HETATM   15  C   UNL     1      -9.890   9.875  69.370  1.00  0.00    -0.217 A  
HETATM   16  C   UNL     1     -10.689   9.377  70.411  1.00  0.00    -0.263 A  
HETATM   17  F   UNL     1      -8.821   9.179  68.945  1.00  0.00    -0.131 F  
HETATM   18  C   UNL     1     -11.960  11.473  70.246  1.00  0.00    -0.455 A  
HETATM   19  C   UNL     1     -11.721  10.221  70.844  1.00  0.00    -0.472 A  
BRANCH  16  20
HETATM   20  N   UNL     1     -10.527   8.120  70.962  1.00  0.00    -0.199 NA 
HETATM   21  C   UNL     1      -9.741   7.903  72.188  1.00  0.00    -0.199 C  
HETATM   22  C   UNL     1     -10.641   7.378  73.313  1.00  0.00    -0.392 C  
HETATM   23  O   UNL     1     -11.319   6.176  72.905  1.00  0.00    -0.242 OA 
HETATM   24  C   UNL     1     -12.156   6.443  71.767  1.00  0.00    -0.296 C  
HETATM   25  C   UNL     1     -11.353   6.973  70.560  1.00  0.00    -0.312 C  
ENDBRANCH  16  20
ENDBRANCH   9  13
ENDBRANCH   6   7
ENDBRANCH   3   6
TORSDOF 4
ENDMDL
MODEL       24
REMARK 921   NORMALIZED FREE ENERGY PREDICTED BY IDOCK:   -6.22 KCAL/MOL
REMARK 922        TOTAL FREE ENERGY PREDICTED BY IDOCK:   -8.07 KCAL/MOL
REMARK 923 INTER-LIGAND FREE ENERGY PREDICTED BY IDOCK:   -7.64 KCAL/MOL
REMARK 924 INTRA-LIGAND FREE ENERGY PREDICTED BY IDOCK:   -0.43 KCAL/MOL
REMARK 927      BINDING AFFINITY PREDICTED BY RF-SCORE:    0.00 PKD
ROOT
HETATM    1  C   UNL     1     -10.880   4.231  73.955  1.00  0.00    -0.330 C  
HETATM    2  C   UNL     1      -9.832   5.138  73.371  1.00  0.00    -0.154 C  
HETATM    3  N   UNL     1     -10.281   6.416  73.134  1.00  0.00    -0.192 N  
HETATM    4  O   UNL     1      -8.684   4.772  73.153  1.00  0.00    -0.109 OA 
HETATM    5  H   UNL     1     -11.235   6.664  73.396  1.00  0.00     0.000 HD 
ENDROOT
BRANCH   3   6
HETATM    6  C   UNL     1      -9.431   7.425  72.518  1.00  0.00    -0.152 C  
BRANCH   6   7
HETATM    7  C   UNL     1     -10.224   8.684  72.206  1.00  0.00    -0.301 C  
HETATM    8  C   UNL     1     -10.020   9.214  70.806  1.00  0.00    -0.269 C  
HETATM    9  N   UNL     1     -11.256   9.907  70.596  1.00  0.00    -0.319 N  
HETATM   10  C   UNL     1     -12.229   9.327  71.404  1.00  0.00    -0.349 C  
HETATM   11  O   UNL     1     -13.434   9.511  71.405  1.00  0.00    -0.374 OA 
HETATM   12  O   UNL     1     -11.634   8.427  72.257  1.00  0.00    -0.341 OA 
BRANCH   9  13
HETATM   13  C   UNL     1     -11.429  10.979  69.688  1.00  0.00    -0.303 A  
HETATM   14  C   UNL     1     -11.249  10.799  68.318  1.00  0.00    -0.358 A  
HETATM   15  C   UNL     1     -11.447  11.853  67.423  1.00  0.00    -0.323 A  
HETATM   16  C   UNL     1     -11.818  13.142  67.837  1.00  0.00    -0.348 A  
HETATM   17  F   UNL     1     -11.315  11.575  66.114  1.00  0.00    -0.351 F  
HETATM   18  C   UNL     1     -11.829  12.246  70.125  1.00  0.00    -0.352 A  
HETATM   19  C   UNL     1     -12.021  13.303  69.214  1.00  0.00    -0.354 A  
BRANCH  16  20
HETATM   20  N   UNL     1     -11.936  14.215  66.976  1.00  0.00    -0.428 NA 
HETATM   21  C   UNL     1     -11.018  15.365  67.033  1.00  0.00    -0.306 C  
HETATM   22  C   UNL     1     -10.210  15.467  65.733  1.00  0.00    -0.354 C  
HETATM   23  O   UNL     1     -11.085  15.551  64.594  1.00  0.00    -0.412 OA 
HETATM   24  C   UNL     1     -11.900  14.369  64.508  1.00  0.00    -0.449 C  
HETATM   25  C   UNL     1     -12.770  14.165  65.766  1.00  0.00    -0.413 C  
ENDBRANCH  16  20
ENDBRANCH   9  13
ENDBRANCH   6   7
ENDBRANCH   3   6
TORSDOF 4
ENDMDL
MODEL       25
REMARK 921   NORMALIZED FREE ENERGY PREDICTED BY IDOCK:   -6.20 KCAL/MOL
REMARK 922        TOTAL FREE ENERGY PREDICTED BY IDOCK:   -8.05 KCAL/MOL
REMARK 923 INTER-LIGAND FREE ENERGY PREDICTED BY IDOCK:   -7.56 KCAL/MOL
REMARK 924 INTRA-LIGAND FREE ENERGY PREDICTED BY IDOCK:   -0.49 KCAL/MOL
REMARK 927      BINDING AFFINITY PREDICTED BY RF-SCORE:    0.00 PKD
ROOT
HETATM    1  C   UNL     1     -11.073   3.656  73.485  1.00  0.00    -0.320 C  
HETATM    2  C   UNL     1     -10.790   5.128  73.606  1.00  0.00    -0.305 C  
HETATM    3  N   UNL     1     -11.616   5.912  72.837  1.00  0.00    -0.504 N  
HETATM    4  O   UNL     1      -9.919   5.578  74.341  1.00  0.00    -0.193 OA 
HETATM    5  H   UNL     1     -12.357   5.469  72.294  1.00  0.00     0.000 HD 
ENDROOT
BRANCH   3   6
HETATM    6  C   UNL     1     -11.460   7.358  72.774  1.00  0.00    -0.265 C  
BRANCH   6   7
HETATM    7  C   UNL     1     -10.742   7.772  71.500  1.00  0.00    -0.222 C  
HETATM    8  C   UNL     1     -11.472   8.815  70.688  1.00  0.00    -0.231 C  
HETATM    9  N   UNL     1     -10.379   9.437  70.000  1.00  0.00    -0.216 N  
HETATM   10  C   UNL     1      -9.227   9.267  70.761  1.00  0.00    -0.253 C  
HETATM   11  O   UNL     1      -8.129   9.777  70.614  1.00  0.00    -0.264 OA 
HETATM   12  O   UNL     1      -9.491   8.406  71.801  1.00  0.00    -0.186 OA 
BRANCH   9  13
HETATM   13  C   UNL     1     -10.495  10.126  68.769  1.00  0.00    -0.204 A  
HETATM   14  C   UNL     1      -9.822   9.685  67.631  1.00  0.00    -0.202 A  
HETATM   15  C   UNL     1      -9.960  10.352  66.412  1.00  0.00    -0.221 A  
HETATM   16  C   UNL     1     -10.759  11.496  66.258  1.00  0.00    -0.272 A  
HETATM   17  F   UNL     1      -9.327   9.821  65.351  1.00  0.00    -0.215 F  
HETATM   18  C   UNL     1     -11.323  11.246  68.636  1.00  0.00    -0.336 A  
HETATM   19  C   UNL     1     -11.451  11.913  67.403  1.00  0.00    -0.393 A  
BRANCH  16  20
HETATM   20  N   UNL     1     -10.841  12.216  65.082  1.00  0.00    -0.291 NA 
HETATM   21  C   UNL     1     -11.319  11.610  63.829  1.00  0.00    -0.393 C  
HETATM   22  C   UNL     1     -12.616  12.286  63.370  1.00  0.00    -0.427 C  
HETATM   23  O   UNL     1     -12.428  13.706  63.227  1.00  0.00    -0.801 OA 
HETATM   24  C   UNL     1     -12.058  14.285  64.489  1.00  0.00    -0.480 C  
HETATM   25  C   UNL     1     -10.753  13.683  65.050  1.00  0.00    -0.367 C  
ENDBRANCH  16  20
ENDBRANCH   9  13
ENDBRANCH   6   7
ENDBRANCH   3   6
TORSDOF 4
ENDMDL
MODEL       26
REMARK 921   NORMALIZED FREE ENERGY PREDICTED BY IDOCK:   -6.20 KCAL/MOL
REMARK 922        TOTAL FREE ENERGY PREDICTED BY IDOCK:   -8.05 KCAL/MOL
REMARK 923 INTER-LIGAND FREE ENERGY PREDICTED BY IDOCK:   -7.58 KCAL/MOL
REMARK 924 INTRA-LIGAND FREE ENERGY PREDICTED BY IDOCK:   -0.47 KCAL/MOL
REMARK 927      BINDING AFFINITY PREDICTED BY RF-SCORE:    0.00 PKD
ROOT
HETATM    1  C   UNL     1     -10.540   5.779  67.940  1.00  0.00    -0.304 C  
HETATM    2  C   UNL     1      -9.600   6.855  67.472  1.00  0.00    -0.128 C  
HETATM    3  N   UNL     1     -10.111   7.630  66.458  1.00  0.00    -0.455 N  
HETATM    4  O   UNL     1      -8.494   7.031  67.967  1.00  0.00    -0.124 OA 
HETATM    5  H   UNL     1     -11.064   7.461  66.136  1.00  0.00     0.000 HD 
ENDROOT
BRANCH   3   6
HETATM    6  C   UNL     1      -9.330   8.686  65.832  1.00  0.00    -0.195 C  
BRANCH   6   7
HETATM    7  C   UNL     1      -9.528  10.009  66.555  1.00  0.00    -0.175 C  
HETATM    8  C   UNL     1      -9.366  11.227  65.676  1.00  0.00    -0.224 C  
HETATM    9  N   UNL     1     -10.186  12.174  66.371  1.00  0.00    -0.216 N  
HETATM   10  C   UNL     1     -11.153  11.476  67.088  1.00  0.00    -0.297 C  
HETATM   11  O   UNL     1     -12.132  11.906  67.673  1.00  0.00    -0.568 OA 
HETATM   12  O   UNL     1     -10.873  10.131  67.039  1.00  0.00    -0.230 OA 
BRANCH   9  13
HETATM   13  C   UNL     1     -10.028  13.579  66.294  1.00  0.00    -0.298 A  
HETATM   14  C   UNL     1     -10.696  14.326  65.325  1.00  0.00    -0.377 A  
HETATM   15  C   UNL     1     -10.559  15.715  65.269  1.00  0.00    -0.426 A  
HETATM   16  C   UNL     1      -9.744  16.434  66.158  1.00  0.00    -0.327 A  
HETATM   17  F   UNL     1     -11.288  16.363  64.344  1.00  0.00    -0.520 F  
HETATM   18  C   UNL     1      -9.235  14.274  67.212  1.00  0.00    -0.218 A  
HETATM   19  C   UNL     1      -9.100  15.674  67.144  1.00  0.00    -0.227 A  
BRANCH  16  20
HETATM   20  N   UNL     1      -9.531  17.796  66.065  1.00  0.00    -0.527 NA 
HETATM   21  C   UNL     1     -10.646  18.756  65.998  1.00  0.00    -0.386 C  
HETATM   22  C   UNL     1     -10.636  19.670  67.229  1.00  0.00    -0.472 C  
HETATM   23  O   UNL     1      -9.371  20.344  67.354  1.00  0.00    -0.379 OA 
HETATM   24  C   UNL     1      -8.314  19.383  67.518  1.00  0.00    -0.291 C  
HETATM   25  C   UNL     1      -8.220  18.406  66.327  1.00  0.00    -0.219 C  
ENDBRANCH  16  20
ENDBRANCH   9  13
ENDBRANCH   6   7
ENDBRANCH   3   6
TORSDOF 4
ENDMDL
MODEL       27
REMARK 921   NORMALIZED FREE ENERGY PREDICTED BY IDOCK:   -6.15 KCAL/MOL
REMARK 922        TOTAL FREE ENERGY PREDICTED BY IDOCK:   -7.99 KCAL/MOL
REMARK 923 INTER-LIGAND FREE ENERGY PREDICTED BY IDOCK:   -7.49 KCAL/MOL
REMARK 924 INTRA-LIGAND FREE ENERGY PREDICTED BY IDOCK:   -0.50 KCAL/MOL
REMARK 927      BINDING AFFINITY PREDICTED BY RF-SCORE:    0.00 PKD
ROOT
HETATM    1  C   UNL     1     -10.718   3.747  73.360  1.00  0.00    -0.297 C  
HETATM    2  C   UNL     1     -10.856   5.226  73.595  1.00  0.00    -0.294 C  
HETATM    3  N   UNL     1     -11.771   5.832  72.766  1.00  0.00    -0.513 N  
HETATM    4  O   UNL     1     -10.226   5.822  74.459  1.00  0.00    -0.265 OA 
HETATM    5  H   UNL     1     -12.300   5.260  72.108  1.00  0.00     0.000 HD 
ENDROOT
BRANCH   3   6
HETATM    6  C   UNL     1     -12.003   7.269  72.801  1.00  0.00     0.072 C  
BRANCH   6   7
HETATM    7  C   UNL     1     -11.563   7.921  71.500  1.00  0.00    -0.270 C  
HETATM    8  C   UNL     1     -12.125   9.306  71.280  1.00  0.00    -0.337 C  
HETATM    9  N   UNL     1     -11.121   9.874  70.430  1.00  0.00    -0.294 N  
HETATM   10  C   UNL     1      -9.918   9.219  70.672  1.00  0.00    -0.273 C  
HETATM   11  O   UNL     1      -8.799   9.502  70.280  1.00  0.00    -0.216 OA 
HETATM   12  O   UNL     1     -10.145   8.137  71.490  1.00  0.00    -0.175 OA 
BRANCH   9  13
HETATM   13  C   UNL     1     -11.345  10.942  69.529  1.00  0.00    -0.283 A  
HETATM   14  C   UNL     1     -11.821  12.174  69.976  1.00  0.00    -0.383 A  
HETATM   15  C   UNL     1     -12.015  13.234  69.088  1.00  0.00    -0.296 A  
HETATM   16  C   UNL     1     -11.764  13.127  67.711  1.00  0.00    -0.358 A  
HETATM   17  F   UNL     1     -12.414  14.405  69.614  1.00  0.00    -0.348 F  
HETATM   18  C   UNL     1     -11.057  10.818  68.166  1.00  0.00    -0.337 A  
HETATM   19  C   UNL     1     -11.261  11.892  67.278  1.00  0.00    -0.376 A  
BRANCH  16  20
HETATM   20  N   UNL     1     -12.029  14.137  66.807  1.00  0.00    -0.431 NA 
HETATM   21  C   UNL     1     -11.336  15.435  66.862  1.00  0.00    -0.147 C  
HETATM   22  C   UNL     1     -10.496  15.645  65.598  1.00  0.00    -0.382 C  
HETATM   23  O   UNL     1     -11.313  15.538  64.418  1.00  0.00    -0.357 OA 
HETATM   24  C   UNL     1     -11.896  14.226  64.339  1.00  0.00    -0.426 C  
HETATM   25  C   UNL     1     -12.778  13.902  65.563  1.00  0.00    -0.499 C  
ENDBRANCH  16  20
ENDBRANCH   9  13
ENDBRANCH   6   7
ENDBRANCH   3   6
TORSDOF 4
ENDMDL
MODEL       28
REMARK 921   NORMALIZED FREE ENERGY PREDICTED BY IDOCK:   -6.14 KCAL/MOL
REMARK 922        TOTAL FREE ENERGY PREDICTED BY IDOCK:   -7.97 KCAL/MOL
REMARK 923 INTER-LIGAND FREE ENERGY PREDICTED BY IDOCK:   -7.45 KCAL/MOL
REMARK 924 INTRA-LIGAND FREE ENERGY PREDICTED BY IDOCK:   -0.52 KCAL/MOL
REMARK 927      BINDING AFFINITY PREDICTED BY RF-SCORE:    0.00 PKD
ROOT
HETATM    1  C   UNL     1     -12.447  11.758  63.214  1.00  0.00    -0.411 C  
HETATM    2  C   UNL     1     -11.749  12.859  63.963  1.00  0.00    -0.434 C  
HETATM    3  N   UNL     1     -12.576  13.562  64.806  1.00  0.00    -0.639 N  
HETATM    4  O   UNL     1     -10.551  13.087  63.844  1.00  0.00    -0.396 OA 
HETATM    5  H   UNL     1     -13.551  13.277  64.896  1.00  0.00     0.000 HD 
ENDROOT
BRANCH   3   6
HETATM    6  C   UNL     1     -12.098  14.703  65.574  1.00  0.00    -0.222 C  
BRANCH   6   7
HETATM    7  C   UNL     1     -11.646  14.272  66.961  1.00  0.00    -0.386 C  
HETATM    8  C   UNL     1     -11.864  12.806  67.255  1.00  0.00    -0.350 C  
HETATM    9  N   UNL     1     -10.844  12.572  68.233  1.00  0.00    -0.224 N  
HETATM   10  C   UNL     1      -9.824  13.498  68.037  1.00  0.00    -0.238 C  
HETATM   11  O   UNL     1      -8.717  13.539  68.544  1.00  0.00    -0.160 OA 
HETATM   12  O   UNL     1     -10.228  14.429  67.109  1.00  0.00    -0.254 OA 
BRANCH   9  13
HETATM   13  C   UNL     1     -10.886  11.543  69.204  1.00  0.00    -0.195 A  
HETATM   14  C   UNL     1     -11.833  11.557  70.228  1.00  0.00    -0.431 A  
HETATM   15  C   UNL     1     -11.888  10.526  71.168  1.00  0.00    -0.295 A  
HETATM   16  C   UNL     1     -11.003   9.436  71.154  1.00  0.00    -0.360 A  
HETATM   17  F   UNL     1     -12.872  10.586  72.082  1.00  0.00    -0.504 F  
HETATM   18  C   UNL     1     -10.012  10.452  69.148  1.00  0.00    -0.237 A  
HETATM   19  C   UNL     1     -10.074   9.420  70.104  1.00  0.00    -0.273 A  
BRANCH  16  20
HETATM   20  N   UNL     1     -10.989   8.452  72.123  1.00  0.00    -0.317 NA 
HETATM   21  C   UNL     1     -12.033   7.416  72.197  1.00  0.00    -0.270 C  
HETATM   22  C   UNL     1     -11.427   6.030  71.950  1.00  0.00    -0.269 C  
HETATM   23  O   UNL     1     -10.360   5.766  72.880  1.00  0.00    -0.184 OA 
HETATM   24  C   UNL     1      -9.311   6.735  72.716  1.00  0.00    -0.135 C  
HETATM   25  C   UNL     1      -9.805   8.178  72.950  1.00  0.00    -0.268 C  
ENDBRANCH  16  20
ENDBRANCH   9  13
ENDBRANCH   6   7
ENDBRANCH   3   6
TORSDOF 4
ENDMDL
MODEL       29
REMARK 921   NORMALIZED FREE ENERGY PREDICTED BY IDOCK:   -6.11 KCAL/MOL
REMARK 922        TOTAL FREE ENERGY PREDICTED BY IDOCK:   -7.94 KCAL/MOL
REMARK 923 INTER-LIGAND FREE ENERGY PREDICTED BY IDOCK:   -7.30 KCAL/MOL
REMARK 924 INTRA-LIGAND FREE ENERGY PREDICTED BY IDOCK:   -0.64 KCAL/MOL
REMARK 927      BINDING AFFINITY PREDICTED BY RF-SCORE:    0.00 PKD
ROOT
HETATM    1  C   UNL     1     -10.901   6.239  66.781  1.00  0.00    -0.367 C  
HETATM    2  C   UNL     1     -10.101   7.124  67.697  1.00  0.00    -0.180 C  
HETATM    3  N   UNL     1     -10.824   8.171  68.220  1.00  0.00    -0.441 N  
HETATM    4  O   UNL     1      -8.925   6.913  67.964  1.00  0.00    -0.123 OA 
HETATM    5  H   UNL     1     -11.816   8.249  67.998  1.00  0.00     0.000 HD 
ENDROOT
BRANCH   3   6
HETATM    6  C   UNL     1     -10.210   9.170  69.083  1.00  0.00    -0.207 C  
BRANCH   6   7
HETATM    7  C   UNL     1     -10.881  10.523  68.908  1.00  0.00    -0.235 C  
HETATM    8  C   UNL     1      -9.920  11.685  68.820  1.00  0.00    -0.135 C  
HETATM    9  N   UNL     1     -10.694  12.620  68.059  1.00  0.00    -0.219 N  
HETATM   10  C   UNL     1     -11.609  11.910  67.288  1.00  0.00    -0.293 C  
HETATM   11  O   UNL     1     -12.333  12.312  66.394  1.00  0.00    -0.531 OA 
HETATM   12  O   UNL     1     -11.588  10.586  67.661  1.00  0.00    -0.447 OA 
BRANCH   9  13
HETATM   13  C   UNL     1     -10.511  14.024  68.090  1.00  0.00    -0.243 A  
HETATM   14  C   UNL     1     -10.994  14.790  69.150  1.00  0.00    -0.277 A  
HETATM   15  C   UNL     1     -10.788  16.171  69.189  1.00  0.00    -0.298 A  
HETATM   16  C   UNL     1     -10.108  16.866  68.177  1.00  0.00    -0.299 A  
HETATM   17  F   UNL     1     -11.230  16.822  70.279  1.00  0.00    -0.338 F  
HETATM   18  C   UNL     1      -9.802  14.688  67.083  1.00  0.00    -0.237 A  
HETATM   19  C   UNL     1      -9.605  16.081  67.131  1.00  0.00    -0.224 A  
BRANCH  16  20
HETATM   20  N   UNL     1      -9.968  18.241  68.158  1.00  0.00    -0.340 NA 
HETATM   21  C   UNL     1      -8.739  18.906  68.623  1.00  0.00    -0.339 C  
HETATM   22  C   UNL     1      -8.063  19.645  67.463  1.00  0.00    -0.298 C  
HETATM   23  O   UNL     1      -8.970  20.585  66.858  1.00  0.00    -0.293 OA 
HETATM   24  C   UNL     1     -10.113  19.894  66.326  1.00  0.00    -0.502 C  
HETATM   25  C   UNL     1     -10.885  19.114  67.411  1.00  0.00    -0.435 C  
ENDBRANCH  16  20
ENDBRANCH   9  13
ENDBRANCH   6   7
ENDBRANCH   3   6
TORSDOF 4
ENDMDL
MODEL       30
REMARK 921   NORMALIZED FREE ENERGY PREDICTED BY IDOCK:   -6.07 KCAL/MOL
REMARK 922        TOTAL FREE ENERGY PREDICTED BY IDOCK:   -7.89 KCAL/MOL
REMARK 923 INTER-LIGAND FREE ENERGY PREDICTED BY IDOCK:   -7.26 KCAL/MOL
REMARK 924 INTRA-LIGAND FREE ENERGY PREDICTED BY IDOCK:   -0.64 KCAL/MOL
REMARK 927      BINDING AFFINITY PREDICTED BY RF-SCORE:    0.00 PKD
ROOT
HETATM    1  C   UNL     1     -10.740   6.132  67.165  1.00  0.00    -0.422 C  
HETATM    2  C   UNL     1     -10.765   6.901  68.457  1.00  0.00    -0.207 C  
HETATM    3  N   UNL     1     -10.540   8.248  68.300  1.00  0.00    -0.387 N  
HETATM    4  O   UNL     1     -10.988   6.372  69.539  1.00  0.00    -0.286 OA 
HETATM    5  H   UNL     1     -10.420   8.625  67.360  1.00  0.00     0.000 HD 
ENDROOT
BRANCH   3   6
HETATM    6  C   UNL     1     -10.468   9.151  69.439  1.00  0.00    -0.219 C  
BRANCH   6   7
HETATM    7  C   UNL     1     -10.989  10.531  69.071  1.00  0.00    -0.243 C  
HETATM    8  C   UNL     1      -9.908  11.561  68.843  1.00  0.00    -0.075 C  
HETATM    9  N   UNL     1     -10.574  12.460  67.950  1.00  0.00    -0.208 N  
HETATM   10  C   UNL     1     -11.558  11.753  67.266  1.00  0.00    -0.269 C  
HETATM   11  O   UNL     1     -12.232  12.104  66.312  1.00  0.00    -0.604 OA 
HETATM   12  O   UNL     1     -11.681  10.498  67.814  1.00  0.00    -0.438 OA 
BRANCH   9  13
HETATM   13  C   UNL     1     -10.241  13.827  67.793  1.00  0.00    -0.241 A  
HETATM   14  C   UNL     1      -9.086  14.214  67.115  1.00  0.00    -0.240 A  
HETATM   15  C   UNL     1      -8.775  15.564  66.939  1.00  0.00    -0.250 A  
HETATM   16  C   UNL     1      -9.581  16.600  67.436  1.00  0.00    -0.242 A  
HETATM   17  F   UNL     1      -7.677  15.848  66.217  1.00  0.00    -0.257 F  
HETATM   18  C   UNL     1     -11.078  14.841  68.272  1.00  0.00    -0.284 A  
HETATM   19  C   UNL     1     -10.752  16.199  68.093  1.00  0.00    -0.315 A  
BRANCH  16  20
HETATM   20  N   UNL     1      -9.246  17.938  67.345  1.00  0.00    -0.251 NA 
HETATM   21  C   UNL     1      -9.382  18.691  66.087  1.00  0.00    -0.156 C  
HETATM   22  C   UNL     1     -10.419  19.809  66.245  1.00  0.00    -0.506 C  
HETATM   23  O   UNL     1     -10.073  20.676  67.340  1.00  0.00    -0.392 OA 
HETATM   24  C   UNL     1     -10.045  19.931  68.569  1.00  0.00    -0.421 C  
HETATM   25  C   UNL     1      -9.024  18.776  68.532  1.00  0.00    -0.341 C  
ENDBRANCH  16  20
ENDBRANCH   9  13
ENDBRANCH   6   7
ENDBRANCH   3   6
TORSDOF 4
ENDMDL
MODEL       31
REMARK 921   NORMALIZED FREE ENERGY PREDICTED BY IDOCK:   -6.00 KCAL/MOL
REMARK 922        TOTAL FREE ENERGY PREDICTED BY IDOCK:   -7.81 KCAL/MOL
REMARK 923 INTER-LIGAND FREE ENERGY PREDICTED BY IDOCK:   -7.31 KCAL/MOL
REMARK 924 INTRA-LIGAND FREE ENERGY PREDICTED BY IDOCK:   -0.50 KCAL/MOL
REMARK 927      BINDING AFFINITY PREDICTED BY RF-SCORE:    0.00 PKD
ROOT
HETATM    1  C   UNL     1      -8.509   8.870  64.902  1.00  0.00    -0.195 C  
HETATM    2  C   UNL     1      -9.511   8.859  66.023  1.00  0.00    -0.252 C  
HETATM    3  N   UNL     1     -10.070  10.090  66.274  1.00  0.00    -0.245 N  
HETATM    4  O   UNL     1      -9.811   7.842  66.634  1.00  0.00    -0.219 OA 
HETATM    5  H   UNL     1      -9.813  10.882  65.684  1.00  0.00     0.000 HD 
ENDROOT
BRANCH   3   6
HETATM    6  C   UNL     1     -11.018  10.295  67.359  1.00  0.00    -0.252 C  
BRANCH   6   7
HETATM    7  C   UNL     1     -11.333  11.772  67.533  1.00  0.00    -0.310 C  
HETATM    8  C   UNL     1     -10.152  12.687  67.311  1.00  0.00    -0.214 C  
HETATM    9  N   UNL     1     -10.815  13.892  66.908  1.00  0.00    -0.284 N  
HETATM   10  C   UNL     1     -12.043  13.553  66.349  1.00  0.00    -0.417 C  
HETATM   11  O   UNL     1     -12.832  14.259  65.745  1.00  0.00    -0.460 OA 
HETATM   12  O   UNL     1     -12.279  12.213  66.549  1.00  0.00    -0.584 OA 
BRANCH   9  13
HETATM   13  C   UNL     1     -10.269  15.191  67.044  1.00  0.00    -0.262 A  
HETATM   14  C   UNL     1     -10.586  15.995  68.138  1.00  0.00    -0.286 A  
HETATM   15  C   UNL     1     -10.024  17.265  68.282  1.00  0.00    -0.313 A  
HETATM   16  C   UNL     1      -9.132  17.812  67.346  1.00  0.00    -0.244 A  
HETATM   17  F   UNL     1     -10.334  17.946  69.399  1.00  0.00    -0.353 F  
HETATM   18  C   UNL     1      -9.358  15.699  66.112  1.00  0.00    -0.382 A  
HETATM   19  C   UNL     1      -8.801  16.984  66.265  1.00  0.00    -0.289 A  
BRANCH  16  20
HETATM   20  N   UNL     1      -8.633  19.097  67.430  1.00  0.00    -0.283 NA 
HETATM   21  C   UNL     1      -7.951  19.592  68.637  1.00  0.00    -0.346 C  
HETATM   22  C   UNL     1      -6.488  19.925  68.325  1.00  0.00    -0.269 C  
HETATM   23  O   UNL     1      -6.399  20.875  67.247  1.00  0.00    -0.249 OA 
HETATM   24  C   UNL     1      -6.985  20.325  66.055  1.00  0.00    -0.264 C  
HETATM   25  C   UNL     1      -8.470  19.956  66.248  1.00  0.00    -0.338 C  
ENDBRANCH  16  20
ENDBRANCH   9  13
ENDBRANCH   6   7
ENDBRANCH   3   6
TORSDOF 4
ENDMDL
MODEL       32
REMARK 921   NORMALIZED FREE ENERGY PREDICTED BY IDOCK:   -5.98 KCAL/MOL
REMARK 922        TOTAL FREE ENERGY PREDICTED BY IDOCK:   -7.78 KCAL/MOL
REMARK 923 INTER-LIGAND FREE ENERGY PREDICTED BY IDOCK:   -7.52 KCAL/MOL
REMARK 924 INTRA-LIGAND FREE ENERGY PREDICTED BY IDOCK:   -0.26 KCAL/MOL
REMARK 927      BINDING AFFINITY PREDICTED BY RF-SCORE:    0.00 PKD
ROOT
HETATM    1  C   UNL     1     -14.027  15.164  72.375  1.00  0.00    -0.616 C  
HETATM    2  C   UNL     1     -12.868  15.651  71.550  1.00  0.00    -0.471 C  
HETATM    3  N   UNL     1     -13.004  15.396  70.206  1.00  0.00    -0.671 N  
HETATM    4  O   UNL     1     -11.908  16.237  72.035  1.00  0.00    -0.505 OA 
HETATM    5  H   UNL     1     -13.859  14.954  69.868  1.00  0.00     0.000 HD 
ENDROOT
BRANCH   3   6
HETATM    6  C   UNL     1     -11.960  15.739  69.251  1.00  0.00    -0.289 C  
BRANCH   6   7
HETATM    7  C   UNL     1     -11.343  14.487  68.649  1.00  0.00    -0.276 C  
HETATM    8  C   UNL     1     -11.573  13.232  69.458  1.00  0.00    -0.286 C  
HETATM    9  N   UNL     1     -11.492  12.232  68.436  1.00  0.00    -0.282 N  
HETATM   10  C   UNL     1     -11.836  12.816  67.220  1.00  0.00    -0.350 C  
HETATM   11  O   UNL     1     -12.047  12.282  66.145  1.00  0.00    -0.625 OA 
HETATM   12  O   UNL     1     -11.945  14.177  67.384  1.00  0.00    -0.395 OA 
BRANCH   9  13
HETATM   13  C   UNL     1     -11.146  10.879  68.664  1.00  0.00    -0.252 A  
HETATM   14  C   UNL     1     -11.205  10.326  69.943  1.00  0.00    -0.360 A  
HETATM   15  C   UNL     1     -10.889   8.983  70.160  1.00  0.00    -0.237 A  
HETATM   16  C   UNL     1     -10.485   8.122  69.128  1.00  0.00    -0.206 A  
HETATM   17  F   UNL     1     -11.034   8.518  71.413  1.00  0.00    -0.262 F  
HETATM   18  C   UNL     1     -10.777  10.033  67.613  1.00  0.00    -0.340 A  
HETATM   19  C   UNL     1     -10.456   8.682  67.844  1.00  0.00    -0.269 A  
BRANCH  16  20
HETATM   20  N   UNL     1     -10.088   6.815  69.337  1.00  0.00    -0.167 NA 
HETATM   21  C   UNL     1     -10.730   5.686  68.645  1.00  0.00    -0.179 C  
HETATM   22  C   UNL     1      -9.722   4.978  67.731  1.00  0.00    -0.153 C  
HETATM   23  O   UNL     1      -8.570   4.548  68.479  1.00  0.00    -0.092 OA 
HETATM   24  C   UNL     1      -7.908   5.683  69.062  1.00  0.00    -0.096 C  
HETATM   25  C   UNL     1      -8.828   6.474  70.014  1.00  0.00    -0.144 C  
ENDBRANCH  16  20
ENDBRANCH   9  13
ENDBRANCH   6   7
ENDBRANCH   3   6
TORSDOF 4
ENDMDL
MODEL       33
REMARK 921   NORMALIZED FREE ENERGY PREDICTED BY IDOCK:   -5.95 KCAL/MOL
REMARK 922        TOTAL FREE ENERGY PREDICTED BY IDOCK:   -7.74 KCAL/MOL
REMARK 923 INTER-LIGAND FREE ENERGY PREDICTED BY IDOCK:   -7.05 KCAL/MOL
REMARK 924 INTRA-LIGAND FREE ENERGY PREDICTED BY IDOCK:   -0.68 KCAL/MOL
REMARK 927      BINDING AFFINITY PREDICTED BY RF-SCORE:    0.00 PKD
ROOT
HETATM    1  C   UNL     1      -7.836  20.713  67.314  1.00  0.00    -0.341 C  
HETATM    2  C   UNL     1      -9.058  19.837  67.364  1.00  0.00    -0.330 C  
HETATM    3  N   UNL     1      -9.389  19.285  66.149  1.00  0.00    -0.325 N  
HETATM    4  O   UNL     1      -9.679  19.623  68.397  1.00  0.00    -0.361 OA 
HETATM    5  H   UNL     1      -8.789  19.463  65.343  1.00  0.00     0.000 HD 
ENDROOT
BRANCH   3   6
HETATM    6  C   UNL     1     -10.572  18.454  65.981  1.00  0.00    -0.309 C  
BRANCH   6   7
HETATM    7  C   UNL     1     -10.191  16.988  65.845  1.00  0.00    -0.296 C  
HETATM    8  C   UNL     1     -10.521  16.147  67.055  1.00  0.00    -0.306 C  
HETATM    9  N   UNL     1     -10.670  14.855  66.455  1.00  0.00    -0.309 N  
HETATM   10  C   UNL     1     -11.036  15.028  65.123  1.00  0.00    -0.406 C  
HETATM   11  O   UNL     1     -11.413  14.196  64.317  1.00  0.00    -0.353 OA 
HETATM   12  O   UNL     1     -10.939  16.360  64.795  1.00  0.00    -0.664 OA 
BRANCH   9  13
HETATM   13  C   UNL     1     -10.497  13.629  67.139  1.00  0.00    -0.264 A  
HETATM   14  C   UNL     1     -11.593  12.884  67.573  1.00  0.00    -0.409 A  
HETATM   15  C   UNL     1     -11.418  11.661  68.224  1.00  0.00    -0.303 A  
HETATM   16  C   UNL     1     -10.152  11.118  68.493  1.00  0.00    -0.201 A  
HETATM   17  F   UNL     1     -12.530  10.980  68.550  1.00  0.00    -0.251 F  
HETATM   18  C   UNL     1      -9.224  13.095  67.367  1.00  0.00    -0.213 A  
HETATM   19  C   UNL     1      -9.059  11.863  68.029  1.00  0.00    -0.189 A  
BRANCH  16  20
HETATM   20  N   UNL     1      -9.959   9.953  69.210  1.00  0.00    -0.194 NA 
HETATM   21  C   UNL     1     -10.349   9.834  70.624  1.00  0.00    -0.261 C  
HETATM   22  C   UNL     1     -11.449   8.779  70.787  1.00  0.00    -0.270 C  
HETATM   23  O   UNL     1     -11.025   7.512  70.252  1.00  0.00    -0.247 OA 
HETATM   24  C   UNL     1     -10.746   7.638  68.847  1.00  0.00    -0.095 C  
HETATM   25  C   UNL     1      -9.640   8.674  68.559  1.00  0.00    -0.154 C  
ENDBRANCH  16  20
ENDBRANCH   9  13
ENDBRANCH   6   7
ENDBRANCH   3   6
TORSDOF 4
ENDMDL
MODEL       34
REMARK 921   NORMALIZED FREE ENERGY PREDICTED BY IDOCK:   -5.93 KCAL/MOL
REMARK 922        TOTAL FREE ENERGY PREDICTED BY IDOCK:   -7.72 KCAL/MOL
REMARK 923 INTER-LIGAND FREE ENERGY PREDICTED BY IDOCK:   -7.21 KCAL/MOL
REMARK 924 INTRA-LIGAND FREE ENERGY PREDICTED BY IDOCK:   -0.51 KCAL/MOL
REMARK 927      BINDING AFFINITY PREDICTED BY RF-SCORE:    0.00 PKD
ROOT
HETATM    1  C   UNL     1     -11.355  12.399  63.280  1.00  0.00    -0.399 C  
HETATM    2  C   UNL     1     -12.125  12.891  64.475  1.00  0.00    -0.413 C  
HETATM    3  N   UNL     1     -11.459  13.850  65.202  1.00  0.00    -0.311 N  
HETATM    4  O   UNL     1     -13.247  12.486  64.754  1.00  0.00    -0.839 OA 
HETATM    5  H   UNL     1     -10.551  14.179  64.875  1.00  0.00     0.000 HD 
ENDROOT
BRANCH   3   6
HETATM    6  C   UNL     1     -12.016  14.407  66.426  1.00  0.00    -0.385 C  
BRANCH   6   7
HETATM    7  C   UNL     1     -11.363  13.786  67.650  1.00  0.00    -0.304 C  
HETATM    8  C   UNL     1     -11.878  12.409  67.996  1.00  0.00    -0.316 C  
HETATM    9  N   UNL     1     -10.744  11.860  68.679  1.00  0.00    -0.228 N  
HETATM   10  C   UNL     1      -9.600  12.506  68.224  1.00  0.00    -0.209 C  
HETATM   11  O   UNL     1      -8.430  12.230  68.429  1.00  0.00    -0.170 OA 
HETATM   12  O   UNL     1      -9.963  13.568  67.428  1.00  0.00    -0.228 OA 
BRANCH   9  13
HETATM   13  C   UNL     1     -10.812  10.815  69.632  1.00  0.00    -0.241 A  
HETATM   14  C   UNL     1      -9.852   9.805  69.662  1.00  0.00    -0.241 A  
HETATM   15  C   UNL     1      -9.907   8.790  70.621  1.00  0.00    -0.194 A  
HETATM   16  C   UNL     1     -10.922   8.714  71.588  1.00  0.00    -0.308 A  
HETATM   17  F   UNL     1      -8.905   7.894  70.618  1.00  0.00    -0.132 F  
HETATM   18  C   UNL     1     -11.817  10.780  70.604  1.00  0.00    -0.460 A  
HETATM   19  C   UNL     1     -11.866   9.750  71.563  1.00  0.00    -0.476 A  
BRANCH  16  20
HETATM   20  N   UNL     1     -11.039   7.673  72.489  1.00  0.00    -0.307 NA 
HETATM   21  C   UNL     1     -11.838   6.472  72.192  1.00  0.00    -0.305 C  
HETATM   22  C   UNL     1     -10.937   5.233  72.136  1.00  0.00    -0.160 C  
HETATM   23  O   UNL     1     -10.199   5.082  73.363  1.00  0.00    -0.162 OA 
HETATM   24  C   UNL     1      -9.355   6.226  73.575  1.00  0.00    -0.132 C  
HETATM   25  C   UNL     1     -10.158   7.541  73.657  1.00  0.00    -0.288 C  
ENDBRANCH  16  20
ENDBRANCH   9  13
ENDBRANCH   6   7
ENDBRANCH   3   6
TORSDOF 4
ENDMDL
MODEL       35
REMARK 921   NORMALIZED FREE ENERGY PREDICTED BY IDOCK:   -5.93 KCAL/MOL
REMARK 922        TOTAL FREE ENERGY PREDICTED BY IDOCK:   -7.71 KCAL/MOL
REMARK 923 INTER-LIGAND FREE ENERGY PREDICTED BY IDOCK:   -7.01 KCAL/MOL
REMARK 924 INTRA-LIGAND FREE ENERGY PREDICTED BY IDOCK:   -0.71 KCAL/MOL
REMARK 927      BINDING AFFINITY PREDICTED BY RF-SCORE:    0.00 PKD
ROOT
HETATM    1  C   UNL     1      -6.263  20.163  65.081  1.00  0.00    -0.299 C  
HETATM    2  C   UNL     1      -7.319  20.527  66.089  1.00  0.00    -0.111 C  
HETATM    3  N   UNL     1      -8.512  19.871  65.897  1.00  0.00    -0.428 N  
HETATM    4  O   UNL     1      -7.119  21.317  67.003  1.00  0.00    -0.448 OA 
HETATM    5  H   UNL     1      -8.585  19.182  65.148  1.00  0.00     0.000 HD 
ENDROOT
BRANCH   3   6
HETATM    6  C   UNL     1      -9.673  20.132  66.735  1.00  0.00    -0.443 C  
BRANCH   6   7
HETATM    7  C   UNL     1     -10.408  18.841  67.060  1.00  0.00    -0.403 C  
HETATM    8  C   UNL     1      -9.713  17.592  66.570  1.00  0.00    -0.304 C  
HETATM    9  N   UNL     1     -10.209  16.623  67.502  1.00  0.00    -0.282 N  
HETATM   10  C   UNL     1     -10.554  17.280  68.679  1.00  0.00    -0.329 C  
HETATM   11  O   UNL     1     -10.859  16.807  69.760  1.00  0.00    -0.325 OA 
HETATM   12  O   UNL     1     -10.485  18.639  68.478  1.00  0.00    -0.308 OA 
BRANCH   9  13
HETATM   13  C   UNL     1     -10.292  15.234  67.244  1.00  0.00    -0.264 A  
HETATM   14  C   UNL     1      -9.143  14.461  67.085  1.00  0.00    -0.238 A  
HETATM   15  C   UNL     1      -9.229  13.085  66.857  1.00  0.00    -0.236 A  
HETATM   16  C   UNL     1     -10.453  12.406  66.762  1.00  0.00    -0.221 A  
HETATM   17  F   UNL     1      -8.071  12.407  66.780  1.00  0.00    -0.167 F  
HETATM   18  C   UNL     1     -11.525  14.576  67.184  1.00  0.00    -0.383 A  
HETATM   19  C   UNL     1     -11.600  13.190  66.950  1.00  0.00    -0.417 A  
BRANCH  16  20
HETATM   20  N   UNL     1     -10.559  11.063  66.454  1.00  0.00    -0.262 NA 
HETATM   21  C   UNL     1     -10.238  10.543  65.115  1.00  0.00    -0.288 C  
HETATM   22  C   UNL     1      -9.041   9.589  65.186  1.00  0.00    -0.228 C  
HETATM   23  O   UNL     1      -9.293   8.521  66.116  1.00  0.00    -0.199 OA 
HETATM   24  C   UNL     1      -9.504   9.053  67.435  1.00  0.00    -0.144 C  
HETATM   25  C   UNL     1     -10.699  10.029  67.489  1.00  0.00    -0.281 C  
ENDBRANCH  16  20
ENDBRANCH   9  13
ENDBRANCH   6   7
ENDBRANCH   3   6
TORSDOF 4
ENDMDL
MODEL       36
REMARK 921   NORMALIZED FREE ENERGY PREDICTED BY IDOCK:   -5.89 KCAL/MOL
REMARK 922        TOTAL FREE ENERGY PREDICTED BY IDOCK:   -7.66 KCAL/MOL
REMARK 923 INTER-LIGAND FREE ENERGY PREDICTED BY IDOCK:   -7.35 KCAL/MOL
REMARK 924 INTRA-LIGAND FREE ENERGY PREDICTED BY IDOCK:   -0.31 KCAL/MOL
REMARK 927      BINDING AFFINITY PREDICTED BY RF-SCORE:    0.00 PKD
ROOT
HETATM    1  C   UNL     1     -10.403  19.440  66.811  1.00  0.00    -0.545 C  
HETATM    2  C   UNL     1      -9.774  18.153  66.354  1.00  0.00    -0.327 C  
HETATM    3  N   UNL     1     -10.655  17.097  66.307  1.00  0.00    -0.243 N  
HETATM    4  O   UNL     1      -8.595  18.066  66.036  1.00  0.00    -0.500 OA 
HETATM    5  H   UNL     1     -11.636  17.259  66.531  1.00  0.00     0.000 HD 
ENDROOT
BRANCH   3   6
HETATM    6  C   UNL     1     -10.223  15.755  65.945  1.00  0.00    -0.355 C  
BRANCH   6   7
HETATM    7  C   UNL     1     -10.965  14.708  66.761  1.00  0.00    -0.323 C  
HETATM    8  C   UNL     1     -10.084  13.610  67.308  1.00  0.00    -0.239 C  
HETATM    9  N   UNL     1     -10.835  13.208  68.459  1.00  0.00    -0.255 N  
HETATM   10  C   UNL     1     -11.609  14.286  68.878  1.00  0.00    -0.305 C  
HETATM   11  O   UNL     1     -12.260  14.411  69.901  1.00  0.00    -0.318 OA 
HETATM   12  O   UNL     1     -11.536  15.290  67.941  1.00  0.00    -0.328 OA 
BRANCH   9  13
HETATM   13  C   UNL     1     -10.756  11.929  69.061  1.00  0.00    -0.156 A  
HETATM   14  C   UNL     1     -11.665  11.538  70.042  1.00  0.00    -0.414 A  
HETATM   15  C   UNL     1     -11.600  10.265  70.614  1.00  0.00    -0.347 A  
HETATM   16  C   UNL     1     -10.624   9.321  70.258  1.00  0.00    -0.235 A  
HETATM   17  F   UNL     1     -12.555   9.948  71.506  1.00  0.00    -0.377 F  
HETATM   18  C   UNL     1      -9.792  10.996  68.664  1.00  0.00    -0.197 A  
HETATM   19  C   UNL     1      -9.733   9.718  69.251  1.00  0.00    -0.204 A  
BRANCH  16  20
HETATM   20  N   UNL     1     -10.493   8.091  70.872  1.00  0.00    -0.201 NA 
HETATM   21  C   UNL     1      -9.684   7.909  72.089  1.00  0.00    -0.199 C  
HETATM   22  C   UNL     1     -10.573   7.479  73.261  1.00  0.00    -0.384 C  
HETATM   23  O   UNL     1     -11.305   6.283  72.935  1.00  0.00    -0.235 OA 
HETATM   24  C   UNL     1     -12.160   6.520  71.805  1.00  0.00    -0.342 C  
HETATM   25  C   UNL     1     -11.370   6.955  70.553  1.00  0.00    -0.327 C  
ENDBRANCH  16  20
ENDBRANCH   9  13
ENDBRANCH   6   7
ENDBRANCH   3   6
TORSDOF 4
ENDMDL
MODEL       37
REMARK 921   NORMALIZED FREE ENERGY PREDICTED BY IDOCK:   -5.87 KCAL/MOL
REMARK 922        TOTAL FREE ENERGY PREDICTED BY IDOCK:   -7.64 KCAL/MOL
REMARK 923 INTER-LIGAND FREE ENERGY PREDICTED BY IDOCK:   -7.20 KCAL/MOL
REMARK 924 INTRA-LIGAND FREE ENERGY PREDICTED BY IDOCK:   -0.44 KCAL/MOL
REMARK 927      BINDING AFFINITY PREDICTED BY RF-SCORE:    0.00 PKD
ROOT
HETATM    1  C   UNL     1     -12.421  15.801  74.438  1.00  0.00    -0.790 C  
HETATM    2  C   UNL     1     -12.974  15.660  73.046  1.00  0.00    -0.510 C  
HETATM    3  N   UNL     1     -12.031  15.298  72.113  1.00  0.00    -0.385 N  
HETATM    4  O   UNL     1     -14.157  15.831  72.782  1.00  0.00    -0.576 OA 
HETATM    5  H   UNL     1     -11.075  15.117  72.419  1.00  0.00     0.000 HD 
ENDROOT
BRANCH   3   6
HETATM    6  C   UNL     1     -12.360  15.168  70.701  1.00  0.00    -0.368 C  
BRANCH   6   7
HETATM    7  C   UNL     1     -12.613  13.714  70.336  1.00  0.00    -0.227 C  
HETATM    8  C   UNL     1     -11.370  12.946  69.954  1.00  0.00     0.039 C  
HETATM    9  N   UNL     1     -11.763  11.610  70.292  1.00  0.00    -0.308 N  
HETATM   10  C   UNL     1     -12.734  11.675  71.286  1.00  0.00    -0.340 C  
HETATM   11  O   UNL     1     -13.207  10.773  71.955  1.00  0.00    -0.484 OA 
HETATM   12  O   UNL     1     -13.118  12.984  71.462  1.00  0.00    -0.373 OA 
BRANCH   9  13
HETATM   13  C   UNL     1     -11.212  10.442  69.711  1.00  0.00    -0.293 A  
HETATM   14  C   UNL     1     -11.197  10.263  68.329  1.00  0.00    -0.295 A  
HETATM   15  C   UNL     1     -10.628   9.122  67.759  1.00  0.00    -0.227 A  
HETATM   16  C   UNL     1     -10.060   8.093  68.526  1.00  0.00    -0.200 A  
HETATM   17  F   UNL     1     -10.598   9.061  66.416  1.00  0.00    -0.311 F  
HETATM   18  C   UNL     1     -10.624   9.446  70.498  1.00  0.00    -0.331 A  
HETATM   19  C   UNL     1     -10.057   8.297  69.913  1.00  0.00    -0.195 A  
BRANCH  16  20
HETATM   20  N   UNL     1      -9.569   6.920  67.985  1.00  0.00    -0.123 NA 
HETATM   21  C   UNL     1     -10.408   5.719  67.837  1.00  0.00    -0.214 C  
HETATM   22  C   UNL     1     -10.577   5.367  66.354  1.00  0.00    -0.260 C  
HETATM   23  O   UNL     1      -9.296   5.192  65.722  1.00  0.00    -0.158 OA 
HETATM   24  C   UNL     1      -8.539   6.412  65.796  1.00  0.00    -0.148 C  
HETATM   25  C   UNL     1      -8.297   6.865  67.250  1.00  0.00    -0.121 C  
ENDBRANCH  16  20
ENDBRANCH   9  13
ENDBRANCH   6   7
ENDBRANCH   3   6
TORSDOF 4
ENDMDL
MODEL       38
REMARK 921   NORMALIZED FREE ENERGY PREDICTED BY IDOCK:   -5.86 KCAL/MOL
REMARK 922        TOTAL FREE ENERGY PREDICTED BY IDOCK:   -7.63 KCAL/MOL
REMARK 923 INTER-LIGAND FREE ENERGY PREDICTED BY IDOCK:   -7.05 KCAL/MOL
REMARK 924 INTRA-LIGAND FREE ENERGY PREDICTED BY IDOCK:   -0.58 KCAL/MOL
REMARK 927      BINDING AFFINITY PREDICTED BY RF-SCORE:    0.00 PKD
ROOT
HETATM    1  C   UNL     1     -12.942  10.315  71.715  1.00  0.00    -0.574 C  
HETATM    2  C   UNL     1     -11.703   9.740  71.086  1.00  0.00    -0.385 C  
HETATM    3  N   UNL     1     -11.692   9.825  69.714  1.00  0.00    -0.449 N  
HETATM    4  O   UNL     1     -10.786   9.262  71.743  1.00  0.00    -0.368 OA 
HETATM    5  H   UNL     1     -12.467  10.289  69.239  1.00  0.00     0.000 HD 
ENDROOT
BRANCH   3   6
HETATM    6  C   UNL     1     -10.605   9.271  68.920  1.00  0.00    -0.199 C  
BRANCH   6   7
HETATM    7  C   UNL     1     -10.055  10.309  67.955  1.00  0.00    -0.170 C  
HETATM    8  C   UNL     1     -10.364  11.737  68.339  1.00  0.00    -0.214 C  
HETATM    9  N   UNL     1      -9.275  12.427  67.714  1.00  0.00    -0.185 N  
HETATM   10  C   UNL     1      -8.206  11.544  67.593  1.00  0.00    -0.131 C  
HETATM   11  O   UNL     1      -7.054  11.775  67.269  1.00  0.00    -0.119 OA 
HETATM   12  O   UNL     1      -8.621  10.278  67.933  1.00  0.00    -0.118 OA 
BRANCH   9  13
HETATM   13  C   UNL     1      -9.306  13.788  67.325  1.00  0.00    -0.239 A  
HETATM   14  C   UNL     1      -9.886  14.179  66.119  1.00  0.00    -0.326 A  
HETATM   15  C   UNL     1      -9.938  15.525  65.752  1.00  0.00    -0.359 A  
HETATM   16  C   UNL     1      -9.408  16.552  66.550  1.00  0.00    -0.269 A  
HETATM   17  F   UNL     1     -10.572  15.820  64.603  1.00  0.00    -0.425 F  
HETATM   18  C   UNL     1      -8.798  14.794  68.154  1.00  0.00    -0.170 A  
HETATM   19  C   UNL     1      -8.852  16.148  67.771  1.00  0.00    -0.184 A  
BRANCH  16  20
HETATM   20  N   UNL     1      -9.376  17.878  66.164  1.00  0.00    -0.503 NA 
HETATM   21  C   UNL     1     -10.607  18.657  65.951  1.00  0.00    -0.321 C  
HETATM   22  C   UNL     1     -10.691  19.807  66.961  1.00  0.00    -0.418 C  
HETATM   23  O   UNL     1      -9.522  20.643  66.882  1.00  0.00    -0.355 OA 
HETATM   24  C   UNL     1      -8.346  19.876  67.192  1.00  0.00    -0.322 C  
HETATM   25  C   UNL     1      -8.151  18.687  66.229  1.00  0.00    -0.244 C  
ENDBRANCH  16  20
ENDBRANCH   9  13
ENDBRANCH   6   7
ENDBRANCH   3   6
TORSDOF 4
ENDMDL
MODEL       39
REMARK 921   NORMALIZED FREE ENERGY PREDICTED BY IDOCK:   -5.86 KCAL/MOL
REMARK 922        TOTAL FREE ENERGY PREDICTED BY IDOCK:   -7.62 KCAL/MOL
REMARK 923 INTER-LIGAND FREE ENERGY PREDICTED BY IDOCK:   -6.96 KCAL/MOL
REMARK 924 INTRA-LIGAND FREE ENERGY PREDICTED BY IDOCK:   -0.66 KCAL/MOL
REMARK 927      BINDING AFFINITY PREDICTED BY RF-SCORE:    0.00 PKD
ROOT
HETATM    1  C   UNL     1     -11.936   6.398  71.393  1.00  0.00    -0.307 C  
HETATM    2  C   UNL     1     -11.045   6.143  70.209  1.00  0.00    -0.366 C  
HETATM    3  N   UNL     1     -11.470   6.763  69.057  1.00  0.00    -0.582 N  
HETATM    4  O   UNL     1     -10.027   5.466  70.278  1.00  0.00    -0.194 OA 
HETATM    5  H   UNL     1     -12.296   7.359  69.091  1.00  0.00     0.000 HD 
ENDROOT
BRANCH   3   6
HETATM    6  C   UNL     1     -10.772   6.590  67.792  1.00  0.00    -0.296 C  
BRANCH   6   7
HETATM    7  C   UNL     1     -10.782   7.880  66.986  1.00  0.00    -0.219 C  
HETATM    8  C   UNL     1     -10.779   9.135  67.827  1.00  0.00    -0.179 C  
HETATM    9  N   UNL     1     -10.166  10.063  66.925  1.00  0.00    -0.227 N  
HETATM   10  C   UNL     1      -9.364   9.352  66.038  1.00  0.00    -0.220 C  
HETATM   11  O   UNL     1      -8.556   9.773  65.229  1.00  0.00    -0.137 OA 
HETATM   12  O   UNL     1      -9.585   8.005  66.206  1.00  0.00    -0.206 OA 
BRANCH   9  13
HETATM   13  C   UNL     1     -10.345  11.467  66.976  1.00  0.00    -0.223 A  
HETATM   14  C   UNL     1     -11.510  12.062  66.494  1.00  0.00    -0.413 A  
HETATM   15  C   UNL     1     -11.694  13.445  66.571  1.00  0.00    -0.373 A  
HETATM   16  C   UNL     1     -10.731  14.310  67.114  1.00  0.00    -0.282 A  
HETATM   17  F   UNL     1     -12.873  13.928  66.142  1.00  0.00    -0.466 F  
HETATM   18  C   UNL     1      -9.383  12.303  67.551  1.00  0.00    -0.183 A  
HETATM   19  C   UNL     1      -9.577  13.696  67.619  1.00  0.00    -0.221 A  
BRANCH  16  20
HETATM   20  N   UNL     1     -10.860  15.686  67.122  1.00  0.00    -0.312 NA 
HETATM   21  C   UNL     1     -11.263  16.424  68.330  1.00  0.00    -0.324 C  
HETATM   22  C   UNL     1     -10.133  17.351  68.790  1.00  0.00    -0.346 C  
HETATM   23  O   UNL     1      -9.746  18.248  67.733  1.00  0.00    -0.282 OA 
HETATM   24  C   UNL     1      -9.263  17.501  66.604  1.00  0.00    -0.262 C  
HETATM   25  C   UNL     1     -10.326  16.532  66.045  1.00  0.00    -0.345 C  
ENDBRANCH  16  20
ENDBRANCH   9  13
ENDBRANCH   6   7
ENDBRANCH   3   6
TORSDOF 4
ENDMDL
MODEL       40
REMARK 921   NORMALIZED FREE ENERGY PREDICTED BY IDOCK:   -5.80 KCAL/MOL
REMARK 922        TOTAL FREE ENERGY PREDICTED BY IDOCK:   -7.56 KCAL/MOL
REMARK 923 INTER-LIGAND FREE ENERGY PREDICTED BY IDOCK:   -7.10 KCAL/MOL
REMARK 924 INTRA-LIGAND FREE ENERGY PREDICTED BY IDOCK:   -0.45 KCAL/MOL
REMARK 927      BINDING AFFINITY PREDICTED BY RF-SCORE:    0.00 PKD
ROOT
HETATM    1  C   UNL     1      -8.465   5.329  64.109  1.00  0.00    -0.108 C  
HETATM    2  C   UNL     1      -7.962   6.742  64.219  1.00  0.00    -0.087 C  
HETATM    3  N   UNL     1      -8.742   7.543  65.019  1.00  0.00    -0.361 N  
HETATM    4  O   UNL     1      -6.942   7.128  63.663  1.00  0.00    -0.056 OA 
HETATM    5  H   UNL     1      -9.547   7.136  65.496  1.00  0.00     0.000 HD 
ENDROOT
BRANCH   3   6
HETATM    6  C   UNL     1      -8.452   8.958  65.203  1.00  0.00    -0.173 C  
BRANCH   6   7
HETATM    7  C   UNL     1      -9.676   9.701  65.713  1.00  0.00    -0.280 C  
HETATM    8  C   UNL     1      -9.376  10.738  66.770  1.00  0.00    -0.161 C  
HETATM    9  N   UNL     1     -10.472  11.640  66.583  1.00  0.00    -0.225 N  
HETATM   10  C   UNL     1     -10.915  11.529  65.268  1.00  0.00    -0.228 C  
HETATM   11  O   UNL     1     -11.710  12.229  64.665  1.00  0.00    -0.343 OA 
HETATM   12  O   UNL     1     -10.283  10.468  64.664  1.00  0.00    -0.345 OA 
BRANCH   9  13
HETATM   13  C   UNL     1     -10.976  12.507  67.582  1.00  0.00    -0.242 A  
HETATM   14  C   UNL     1     -11.007  13.888  67.390  1.00  0.00    -0.299 A  
HETATM   15  C   UNL     1     -11.529  14.737  68.367  1.00  0.00    -0.314 A  
HETATM   16  C   UNL     1     -12.034  14.268  69.590  1.00  0.00    -0.336 A  
HETATM   17  F   UNL     1     -11.579  16.048  68.072  1.00  0.00    -0.332 F  
HETATM   18  C   UNL     1     -11.502  12.011  68.779  1.00  0.00    -0.355 A  
HETATM   19  C   UNL     1     -12.023  12.877  69.760  1.00  0.00    -0.365 A  
BRANCH  16  20
HETATM   20  N   UNL     1     -12.477  15.099  70.601  1.00  0.00    -0.359 NA 
HETATM   21  C   UNL     1     -13.883  15.113  71.039  1.00  0.00    -0.349 C  
HETATM   22  C   UNL     1     -13.992  14.647  72.495  1.00  0.00    -0.417 C  
HETATM   23  O   UNL     1     -13.168  15.456  73.354  1.00  0.00    -0.488 OA 
HETATM   24  C   UNL     1     -11.789  15.344  72.963  1.00  0.00    -0.422 C  
HETATM   25  C   UNL     1     -11.553  15.797  71.507  1.00  0.00    -0.459 C  
ENDBRANCH  16  20
ENDBRANCH   9  13
ENDBRANCH   6   7
ENDBRANCH   3   6
TORSDOF 4
ENDMDL
MODEL       41
REMARK 921   NORMALIZED FREE ENERGY PREDICTED BY IDOCK:   -5.80 KCAL/MOL
REMARK 922        TOTAL FREE ENERGY PREDICTED BY IDOCK:   -7.56 KCAL/MOL
REMARK 923 INTER-LIGAND FREE ENERGY PREDICTED BY IDOCK:   -6.91 KCAL/MOL
REMARK 924 INTRA-LIGAND FREE ENERGY PREDICTED BY IDOCK:   -0.65 KCAL/MOL
REMARK 927      BINDING AFFINITY PREDICTED BY RF-SCORE:    0.00 PKD
ROOT
HETATM    1  C   UNL     1     -13.281  11.521  71.839  1.00  0.00    -0.479 C  
HETATM    2  C   UNL     1     -13.483  13.004  71.977  1.00  0.00    -0.492 C  
HETATM    3  N   UNL     1     -12.669  13.750  71.156  1.00  0.00    -0.354 N  
HETATM    4  O   UNL     1     -14.311  13.493  72.735  1.00  0.00    -0.640 OA 
HETATM    5  H   UNL     1     -12.044  13.270  70.509  1.00  0.00     0.000 HD 
ENDROOT
BRANCH   3   6
HETATM    6  C   UNL     1     -12.676  15.205  71.187  1.00  0.00    -0.385 C  
BRANCH   6   7
HETATM    7  C   UNL     1     -12.149  15.777  69.881  1.00  0.00    -0.297 C  
HETATM    8  C   UNL     1     -10.695  16.185  69.925  1.00  0.00    -0.328 C  
HETATM    9  N   UNL     1     -10.335  16.054  68.545  1.00  0.00    -0.233 N  
HETATM   10  C   UNL     1     -11.181  15.119  67.956  1.00  0.00    -0.323 C  
HETATM   11  O   UNL     1     -11.107  14.606  66.853  1.00  0.00    -0.316 OA 
HETATM   12  O   UNL     1     -12.182  14.791  68.840  1.00  0.00    -0.230 OA 
BRANCH   9  13
HETATM   13  C   UNL     1      -9.271  16.752  67.924  1.00  0.00    -0.225 A  
HETATM   14  C   UNL     1      -8.008  16.176  67.798  1.00  0.00    -0.155 A  
HETATM   15  C   UNL     1      -6.969  16.858  67.161  1.00  0.00    -0.181 A  
HETATM   16  C   UNL     1      -7.120  18.149  66.630  1.00  0.00    -0.211 A  
HETATM   17  F   UNL     1      -5.803  16.203  67.026  1.00  0.00    -0.177 F  
HETATM   18  C   UNL     1      -9.458  18.026  67.376  1.00  0.00    -0.262 A  
HETATM   19  C   UNL     1      -8.401  18.706  66.740  1.00  0.00    -0.287 A  
BRANCH  16  20
HETATM   20  N   UNL     1      -6.082  18.870  66.073  1.00  0.00    -0.172 NA 
HETATM   21  C   UNL     1      -5.871  18.934  64.617  1.00  0.00    -0.264 C  
HETATM   22  C   UNL     1      -6.049  20.372  64.116  1.00  0.00    -0.276 C  
HETATM   23  O   UNL     1      -5.165  21.269  64.813  1.00  0.00    -0.210 OA 
HETATM   24  C   UNL     1      -5.461  21.259  66.220  1.00  0.00    -0.249 C  
HETATM   25  C   UNL     1      -5.307  19.855  66.841  1.00  0.00    -0.161 C  
ENDBRANCH  16  20
ENDBRANCH   9  13
ENDBRANCH   6   7
ENDBRANCH   3   6
TORSDOF 4
ENDMDL
MODEL       42
REMARK 921   NORMALIZED FREE ENERGY PREDICTED BY IDOCK:   -5.80 KCAL/MOL
REMARK 922        TOTAL FREE ENERGY PREDICTED BY IDOCK:   -7.55 KCAL/MOL
REMARK 923 INTER-LIGAND FREE ENERGY PREDICTED BY IDOCK:   -6.95 KCAL/MOL
REMARK 924 INTRA-LIGAND FREE ENERGY PREDICTED BY IDOCK:   -0.60 KCAL/MOL
REMARK 927      BINDING AFFINITY PREDICTED BY RF-SCORE:    0.00 PKD
ROOT
HETATM    1  C   UNL     1     -12.271  12.314  63.555  1.00  0.00    -0.669 C  
HETATM    2  C   UNL     1     -12.210  12.877  64.948  1.00  0.00    -0.453 C  
HETATM    3  N   UNL     1     -11.222  12.319  65.725  1.00  0.00    -0.323 N  
HETATM    4  O   UNL     1     -12.959  13.764  65.339  1.00  0.00    -0.706 OA 
HETATM    5  H   UNL     1     -10.599  11.625  65.312  1.00  0.00     0.000 HD 
ENDROOT
BRANCH   3   6
HETATM    6  C   UNL     1     -11.042  12.691  67.121  1.00  0.00    -0.280 C  
BRANCH   6   7
HETATM    7  C   UNL     1     -11.598  11.618  68.044  1.00  0.00    -0.313 C  
HETATM    8  C   UNL     1     -10.546  10.733  68.668  1.00  0.00    -0.199 C  
HETATM    9  N   UNL     1     -11.214  10.323  69.868  1.00  0.00    -0.279 N  
HETATM   10  C   UNL     1     -12.151  11.295  70.204  1.00  0.00    -0.366 C  
HETATM   11  O   UNL     1     -12.806  11.407  71.226  1.00  0.00    -0.403 OA 
HETATM   12  O   UNL     1     -12.248  12.207  69.179  1.00  0.00    -0.202 OA 
BRANCH   9  13
HETATM   13  C   UNL     1     -10.923   9.135  70.581  1.00  0.00    -0.263 A  
HETATM   14  C   UNL     1     -10.194   9.169  71.769  1.00  0.00    -0.305 A  
HETATM   15  C   UNL     1      -9.932   7.998  72.484  1.00  0.00    -0.270 A  
HETATM   16  C   UNL     1     -10.363   6.733  72.054  1.00  0.00    -0.196 A  
HETATM   17  F   UNL     1      -9.280   8.129  73.652  1.00  0.00    -0.315 F  
HETATM   18  C   UNL     1     -11.391   7.891  70.146  1.00  0.00    -0.099 A  
HETATM   19  C   UNL     1     -11.117   6.716  70.872  1.00  0.00    -0.335 A  
BRANCH  16  20
HETATM   20  N   UNL     1     -10.042   5.556  72.703  1.00  0.00    -0.178 NA 
HETATM   21  C   UNL     1     -10.798   5.081  73.873  1.00  0.00    -0.275 C  
HETATM   22  C   UNL     1     -11.493   3.752  73.555  1.00  0.00    -0.081 C  
HETATM   23  O   UNL     1     -10.539   2.770  73.113  1.00  0.00    -0.147 OA 
HETATM   24  C   UNL     1      -9.887   3.219  71.913  1.00  0.00    -0.168 C  
HETATM   25  C   UNL     1      -9.142   4.554  72.115  1.00  0.00    -0.126 C  
ENDBRANCH  16  20
ENDBRANCH   9  13
ENDBRANCH   6   7
ENDBRANCH   3   6
TORSDOF 4
ENDMDL
MODEL       43
REMARK 921   NORMALIZED FREE ENERGY PREDICTED BY IDOCK:   -5.77 KCAL/MOL
REMARK 922        TOTAL FREE ENERGY PREDICTED BY IDOCK:   -7.52 KCAL/MOL
REMARK 923 INTER-LIGAND FREE ENERGY PREDICTED BY IDOCK:   -7.08 KCAL/MOL
REMARK 924 INTRA-LIGAND FREE ENERGY PREDICTED BY IDOCK:   -0.44 KCAL/MOL
REMARK 927      BINDING AFFINITY PREDICTED BY RF-SCORE:    0.00 PKD
ROOT
HETATM    1  C   UNL     1     -10.529  18.434  66.011  1.00  0.00    -0.400 C  
HETATM    2  C   UNL     1     -10.134  16.997  65.805  1.00  0.00    -0.199 C  
HETATM    3  N   UNL     1     -11.205  16.145  65.673  1.00  0.00     0.009 N  
HETATM    4  O   UNL     1      -8.966  16.633  65.740  1.00  0.00    -0.498 OA 
HETATM    5  H   UNL     1     -12.149  16.531  65.680  1.00  0.00     0.000 HD 
ENDROOT
BRANCH   3   6
HETATM    6  C   UNL     1     -11.028  14.708  65.524  1.00  0.00    -0.340 C  
BRANCH   6   7
HETATM    7  C   UNL     1     -11.722  13.957  66.648  1.00  0.00    -0.395 C  
HETATM    8  C   UNL     1     -10.912  12.821  67.228  1.00  0.00    -0.262 C  
HETATM    9  N   UNL     1     -11.453  12.751  68.552  1.00  0.00    -0.285 N  
HETATM   10  C   UNL     1     -11.959  14.003  68.888  1.00  0.00    -0.352 C  
HETATM   11  O   UNL     1     -12.353  14.406  69.969  1.00  0.00    -0.326 OA 
HETATM   12  O   UNL     1     -11.941  14.814  67.778  1.00  0.00    -0.334 OA 
BRANCH   9  13
HETATM   13  C   UNL     1     -11.432  11.593  69.366  1.00  0.00    -0.307 A  
HETATM   14  C   UNL     1     -10.417  10.645  69.244  1.00  0.00    -0.252 A  
HETATM   15  C   UNL     1     -10.385   9.517  70.067  1.00  0.00    -0.247 A  
HETATM   16  C   UNL     1     -11.361   9.261  71.042  1.00  0.00    -0.320 A  
HETATM   17  F   UNL     1      -9.336   8.688  69.925  1.00  0.00    -0.151 F  
HETATM   18  C   UNL     1     -12.400  11.378  70.352  1.00  0.00    -0.404 A  
HETATM   19  C   UNL     1     -12.361  10.234  71.173  1.00  0.00    -0.501 A  
BRANCH  16  20
HETATM   20  N   UNL     1     -11.392   8.110  71.806  1.00  0.00    -0.263 NA 
HETATM   21  C   UNL     1     -12.035   6.875  71.329  1.00  0.00    -0.356 C  
HETATM   22  C   UNL     1     -10.996   5.759  71.174  1.00  0.00    -0.225 C  
HETATM   23  O   UNL     1     -10.293   5.540  72.410  1.00  0.00    -0.193 OA 
HETATM   24  C   UNL     1      -9.594   6.734  72.799  1.00  0.00    -0.145 C  
HETATM   25  C   UNL     1     -10.545   7.933  72.995  1.00  0.00    -0.339 C  
ENDBRANCH  16  20
ENDBRANCH   9  13
ENDBRANCH   6   7
ENDBRANCH   3   6
TORSDOF 4
ENDMDL
MODEL       44
REMARK 921   NORMALIZED FREE ENERGY PREDICTED BY IDOCK:   -5.75 KCAL/MOL
REMARK 922        TOTAL FREE ENERGY PREDICTED BY IDOCK:   -7.49 KCAL/MOL
REMARK 923 INTER-LIGAND FREE ENERGY PREDICTED BY IDOCK:   -6.78 KCAL/MOL
REMARK 924 INTRA-LIGAND FREE ENERGY PREDICTED BY IDOCK:   -0.71 KCAL/MOL
REMARK 927      BINDING AFFINITY PREDICTED BY RF-SCORE:    0.00 PKD
ROOT
HETATM    1  C   UNL     1     -12.175  14.775  64.340  1.00  0.00    -0.447 C  
HETATM    2  C   UNL     1     -11.826  13.402  63.837  1.00  0.00    -0.439 C  
HETATM    3  N   UNL     1     -10.476  13.139  63.843  1.00  0.00    -0.526 N  
HETATM    4  O   UNL     1     -12.672  12.592  63.478  1.00  0.00    -0.722 OA 
HETATM    5  H   UNL     1      -9.836  13.842  64.211  1.00  0.00     0.000 HD 
ENDROOT
BRANCH   3   6
HETATM    6  C   UNL     1      -9.937  11.885  63.339  1.00  0.00    -0.410 C  
BRANCH   6   7
HETATM    7  C   UNL     1      -9.366  11.046  64.472  1.00  0.00    -0.198 C  
HETATM    8  C   UNL     1     -10.406  10.302  65.276  1.00  0.00    -0.148 C  
HETATM    9  N   UNL     1      -9.633   9.198  65.763  1.00  0.00    -0.268 N  
HETATM   10  C   UNL     1      -8.581   8.974  64.880  1.00  0.00    -0.180 C  
HETATM   11  O   UNL     1      -7.797   8.041  64.842  1.00  0.00    -0.113 OA 
HETATM   12  O   UNL     1      -8.533   9.996  63.961  1.00  0.00    -0.153 OA 
BRANCH   9  13
HETATM   13  C   UNL     1      -9.935   8.463  66.934  1.00  0.00    -0.271 A  
HETATM   14  C   UNL     1      -9.617   8.959  68.198  1.00  0.00    -0.161 A  
HETATM   15  C   UNL     1      -9.941   8.243  69.352  1.00  0.00    -0.188 A  
HETATM   16  C   UNL     1     -10.582   6.994  69.317  1.00  0.00    -0.224 A  
HETATM   17  F   UNL     1      -9.656   8.824  70.531  1.00  0.00    -0.166 F  
HETATM   18  C   UNL     1     -10.602   7.235  66.872  1.00  0.00    -0.375 A  
HETATM   19  C   UNL     1     -10.920   6.520  68.042  1.00  0.00    -0.368 A  
BRANCH  16  20
HETATM   20  N   UNL     1     -10.834   6.235  70.443  1.00  0.00    -0.274 NA 
HETATM   21  C   UNL     1      -9.932   5.153  70.872  1.00  0.00    -0.210 C  
HETATM   22  C   UNL     1      -9.318   5.482  72.237  1.00  0.00    -0.145 C  
HETATM   23  O   UNL     1     -10.346   5.724  73.215  1.00  0.00    -0.189 OA 
HETATM   24  C   UNL     1     -11.149   6.848  72.817  1.00  0.00    -0.269 C  
HETATM   25  C   UNL     1     -11.830   6.628  71.450  1.00  0.00    -0.337 C  
ENDBRANCH  16  20
ENDBRANCH   9  13
ENDBRANCH   6   7
ENDBRANCH   3   6
TORSDOF 4
ENDMDL
MODEL       45
REMARK 921   NORMALIZED FREE ENERGY PREDICTED BY IDOCK:   -5.74 KCAL/MOL
REMARK 922        TOTAL FREE ENERGY PREDICTED BY IDOCK:   -7.48 KCAL/MOL
REMARK 923 INTER-LIGAND FREE ENERGY PREDICTED BY IDOCK:   -6.99 KCAL/MOL
REMARK 924 INTRA-LIGAND FREE ENERGY PREDICTED BY IDOCK:   -0.49 KCAL/MOL
REMARK 927      BINDING AFFINITY PREDICTED BY RF-SCORE:    0.00 PKD
ROOT
HETATM    1  C   UNL     1     -13.326  14.050  72.552  1.00  0.00    -0.639 C  
HETATM    2  C   UNL     1     -13.080  14.882  71.324  1.00  0.00    -0.381 C  
HETATM    3  N   UNL     1     -11.959  14.507  70.621  1.00  0.00    -0.301 N  
HETATM    4  O   UNL     1     -13.825  15.790  70.977  1.00  0.00    -0.501 OA 
HETATM    5  H   UNL     1     -11.419  13.703  70.940  1.00  0.00     0.000 HD 
ENDROOT
BRANCH   3   6
HETATM    6  C   UNL     1     -11.522  15.229  69.435  1.00  0.00    -0.315 C  
BRANCH   6   7
HETATM    7  C   UNL     1     -11.101  14.263  68.338  1.00  0.00    -0.256 C  
HETATM    8  C   UNL     1     -10.975  12.828  68.791  1.00  0.00    -0.250 C  
HETATM    9  N   UNL     1     -11.215  12.134  67.561  1.00  0.00    -0.277 N  
HETATM   10  C   UNL     1     -11.991  12.947  66.740  1.00  0.00    -0.350 C  
HETATM   11  O   UNL     1     -12.543  12.672  65.689  1.00  0.00    -0.611 OA 
HETATM   12  O   UNL     1     -12.095  14.196  67.306  1.00  0.00    -0.417 OA 
BRANCH   9  13
HETATM   13  C   UNL     1     -10.751  10.828  67.274  1.00  0.00    -0.274 A  
HETATM   14  C   UNL     1     -10.255  10.500  66.013  1.00  0.00    -0.310 A  
HETATM   15  C   UNL     1      -9.773   9.218  65.742  1.00  0.00    -0.269 A  
HETATM   16  C   UNL     1      -9.769   8.190  66.698  1.00  0.00    -0.248 A  
HETATM   17  F   UNL     1      -9.254   9.007  64.520  1.00  0.00    -0.212 F  
HETATM   18  C   UNL     1     -10.729   9.831  68.255  1.00  0.00    -0.277 A  
HETATM   19  C   UNL     1     -10.245   8.540  67.969  1.00  0.00    -0.264 A  
BRANCH  16  20
HETATM   20  N   UNL     1      -9.375   6.895  66.424  1.00  0.00    -0.164 NA 
HETATM   21  C   UNL     1      -7.955   6.507  66.373  1.00  0.00    -0.110 C  
HETATM   22  C   UNL     1      -7.640   5.494  67.479  1.00  0.00    -0.089 C  
HETATM   23  O   UNL     1      -8.501   4.345  67.380  1.00  0.00    -0.103 OA 
HETATM   24  C   UNL     1      -9.874   4.742  67.532  1.00  0.00    -0.162 C  
HETATM   25  C   UNL     1     -10.311   5.763  66.461  1.00  0.00    -0.209 C  
ENDBRANCH  16  20
ENDBRANCH   9  13
ENDBRANCH   6   7
ENDBRANCH   3   6
TORSDOF 4
ENDMDL
MODEL       46
REMARK 921   NORMALIZED FREE ENERGY PREDICTED BY IDOCK:   -5.73 KCAL/MOL
REMARK 922        TOTAL FREE ENERGY PREDICTED BY IDOCK:   -7.47 KCAL/MOL
REMARK 923 INTER-LIGAND FREE ENERGY PREDICTED BY IDOCK:   -6.85 KCAL/MOL
REMARK 924 INTRA-LIGAND FREE ENERGY PREDICTED BY IDOCK:   -0.62 KCAL/MOL
REMARK 927      BINDING AFFINITY PREDICTED BY RF-SCORE:    0.00 PKD
ROOT
HETATM    1  C   UNL     1      -9.589  10.340  63.839  1.00  0.00    -0.354 C  
HETATM    2  C   UNL     1     -10.247  11.667  64.097  1.00  0.00    -0.326 C  
HETATM    3  N   UNL     1     -11.064  11.671  65.203  1.00  0.00    -0.271 N  
HETATM    4  O   UNL     1     -10.050  12.652  63.396  1.00  0.00    -0.367 OA 
HETATM    5  H   UNL     1     -11.133  10.827  65.772  1.00  0.00     0.000 HD 
ENDROOT
BRANCH   3   6
HETATM    6  C   UNL     1     -11.833  12.847  65.583  1.00  0.00    -0.417 C  
BRANCH   6   7
HETATM    7  C   UNL     1     -11.217  13.529  66.794  1.00  0.00    -0.310 C  
HETATM    8  C   UNL     1     -10.131  14.524  66.458  1.00  0.00    -0.274 C  
HETATM    9  N   UNL     1     -10.209  15.402  67.587  1.00  0.00    -0.243 N  
HETATM   10  C   UNL     1     -11.499  15.340  68.104  1.00  0.00    -0.346 C  
HETATM   11  O   UNL     1     -12.020  16.043  68.953  1.00  0.00    -0.348 OA 
HETATM   12  O   UNL     1     -12.190  14.326  67.483  1.00  0.00    -0.354 OA 
BRANCH   9  13
HETATM   13  C   UNL     1      -9.141  16.206  68.053  1.00  0.00    -0.190 A  
HETATM   14  C   UNL     1      -8.043  15.642  68.700  1.00  0.00    -0.158 A  
HETATM   15  C   UNL     1      -6.979  16.435  69.133  1.00  0.00    -0.218 A  
HETATM   16  C   UNL     1      -6.952  17.829  68.963  1.00  0.00    -0.236 A  
HETATM   17  F   UNL     1      -5.932  15.801  69.690  1.00  0.00    -0.119 F  
HETATM   18  C   UNL     1      -9.125  17.589  67.842  1.00  0.00    -0.261 A  
HETATM   19  C   UNL     1      -8.049  18.381  68.288  1.00  0.00    -0.315 A  
BRANCH  16  20
HETATM   20  N   UNL     1      -5.948  18.638  69.460  1.00  0.00    -0.248 NA 
HETATM   21  C   UNL     1      -5.311  19.681  68.639  1.00  0.00    -0.195 C  
HETATM   22  C   UNL     1      -5.592  21.068  69.227  1.00  0.00    -0.300 C  
HETATM   23  O   UNL     1      -5.156  21.140  70.597  1.00  0.00    -0.541 OA 
HETATM   24  C   UNL     1      -5.867  20.177  71.393  1.00  0.00    -0.321 C  
HETATM   25  C   UNL     1      -5.652  18.732  70.896  1.00  0.00    -0.141 C  
ENDBRANCH  16  20
ENDBRANCH   9  13
ENDBRANCH   6   7
ENDBRANCH   3   6
TORSDOF 4
ENDMDL
MODEL       47
REMARK 921   NORMALIZED FREE ENERGY PREDICTED BY IDOCK:   -5.70 KCAL/MOL
REMARK 922        TOTAL FREE ENERGY PREDICTED BY IDOCK:   -7.43 KCAL/MOL
REMARK 923 INTER-LIGAND FREE ENERGY PREDICTED BY IDOCK:   -6.86 KCAL/MOL
REMARK 924 INTRA-LIGAND FREE ENERGY PREDICTED BY IDOCK:   -0.57 KCAL/MOL
REMARK 927      BINDING AFFINITY PREDICTED BY RF-SCORE:    0.00 PKD
ROOT
HETATM    1  C   UNL     1     -12.337  12.490  63.210  1.00  0.00    -0.473 C  
HETATM    2  C   UNL     1     -12.372  13.537  64.290  1.00  0.00    -0.335 C  
HETATM    3  N   UNL     1     -12.159  13.034  65.551  1.00  0.00    -0.427 N  
HETATM    4  O   UNL     1     -12.550  14.726  64.055  1.00  0.00    -0.822 OA 
HETATM    5  H   UNL     1     -11.959  12.040  65.662  1.00  0.00     0.000 HD 
ENDROOT
BRANCH   3   6
HETATM    6  C   UNL     1     -12.212  13.881  66.734  1.00  0.00    -0.399 C  
BRANCH   6   7
HETATM    7  C   UNL     1     -11.433  13.260  67.882  1.00  0.00    -0.306 C  
HETATM    8  C   UNL     1     -11.640  11.771  68.037  1.00  0.00    -0.316 C  
HETATM    9  N   UNL     1     -10.412  11.391  68.668  1.00  0.00    -0.195 N  
HETATM   10  C   UNL     1      -9.434  12.319  68.323  1.00  0.00    -0.209 C  
HETATM   11  O   UNL     1      -8.231  12.273  68.515  1.00  0.00    -0.153 OA 
HETATM   12  O   UNL     1     -10.020  13.374  67.663  1.00  0.00    -0.221 OA 
BRANCH   9  13
HETATM   13  C   UNL     1     -10.249  10.241  69.477  1.00  0.00    -0.236 A  
HETATM   14  C   UNL     1      -9.360   9.229  69.119  1.00  0.00    -0.157 A  
HETATM   15  C   UNL     1      -9.182   8.108  69.933  1.00  0.00    -0.151 A  
HETATM   16  C   UNL     1      -9.884   7.923  71.134  1.00  0.00    -0.165 A  
HETATM   17  F   UNL     1      -8.258   7.212  69.544  1.00  0.00    -0.121 F  
HETATM   18  C   UNL     1     -10.938  10.097  70.685  1.00  0.00    -0.357 A  
HETATM   19  C   UNL     1     -10.754   8.960  71.496  1.00  0.00    -0.398 A  
BRANCH  16  20
HETATM   20  N   UNL     1      -9.783   6.784  71.909  1.00  0.00    -0.156 NA 
HETATM   21  C   UNL     1      -9.110   6.789  73.218  1.00  0.00    -0.129 C  
HETATM   22  C   UNL     1     -10.111   6.463  74.333  1.00  0.00    -0.348 C  
HETATM   23  O   UNL     1     -10.762   5.204  74.083  1.00  0.00    -0.287 OA 
HETATM   24  C   UNL     1     -11.492   5.263  72.846  1.00  0.00    -0.270 C  
HETATM   25  C   UNL     1     -10.581   5.578  71.642  1.00  0.00    -0.231 C  
ENDBRANCH  16  20
ENDBRANCH   9  13
ENDBRANCH   6   7
ENDBRANCH   3   6
TORSDOF 4
ENDMDL
MODEL       48
REMARK 921   NORMALIZED FREE ENERGY PREDICTED BY IDOCK:   -5.70 KCAL/MOL
REMARK 922        TOTAL FREE ENERGY PREDICTED BY IDOCK:   -7.43 KCAL/MOL
REMARK 923 INTER-LIGAND FREE ENERGY PREDICTED BY IDOCK:   -7.13 KCAL/MOL
REMARK 924 INTRA-LIGAND FREE ENERGY PREDICTED BY IDOCK:   -0.30 KCAL/MOL
REMARK 927      BINDING AFFINITY PREDICTED BY RF-SCORE:    0.00 PKD
ROOT
HETATM    1  C   UNL     1      -7.808   4.990  69.793  1.00  0.00    -0.071 C  
HETATM    2  C   UNL     1      -9.067   4.702  70.564  1.00  0.00    -0.120 C  
HETATM    3  N   UNL     1      -9.179   5.427  71.727  1.00  0.00    -0.141 N  
HETATM    4  O   UNL     1      -9.918   3.912  70.174  1.00  0.00    -0.162 OA 
HETATM    5  H   UNL     1      -8.457   6.110  71.957  1.00  0.00     0.000 HD 
ENDROOT
BRANCH   3   6
HETATM    6  C   UNL     1     -10.299   5.247  72.638  1.00  0.00    -0.202 C  
BRANCH   6   7
HETATM    7  C   UNL     1     -11.206   6.467  72.631  1.00  0.00    -0.249 C  
HETATM    8  C   UNL     1     -10.701   7.609  71.779  1.00  0.00    -0.216 C  
HETATM    9  N   UNL     1     -11.932   8.264  71.450  1.00  0.00    -0.293 N  
HETATM   10  C   UNL     1     -12.959   7.328  71.509  1.00  0.00    -0.389 C  
HETATM   11  O   UNL     1     -14.118   7.438  71.146  1.00  0.00    -0.345 OA 
HETATM   12  O   UNL     1     -12.477   6.157  72.045  1.00  0.00    -0.250 OA 
BRANCH   9  13
HETATM   13  C   UNL     1     -12.042   9.631  71.098  1.00  0.00    -0.362 A  
HETATM   14  C   UNL     1     -12.827  10.507  71.847  1.00  0.00    -0.509 A  
HETATM   15  C   UNL     1     -12.912  11.860  71.513  1.00  0.00    -0.323 A  
HETATM   16  C   UNL     1     -12.237  12.415  70.414  1.00  0.00    -0.287 A  
HETATM   17  F   UNL     1     -13.640  12.644  72.327  1.00  0.00    -0.583 F  
HETATM   18  C   UNL     1     -11.334  10.165  70.016  1.00  0.00    -0.351 A  
HETATM   19  C   UNL     1     -11.430  11.530  69.686  1.00  0.00    -0.373 A  
BRANCH  16  20
HETATM   20  N   UNL     1     -12.376  13.731  70.020  1.00  0.00    -0.324 NA 
HETATM   21  C   UNL     1     -12.493  14.828  70.995  1.00  0.00    -0.330 C  
HETATM   22  C   UNL     1     -11.297  15.779  70.875  1.00  0.00    -0.389 C  
HETATM   23  O   UNL     1     -11.177  16.282  69.532  1.00  0.00    -0.323 OA 
HETATM   24  C   UNL     1     -10.964  15.196  68.615  1.00  0.00    -0.255 C  
HETATM   25  C   UNL     1     -12.116  14.171  68.642  1.00  0.00    -0.285 C  
ENDBRANCH  16  20
ENDBRANCH   9  13
ENDBRANCH   6   7
ENDBRANCH   3   6
TORSDOF 4
ENDMDL
MODEL       49
REMARK 921   NORMALIZED FREE ENERGY PREDICTED BY IDOCK:   -5.67 KCAL/MOL
REMARK 922        TOTAL FREE ENERGY PREDICTED BY IDOCK:   -7.39 KCAL/MOL
REMARK 923 INTER-LIGAND FREE ENERGY PREDICTED BY IDOCK:   -7.33 KCAL/MOL
REMARK 924 INTRA-LIGAND FREE ENERGY PREDICTED BY IDOCK:   -0.06 KCAL/MOL
REMARK 927      BINDING AFFINITY PREDICTED BY RF-SCORE:    0.00 PKD
ROOT
HETATM    1  C   UNL     1     -10.334   7.966  72.801  1.00  0.00    -0.399 C  
HETATM    2  C   UNL     1     -11.561   8.216  71.968  1.00  0.00    -0.330 C  
HETATM    3  N   UNL     1     -11.751   9.541  71.653  1.00  0.00    -0.389 N  
HETATM    4  O   UNL     1     -12.302   7.317  71.592  1.00  0.00    -0.317 OA 
HETATM    5  H   UNL     1     -11.058  10.227  71.953  1.00  0.00     0.000 HD 
ENDROOT
BRANCH   3   6
HETATM    6  C   UNL     1     -12.914   9.991  70.902  1.00  0.00    -0.318 C  
BRANCH   6   7
HETATM    7  C   UNL     1     -12.504  10.926  69.775  1.00  0.00    -0.182 C  
HETATM    8  C   UNL     1     -12.196  12.336  70.222  1.00  0.00    -0.262 C  
HETATM    9  N   UNL     1     -11.287  12.752  69.196  1.00  0.00    -0.280 N  
HETATM   10  C   UNL     1     -10.668  11.622  68.671  1.00  0.00    -0.212 C  
HETATM   11  O   UNL     1      -9.724  11.551  67.903  1.00  0.00    -0.173 OA 
HETATM   12  O   UNL     1     -11.274  10.495  69.175  1.00  0.00    -0.228 OA 
BRANCH   9  13
HETATM   13  C   UNL     1     -11.060  14.099  68.824  1.00  0.00    -0.262 A  
HETATM   14  C   UNL     1     -11.099  14.494  67.488  1.00  0.00    -0.316 A  
HETATM   15  C   UNL     1     -10.901  15.829  67.128  1.00  0.00    -0.289 A  
HETATM   16  C   UNL     1     -10.640  16.839  68.068  1.00  0.00    -0.347 A  
HETATM   17  F   UNL     1     -11.020  16.134  65.824  1.00  0.00    -0.304 F  
HETATM   18  C   UNL     1     -10.832  15.091  69.784  1.00  0.00    -0.277 A  
HETATM   19  C   UNL     1     -10.630  16.433  69.410  1.00  0.00    -0.317 A  
BRANCH  16  20
HETATM   20  N   UNL     1     -10.359  18.147  67.725  1.00  0.00    -0.382 NA 
HETATM   21  C   UNL     1     -10.007  19.159  68.734  1.00  0.00    -0.427 C  
HETATM   22  C   UNL     1      -8.576  19.660  68.510  1.00  0.00    -0.296 C  
HETATM   23  O   UNL     1      -8.416  20.173  67.175  1.00  0.00    -0.320 OA 
HETATM   24  C   UNL     1      -8.670  19.135  66.214  1.00  0.00    -0.295 C  
HETATM   25  C   UNL     1     -10.094  18.556  66.338  1.00  0.00    -0.405 C  
ENDBRANCH  16  20
ENDBRANCH   9  13
ENDBRANCH   6   7
ENDBRANCH   3   6
TORSDOF 4
ENDMDL
MODEL       50
REMARK 921   NORMALIZED FREE ENERGY PREDICTED BY IDOCK:   -5.67 KCAL/MOL
REMARK 922        TOTAL FREE ENERGY PREDICTED BY IDOCK:   -7.39 KCAL/MOL
REMARK 923 INTER-LIGAND FREE ENERGY PREDICTED BY IDOCK:   -6.86 KCAL/MOL
REMARK 924 INTRA-LIGAND FREE ENERGY PREDICTED BY IDOCK:   -0.53 KCAL/MOL
REMARK 927      BINDING AFFINITY PREDICTED BY RF-SCORE:    0.00 PKD
ROOT
HETATM    1  C   UNL     1     -10.979   4.802  73.084  1.00  0.00    -0.374 C  
HETATM    2  C   UNL     1     -11.003   6.293  73.279  1.00  0.00    -0.194 C  
HETATM    3  N   UNL     1     -11.934   6.936  72.499  1.00  0.00    -0.499 N  
HETATM    4  O   UNL     1     -10.273   6.869  74.077  1.00  0.00    -0.341 OA 
HETATM    5  H   UNL     1     -12.547   6.382  71.900  1.00  0.00     0.000 HD 
ENDROOT
BRANCH   3   6
HETATM    6  C   UNL     1     -12.069   8.385  72.503  1.00  0.00    -0.337 C  
BRANCH   6   7
HETATM    7  C   UNL     1     -11.994   8.941  71.090  1.00  0.00    -0.293 C  
HETATM    8  C   UNL     1     -11.310  10.284  70.988  1.00  0.00    -0.226 C  
HETATM    9  N   UNL     1     -10.828  10.242  69.640  1.00  0.00    -0.252 N  
HETATM   10  C   UNL     1     -10.660   8.910  69.275  1.00  0.00    -0.207 C  
HETATM   11  O   UNL     1     -10.122   8.449  68.282  1.00  0.00    -0.186 OA 
HETATM   12  O   UNL     1     -11.190   8.100  70.251  1.00  0.00    -0.253 OA 
BRANCH   9  13
HETATM   13  C   UNL     1     -10.553  11.384  68.851  1.00  0.00    -0.202 A  
HETATM   14  C   UNL     1      -9.287  11.594  68.304  1.00  0.00    -0.191 A  
HETATM   15  C   UNL     1      -9.027  12.708  67.504  1.00  0.00    -0.187 A  
HETATM   16  C   UNL     1      -9.998  13.680  67.215  1.00  0.00    -0.240 A  
HETATM   17  F   UNL     1      -7.798  12.798  66.965  1.00  0.00    -0.164 F  
HETATM   18  C   UNL     1     -11.548  12.321  68.553  1.00  0.00    -0.359 A  
HETATM   19  C   UNL     1     -11.272  13.444  67.749  1.00  0.00    -0.306 A  
BRANCH  16  20
HETATM   20  N   UNL     1      -9.736  14.830  66.497  1.00  0.00    -0.264 NA 
HETATM   21  C   UNL     1     -10.109  14.965  65.079  1.00  0.00    -0.265 C  
HETATM   22  C   UNL     1     -11.148  16.078  64.904  1.00  0.00    -0.370 C  
HETATM   23  O   UNL     1     -10.658  17.322  65.438  1.00  0.00    -0.630 OA 
HETATM   24  C   UNL     1     -10.397  17.187  66.845  1.00  0.00    -0.308 C  
HETATM   25  C   UNL     1      -9.352  16.092  67.145  1.00  0.00    -0.215 C  
ENDBRANCH  16  20
ENDBRANCH   9  13
ENDBRANCH   6   7
ENDBRANCH   3   6
TORSDOF 4
ENDMDL
MODEL       51
REMARK 921   NORMALIZED FREE ENERGY PREDICTED BY IDOCK:   -5.64 KCAL/MOL
REMARK 922        TOTAL FREE ENERGY PREDICTED BY IDOCK:   -7.36 KCAL/MOL
REMARK 923 INTER-LIGAND FREE ENERGY PREDICTED BY IDOCK:   -6.80 KCAL/MOL
REMARK 924 INTRA-LIGAND FREE ENERGY PREDICTED BY IDOCK:   -0.56 KCAL/MOL
REMARK 927      BINDING AFFINITY PREDICTED BY RF-SCORE:    0.00 PKD
ROOT
HETATM    1  C   UNL     1     -11.206   6.252  69.784  1.00  0.00    -0.499 C  
HETATM    2  C   UNL     1     -10.910   6.575  68.346  1.00  0.00    -0.289 C  
HETATM    3  N   UNL     1     -10.761   7.920  68.103  1.00  0.00    -0.423 N  
HETATM    4  O   UNL     1     -10.792   5.714  67.483  1.00  0.00    -0.233 OA 
HETATM    5  H   UNL     1     -10.816   8.575  68.884  1.00  0.00     0.000 HD 
ENDROOT
BRANCH   3   6
HETATM    6  C   UNL     1     -10.527   8.436  66.762  1.00  0.00    -0.245 C  
BRANCH   6   7
HETATM    7  C   UNL     1      -9.791   9.765  66.813  1.00  0.00    -0.208 C  
HETATM    8  C   UNL     1     -10.688  10.963  67.017  1.00  0.00    -0.271 C  
HETATM    9  N   UNL     1      -9.780  11.879  67.640  1.00  0.00    -0.181 N  
HETATM   10  C   UNL     1      -8.789  11.146  68.285  1.00  0.00    -0.155 C  
HETATM   11  O   UNL     1      -7.929  11.533  69.058  1.00  0.00    -0.094 OA 
HETATM   12  O   UNL     1      -8.910   9.819  67.944  1.00  0.00    -0.122 OA 
BRANCH   9  13
HETATM   13  C   UNL     1      -9.916  13.288  67.610  1.00  0.00    -0.229 A  
HETATM   14  C   UNL     1     -10.939  13.928  68.308  1.00  0.00    -0.274 A  
HETATM   15  C   UNL     1     -11.054  15.320  68.298  1.00  0.00    -0.300 A  
HETATM   16  C   UNL     1     -10.173  16.149  67.586  1.00  0.00    -0.265 A  
HETATM   17  F   UNL     1     -12.031  15.856  69.050  1.00  0.00    -0.372 F  
HETATM   18  C   UNL     1      -9.005  14.093  66.918  1.00  0.00    -0.247 A  
HETATM   19  C   UNL     1      -9.133  15.495  66.911  1.00  0.00    -0.264 A  
BRANCH  16  20
HETATM   20  N   UNL     1     -10.321  17.520  67.496  1.00  0.00    -0.344 NA 
HETATM   21  C   UNL     1     -10.238  18.391  68.680  1.00  0.00    -0.339 C  
HETATM   22  C   UNL     1      -9.039  19.340  68.560  1.00  0.00    -0.377 C  
HETATM   23  O   UNL     1      -9.117  20.110  67.346  1.00  0.00    -0.337 OA 
HETATM   24  C   UNL     1      -9.096  19.236  66.205  1.00  0.00    -0.329 C  
HETATM   25  C   UNL     1     -10.270  18.234  66.213  1.00  0.00    -0.401 C  
ENDBRANCH  16  20
ENDBRANCH   9  13
ENDBRANCH   6   7
ENDBRANCH   3   6
TORSDOF 4
ENDMDL
MODEL       52
REMARK 921   NORMALIZED FREE ENERGY PREDICTED BY IDOCK:   -5.63 KCAL/MOL
REMARK 922        TOTAL FREE ENERGY PREDICTED BY IDOCK:   -7.35 KCAL/MOL
REMARK 923 INTER-LIGAND FREE ENERGY PREDICTED BY IDOCK:   -6.87 KCAL/MOL
REMARK 924 INTRA-LIGAND FREE ENERGY PREDICTED BY IDOCK:   -0.48 KCAL/MOL
REMARK 927      BINDING AFFINITY PREDICTED BY RF-SCORE:    0.00 PKD
ROOT
HETATM    1  C   UNL     1      -6.586   8.414  63.633  1.00  0.00    -0.076 C  
HETATM    2  C   UNL     1      -8.010   8.741  63.986  1.00  0.00    -0.156 C  
HETATM    3  N   UNL     1      -8.274   8.668  65.334  1.00  0.00    -0.127 N  
HETATM    4  O   UNL     1      -8.844   9.062  63.149  1.00  0.00    -0.163 OA 
HETATM    5  H   UNL     1      -7.513   8.450  65.977  1.00  0.00     0.000 HD 
ENDROOT
BRANCH   3   6
HETATM    6  C   UNL     1      -9.609   8.893  65.867  1.00  0.00    -0.223 C  
BRANCH   6   7
HETATM    7  C   UNL     1      -9.692  10.239  66.570  1.00  0.00    -0.193 C  
HETATM    8  C   UNL     1      -9.615  11.429  65.641  1.00  0.00    -0.231 C  
HETATM    9  N   UNL     1     -10.325  12.413  66.402  1.00  0.00    -0.231 N  
HETATM   10  C   UNL     1     -11.211  11.757  67.252  1.00  0.00    -0.305 C  
HETATM   11  O   UNL     1     -12.102  12.225  67.939  1.00  0.00    -0.466 OA 
HETATM   12  O   UNL     1     -10.965  10.405  67.209  1.00  0.00    -0.288 OA 
BRANCH   9  13
HETATM   13  C   UNL     1     -10.151  13.811  66.265  1.00  0.00    -0.300 A  
HETATM   14  C   UNL     1     -10.855  14.534  65.303  1.00  0.00    -0.377 A  
HETATM   15  C   UNL     1     -10.701  15.917  65.189  1.00  0.00    -0.429 A  
HETATM   16  C   UNL     1      -9.832  16.654  66.009  1.00  0.00    -0.309 A  
HETATM   17  F   UNL     1     -11.466  16.543  64.278  1.00  0.00    -0.548 F  
HETATM   18  C   UNL     1      -9.302  14.526  67.116  1.00  0.00    -0.225 A  
HETATM   19  C   UNL     1      -9.150  15.920  66.989  1.00  0.00    -0.236 A  
BRANCH  16  20
HETATM   20  N   UNL     1      -9.604  18.008  65.855  1.00  0.00    -0.516 NA 
HETATM   21  C   UNL     1     -10.703  18.988  65.847  1.00  0.00    -0.327 C  
HETATM   22  C   UNL     1     -10.577  19.939  67.042  1.00  0.00    -0.405 C  
HETATM   23  O   UNL     1      -9.294  20.591  67.043  1.00  0.00    -0.383 OA 
HETATM   24  C   UNL     1      -8.245  19.616  67.151  1.00  0.00    -0.289 C  
HETATM   25  C   UNL     1      -8.265  18.601  65.989  1.00  0.00    -0.066 C  
ENDBRANCH  16  20
ENDBRANCH   9  13
ENDBRANCH   6   7
ENDBRANCH   3   6
TORSDOF 4
ENDMDL
MODEL       53
REMARK 921   NORMALIZED FREE ENERGY PREDICTED BY IDOCK:   -5.62 KCAL/MOL
REMARK 922        TOTAL FREE ENERGY PREDICTED BY IDOCK:   -7.33 KCAL/MOL
REMARK 923 INTER-LIGAND FREE ENERGY PREDICTED BY IDOCK:   -7.12 KCAL/MOL
REMARK 924 INTRA-LIGAND FREE ENERGY PREDICTED BY IDOCK:   -0.21 KCAL/MOL
REMARK 927      BINDING AFFINITY PREDICTED BY RF-SCORE:    0.00 PKD
ROOT
HETATM    1  C   UNL     1     -10.227  18.126  66.063  1.00  0.00    -0.325 C  
HETATM    2  C   UNL     1     -10.889  17.025  65.281  1.00  0.00    -0.071 C  
HETATM    3  N   UNL     1     -10.945  15.828  65.955  1.00  0.00    -0.246 N  
HETATM    4  O   UNL     1     -11.351  17.194  64.160  1.00  0.00    -1.031 OA 
HETATM    5  H   UNL     1     -10.590  15.779  66.910  1.00  0.00     0.000 HD 
ENDROOT
BRANCH   3   6
HETATM    6  C   UNL     1     -11.496  14.628  65.342  1.00  0.00    -0.352 C  
BRANCH   6   7
HETATM    7  C   UNL     1     -10.713  13.395  65.763  1.00  0.00    -0.274 C  
HETATM    8  C   UNL     1     -11.369  12.588  66.858  1.00  0.00    -0.326 C  
HETATM    9  N   UNL     1     -10.829  11.288  66.597  1.00  0.00    -0.276 N  
HETATM   10  C   UNL     1     -10.493  11.212  65.249  1.00  0.00    -0.263 C  
HETATM   11  O   UNL     1     -10.158  10.240  64.595  1.00  0.00    -0.345 OA 
HETATM   12  O   UNL     1     -10.612  12.459  64.681  1.00  0.00    -0.281 OA 
BRANCH   9  13
HETATM   13  C   UNL     1     -10.700  10.264  67.567  1.00  0.00    -0.294 A  
HETATM   14  C   UNL     1     -11.037  10.489  68.901  1.00  0.00    -0.312 A  
HETATM   15  C   UNL     1     -10.934   9.469  69.849  1.00  0.00    -0.238 A  
HETATM   16  C   UNL     1     -10.480   8.180  69.532  1.00  0.00    -0.227 A  
HETATM   17  F   UNL     1     -11.340   9.755  71.099  1.00  0.00    -0.355 F  
HETATM   18  C   UNL     1     -10.275   8.978  67.217  1.00  0.00    -0.323 A  
HETATM   19  C   UNL     1     -10.171   7.958  68.182  1.00  0.00    -0.248 A  
BRANCH  16  20
HETATM   20  N   UNL     1     -10.293   7.184  70.471  1.00  0.00    -0.200 NA 
HETATM   21  C   UNL     1      -9.165   7.208  71.417  1.00  0.00    -0.150 C  
HETATM   22  C   UNL     1      -9.679   7.331  72.856  1.00  0.00    -0.169 C  
HETATM   23  O   UNL     1     -10.598   6.266  73.163  1.00  0.00    -0.223 OA 
HETATM   24  C   UNL     1     -11.736   6.329  72.287  1.00  0.00    -0.298 C  
HETATM   25  C   UNL     1     -11.341   6.207  70.801  1.00  0.00    -0.295 C  
ENDBRANCH  16  20
ENDBRANCH   9  13
ENDBRANCH   6   7
ENDBRANCH   3   6
TORSDOF 4
ENDMDL
MODEL       54
REMARK 921   NORMALIZED FREE ENERGY PREDICTED BY IDOCK:   -5.60 KCAL/MOL
REMARK 922        TOTAL FREE ENERGY PREDICTED BY IDOCK:   -7.31 KCAL/MOL
REMARK 923 INTER-LIGAND FREE ENERGY PREDICTED BY IDOCK:   -6.67 KCAL/MOL
REMARK 924 INTRA-LIGAND FREE ENERGY PREDICTED BY IDOCK:   -0.64 KCAL/MOL
REMARK 927      BINDING AFFINITY PREDICTED BY RF-SCORE:    0.00 PKD
ROOT
HETATM    1  C   UNL     1     -10.755   3.404  63.487  1.00  0.00    -0.252 C  
HETATM    2  C   UNL     1      -9.967   3.663  64.741  1.00  0.00    -0.160 C  
HETATM    3  N   UNL     1     -10.672   4.347  65.703  1.00  0.00    -0.578 N  
HETATM    4  O   UNL     1      -8.814   3.278  64.892  1.00  0.00    -0.113 OA 
HETATM    5  H   UNL     1     -11.648   4.584  65.528  1.00  0.00     0.000 HD 
ENDROOT
BRANCH   3   6
HETATM    6  C   UNL     1     -10.063   4.742  66.965  1.00  0.00    -0.189 C  
BRANCH   6   7
HETATM    7  C   UNL     1      -9.562   6.176  66.899  1.00  0.00    -0.142 C  
HETATM    8  C   UNL     1     -10.659   7.213  66.839  1.00  0.00    -0.301 C  
HETATM    9  N   UNL     1      -9.994   8.345  67.413  1.00  0.00    -0.193 N  
HETATM   10  C   UNL     1      -8.984   7.883  68.252  1.00  0.00    -0.132 C  
HETATM   11  O   UNL     1      -8.300   8.508  69.044  1.00  0.00    -0.115 OA 
HETATM   12  O   UNL     1      -8.847   6.524  68.093  1.00  0.00    -0.117 OA 
BRANCH   9  13
HETATM   13  C   UNL     1     -10.350   9.693  67.169  1.00  0.00    -0.254 A  
HETATM   14  C   UNL     1     -11.100  10.419  68.094  1.00  0.00    -0.344 A  
HETATM   15  C   UNL     1     -11.426  11.756  67.861  1.00  0.00    -0.317 A  
HETATM   16  C   UNL     1     -11.042  12.441  66.697  1.00  0.00    -0.289 A  
HETATM   17  F   UNL     1     -12.096  12.399  68.834  1.00  0.00    -0.330 F  
HETATM   18  C   UNL     1      -9.928  10.360  66.014  1.00  0.00    -0.301 A  
HETATM   19  C   UNL     1     -10.267  11.708  65.788  1.00  0.00    -0.281 A  
BRANCH  16  20
HETATM   20  N   UNL     1     -11.427  13.737  66.412  1.00  0.00    -0.325 NA 
HETATM   21  C   UNL     1     -10.619  14.897  66.821  1.00  0.00    -0.305 C  
HETATM   22  C   UNL     1     -10.109  15.652  65.588  1.00  0.00    -0.365 C  
HETATM   23  O   UNL     1     -11.205  16.048  64.743  1.00  0.00    -0.431 OA 
HETATM   24  C   UNL     1     -11.916  14.888  64.280  1.00  0.00    -0.338 C  
HETATM   25  C   UNL     1     -12.486  14.047  65.441  1.00  0.00    -0.498 C  
ENDBRANCH  16  20
ENDBRANCH   9  13
ENDBRANCH   6   7
ENDBRANCH   3   6
TORSDOF 4
ENDMDL
MODEL       55
REMARK 921   NORMALIZED FREE ENERGY PREDICTED BY IDOCK:   -5.52 KCAL/MOL
REMARK 922        TOTAL FREE ENERGY PREDICTED BY IDOCK:   -7.21 KCAL/MOL
REMARK 923 INTER-LIGAND FREE ENERGY PREDICTED BY IDOCK:   -6.94 KCAL/MOL
REMARK 924 INTRA-LIGAND FREE ENERGY PREDICTED BY IDOCK:   -0.27 KCAL/MOL
REMARK 927      BINDING AFFINITY PREDICTED BY RF-SCORE:    0.00 PKD
ROOT
HETATM    1  C   UNL     1     -10.286   2.801  72.750  1.00  0.00    -0.236 C  
HETATM    2  C   UNL     1     -10.396   4.288  72.943  1.00  0.00    -0.175 C  
HETATM    3  N   UNL     1     -10.095   5.013  71.814  1.00  0.00    -0.194 N  
HETATM    4  O   UNL     1     -10.743   4.795  74.002  1.00  0.00    -0.274 OA 
HETATM    5  H   UNL     1      -9.870   4.518  70.952  1.00  0.00     0.000 HD 
ENDROOT
BRANCH   3   6
HETATM    6  C   UNL     1     -10.088   6.469  71.818  1.00  0.00    -0.184 C  
BRANCH   6   7
HETATM    7  C   UNL     1     -10.756   7.017  70.567  1.00  0.00    -0.238 C  
HETATM    8  C   UNL     1     -10.056   8.212  69.964  1.00  0.00    -0.196 C  
HETATM    9  N   UNL     1     -10.455   8.096  68.593  1.00  0.00    -0.195 N  
HETATM   10  C   UNL     1     -10.740   6.760  68.329  1.00  0.00    -0.235 C  
HETATM   11  O   UNL     1     -10.955   6.219  67.258  1.00  0.00    -0.338 OA 
HETATM   12  O   UNL     1     -10.729   6.051  69.507  1.00  0.00    -0.264 OA 
BRANCH   9  13
HETATM   13  C   UNL     1     -10.509   9.177  67.680  1.00  0.00    -0.261 A  
HETATM   14  C   UNL     1      -9.920   9.086  66.420  1.00  0.00    -0.370 A  
HETATM   15  C   UNL     1      -9.999  10.144  65.513  1.00  0.00    -0.293 A  
HETATM   16  C   UNL     1     -10.652  11.351  65.809  1.00  0.00    -0.260 A  
HETATM   17  F   UNL     1      -9.458   9.947  64.298  1.00  0.00    -0.295 F  
HETATM   18  C   UNL     1     -11.194  10.357  67.989  1.00  0.00    -0.340 A  
HETATM   19  C   UNL     1     -11.263  11.420  67.068  1.00  0.00    -0.350 A  
BRANCH  16  20
HETATM   20  N   UNL     1     -10.668  12.438  64.956  1.00  0.00    -0.284 NA 
HETATM   21  C   UNL     1     -11.150  12.334  63.569  1.00  0.00    -0.464 C  
HETATM   22  C   UNL     1     -12.398  13.203  63.372  1.00  0.00    -0.362 C  
HETATM   23  O   UNL     1     -12.129  14.570  63.731  1.00  0.00    -0.437 OA 
HETATM   24  C   UNL     1     -11.756  14.652  65.117  1.00  0.00    -0.364 C  
HETATM   25  C   UNL     1     -10.499  13.817  65.437  1.00  0.00    -0.331 C  
ENDBRANCH  16  20
ENDBRANCH   9  13
ENDBRANCH   6   7
ENDBRANCH   3   6
TORSDOF 4
ENDMDL
MODEL       56
REMARK 921   NORMALIZED FREE ENERGY PREDICTED BY IDOCK:   -5.52 KCAL/MOL
REMARK 922        TOTAL FREE ENERGY PREDICTED BY IDOCK:   -7.20 KCAL/MOL
REMARK 923 INTER-LIGAND FREE ENERGY PREDICTED BY IDOCK:   -6.45 KCAL/MOL
REMARK 924 INTRA-LIGAND FREE ENERGY PREDICTED BY IDOCK:   -0.75 KCAL/MOL
REMARK 927      BINDING AFFINITY PREDICTED BY RF-SCORE:    0.00 PKD
ROOT
HETATM    1  C   UNL     1     -11.389   5.208  73.117  1.00  0.00    -0.385 C  
HETATM    2  C   UNL     1     -10.319   5.049  72.073  1.00  0.00    -0.213 C  
HETATM    3  N   UNL     1     -10.739   5.362  70.802  1.00  0.00    -0.224 N  
HETATM    4  O   UNL     1      -9.177   4.695  72.342  1.00  0.00    -0.124 OA 
HETATM    5  H   UNL     1     -11.689   5.705  70.664  1.00  0.00     0.000 HD 
ENDROOT
BRANCH   3   6
HETATM    6  C   UNL     1      -9.864   5.215  69.648  1.00  0.00    -0.216 C  
BRANCH   6   7
HETATM    7  C   UNL     1      -9.480   6.574  69.083  1.00  0.00    -0.135 C  
HETATM    8  C   UNL     1     -10.651   7.494  68.833  1.00  0.00    -0.169 C  
HETATM    9  N   UNL     1     -10.019   8.775  68.947  1.00  0.00    -0.186 N  
HETATM   10  C   UNL     1      -8.900   8.642  69.763  1.00  0.00    -0.137 C  
HETATM   11  O   UNL     1      -8.190   9.511  70.238  1.00  0.00    -0.159 OA 
HETATM   12  O   UNL     1      -8.679   7.309  70.019  1.00  0.00    -0.139 OA 
BRANCH   9  13
HETATM   13  C   UNL     1     -10.496   9.961  68.340  1.00  0.00    -0.208 A  
HETATM   14  C   UNL     1     -10.175  10.275  67.020  1.00  0.00    -0.282 A  
HETATM   15  C   UNL     1     -10.670  11.433  66.417  1.00  0.00    -0.275 A  
HETATM   16  C   UNL     1     -11.496  12.347  67.090  1.00  0.00    -0.357 A  
HETATM   17  F   UNL     1     -10.362  11.625  65.122  1.00  0.00    -0.268 F  
HETATM   18  C   UNL     1     -11.344  10.839  69.024  1.00  0.00    -0.349 A  
HETATM   19  C   UNL     1     -11.834  12.006  68.407  1.00  0.00    -0.360 A  
BRANCH  16  20
HETATM   20  N   UNL     1     -11.926  13.538  66.537  1.00  0.00    -0.400 NA 
HETATM   21  C   UNL     1     -11.252  14.816  66.819  1.00  0.00    -0.344 C  
HETATM   22  C   UNL     1     -10.642  15.392  65.536  1.00  0.00    -0.383 C  
HETATM   23  O   UNL     1     -11.646  15.543  64.516  1.00  0.00    -0.399 OA 
HETATM   24  C   UNL     1     -12.216  14.263  64.191  1.00  0.00    -0.378 C  
HETATM   25  C   UNL     1     -12.872  13.586  65.413  1.00  0.00    -0.363 C  
ENDBRANCH  16  20
ENDBRANCH   9  13
ENDBRANCH   6   7
ENDBRANCH   3   6
TORSDOF 4
ENDMDL
MODEL       57
REMARK 921   NORMALIZED FREE ENERGY PREDICTED BY IDOCK:   -5.51 KCAL/MOL
REMARK 922        TOTAL FREE ENERGY PREDICTED BY IDOCK:   -7.19 KCAL/MOL
REMARK 923 INTER-LIGAND FREE ENERGY PREDICTED BY IDOCK:   -6.56 KCAL/MOL
REMARK 924 INTRA-LIGAND FREE ENERGY PREDICTED BY IDOCK:   -0.63 KCAL/MOL
REMARK 927      BINDING AFFINITY PREDICTED BY RF-SCORE:    0.00 PKD
ROOT
HETATM    1  C   UNL     1     -12.268  14.691  64.322  1.00  0.00    -0.432 C  
HETATM    2  C   UNL     1     -12.174  13.242  64.713  1.00  0.00    -0.417 C  
HETATM    3  N   UNL     1     -10.903  12.847  65.060  1.00  0.00    -0.289 N  
HETATM    4  O   UNL     1     -13.145  12.497  64.738  1.00  0.00    -0.853 OA 
HETATM    5  H   UNL     1     -10.154  13.539  65.071  1.00  0.00     0.000 HD 
ENDROOT
BRANCH   3   6
HETATM    6  C   UNL     1     -10.599  11.468  65.413  1.00  0.00    -0.282 C  
BRANCH   6   7
HETATM    7  C   UNL     1     -10.475  11.308  66.920  1.00  0.00    -0.245 C  
HETATM    8  C   UNL     1     -10.713   9.901  67.416  1.00  0.00    -0.260 C  
HETATM    9  N   UNL     1      -9.946   9.908  68.626  1.00  0.00    -0.159 N  
HETATM   10  C   UNL     1      -8.936  10.857  68.503  1.00  0.00    -0.157 C  
HETATM   11  O   UNL     1      -7.981  11.060  69.233  1.00  0.00    -0.121 OA 
HETATM   12  O   UNL     1      -9.137  11.588  67.355  1.00  0.00    -0.162 OA 
BRANCH   9  13
HETATM   13  C   UNL     1     -10.186   9.056  69.731  1.00  0.00    -0.205 A  
HETATM   14  C   UNL     1     -11.110   9.398  70.717  1.00  0.00    -0.365 A  
HETATM   15  C   UNL     1     -11.363   8.543  71.791  1.00  0.00    -0.307 A  
HETATM   16  C   UNL     1     -10.707   7.312  71.954  1.00  0.00    -0.215 A  
HETATM   17  F   UNL     1     -12.316   8.922  72.661  1.00  0.00    -0.431 F  
HETATM   18  C   UNL     1      -9.541   7.821  69.852  1.00  0.00    -0.164 A  
HETATM   19  C   UNL     1      -9.801   6.968  70.942  1.00  0.00    -0.190 A  
BRANCH  16  20
HETATM   20  N   UNL     1     -10.883   6.493  73.052  1.00  0.00    -0.258 NA 
HETATM   21  C   UNL     1     -11.656   5.242  72.975  1.00  0.00    -0.217 C  
HETATM   22  C   UNL     1     -10.749   4.038  73.254  1.00  0.00    -0.201 C  
HETATM   23  O   UNL     1     -10.098   4.174  74.530  1.00  0.00    -0.158 OA 
HETATM   24  C   UNL     1      -9.273   5.351  74.541  1.00  0.00    -0.124 C  
HETATM   25  C   UNL     1     -10.084   6.637  74.277  1.00  0.00    -0.351 C  
ENDBRANCH  16  20
ENDBRANCH   9  13
ENDBRANCH   6   7
ENDBRANCH   3   6
TORSDOF 4
ENDMDL
MODEL       58
REMARK 921   NORMALIZED FREE ENERGY PREDICTED BY IDOCK:   -5.50 KCAL/MOL
REMARK 922        TOTAL FREE ENERGY PREDICTED BY IDOCK:   -7.18 KCAL/MOL
REMARK 923 INTER-LIGAND FREE ENERGY PREDICTED BY IDOCK:   -6.40 KCAL/MOL
REMARK 924 INTRA-LIGAND FREE ENERGY PREDICTED BY IDOCK:   -0.78 KCAL/MOL
REMARK 927      BINDING AFFINITY PREDICTED BY RF-SCORE:    0.00 PKD
ROOT
HETATM    1  C   UNL     1     -12.413  11.993  63.453  1.00  0.00    -0.625 C  
HETATM    2  C   UNL     1     -11.801  12.947  64.442  1.00  0.00    -0.383 C  
HETATM    3  N   UNL     1     -12.416  12.934  65.672  1.00  0.00    -0.426 N  
HETATM    4  O   UNL     1     -10.833  13.648  64.176  1.00  0.00    -0.340 OA 
HETATM    5  H   UNL     1     -13.181  12.281  65.838  1.00  0.00     0.000 HD 
ENDROOT
BRANCH   3   6
HETATM    6  C   UNL     1     -12.004  13.829  66.743  1.00  0.00    -0.426 C  
BRANCH   6   7
HETATM    7  C   UNL     1     -11.295  13.062  67.848  1.00  0.00    -0.288 C  
HETATM    8  C   UNL     1     -11.626  11.589  67.890  1.00  0.00    -0.282 C  
HETATM    9  N   UNL     1     -10.442  11.062  68.501  1.00  0.00    -0.180 N  
HETATM   10  C   UNL     1      -9.387  11.929  68.234  1.00  0.00    -0.193 C  
HETATM   11  O   UNL     1      -8.195  11.769  68.432  1.00  0.00    -0.146 OA 
HETATM   12  O   UNL     1      -9.875  13.074  67.649  1.00  0.00    -0.204 OA 
BRANCH   9  13
HETATM   13  C   UNL     1     -10.386   9.846  69.223  1.00  0.00    -0.219 A  
HETATM   14  C   UNL     1     -10.383   9.835  70.617  1.00  0.00    -0.330 A  
HETATM   15  C   UNL     1     -10.355   8.632  71.325  1.00  0.00    -0.239 A  
HETATM   16  C   UNL     1     -10.313   7.379  70.693  1.00  0.00    -0.212 A  
HETATM   17  F   UNL     1     -10.420   8.712  72.666  1.00  0.00    -0.383 F  
HETATM   18  C   UNL     1     -10.377   8.610  68.568  1.00  0.00    -0.228 A  
HETATM   19  C   UNL     1     -10.344   7.403  69.292  1.00  0.00    -0.204 A  
BRANCH  16  20
HETATM   20  N   UNL     1     -10.200   6.184  71.376  1.00  0.00    -0.201 NA 
HETATM   21  C   UNL     1      -8.903   5.513  71.565  1.00  0.00    -0.136 C  
HETATM   22  C   UNL     1      -8.547   5.451  73.054  1.00  0.00    -0.122 C  
HETATM   23  O   UNL     1      -9.588   4.796  73.801  1.00  0.00    -0.126 OA 
HETATM   24  C   UNL     1     -10.819   5.528  73.679  1.00  0.00    -0.249 C  
HETATM   25  C   UNL     1     -11.285   5.650  72.213  1.00  0.00    -0.259 C  
ENDBRANCH  16  20
ENDBRANCH   9  13
ENDBRANCH   6   7
ENDBRANCH   3   6
TORSDOF 4
ENDMDL
MODEL       59
REMARK 921   NORMALIZED FREE ENERGY PREDICTED BY IDOCK:   -5.46 KCAL/MOL
REMARK 922        TOTAL FREE ENERGY PREDICTED BY IDOCK:   -7.13 KCAL/MOL
REMARK 923 INTER-LIGAND FREE ENERGY PREDICTED BY IDOCK:   -6.87 KCAL/MOL
REMARK 924 INTRA-LIGAND FREE ENERGY PREDICTED BY IDOCK:   -0.27 KCAL/MOL
REMARK 927      BINDING AFFINITY PREDICTED BY RF-SCORE:    0.00 PKD
ROOT
HETATM    1  C   UNL     1     -10.838  12.194  63.417  1.00  0.00    -0.474 C  
HETATM    2  C   UNL     1     -11.748  12.845  64.422  1.00  0.00    -0.372 C  
HETATM    3  N   UNL     1     -11.083  13.386  65.497  1.00  0.00    -0.281 N  
HETATM    4  O   UNL     1     -12.963  12.901  64.278  1.00  0.00    -0.686 OA 
HETATM    5  H   UNL     1     -10.064  13.351  65.519  1.00  0.00     0.000 HD 
ENDROOT
BRANCH   3   6
HETATM    6  C   UNL     1     -11.795  14.009  66.604  1.00  0.00    -0.419 C  
BRANCH   6   7
HETATM    7  C   UNL     1     -12.155  12.979  67.664  1.00  0.00    -0.209 C  
HETATM    8  C   UNL     1     -11.077  11.952  67.920  1.00  0.00    -0.242 C  
HETATM    9  N   UNL     1     -11.370  11.584  69.273  1.00  0.00    -0.264 N  
HETATM   10  C   UNL     1     -12.019  12.650  69.888  1.00  0.00    -0.295 C  
HETATM   11  O   UNL     1     -12.291  12.805  71.067  1.00  0.00    -0.356 OA 
HETATM   12  O   UNL     1     -12.325  13.602  68.945  1.00  0.00    -0.276 OA 
BRANCH   9  13
HETATM   13  C   UNL     1     -11.017  10.345  69.861  1.00  0.00    -0.305 A  
HETATM   14  C   UNL     1     -10.181   9.447  69.201  1.00  0.00    -0.209 A  
HETATM   15  C   UNL     1      -9.813   8.238  69.796  1.00  0.00    -0.187 A  
HETATM   16  C   UNL     1     -10.265   7.849  71.067  1.00  0.00    -0.197 A  
HETATM   17  F   UNL     1      -8.952   7.461  69.116  1.00  0.00    -0.135 F  
HETATM   18  C   UNL     1     -11.457   9.996  71.142  1.00  0.00    -0.432 A  
HETATM   19  C   UNL     1     -11.083   8.772  71.731  1.00  0.00    -0.417 A  
BRANCH  16  20
HETATM   20  N   UNL     1      -9.979   6.622  71.634  1.00  0.00    -0.174 NA 
HETATM   21  C   UNL     1      -8.682   6.341  72.272  1.00  0.00    -0.132 C  
HETATM   22  C   UNL     1      -8.872   6.066  73.768  1.00  0.00    -0.123 C  
HETATM   23  O   UNL     1      -9.802   4.987  73.975  1.00  0.00    -0.146 OA 
HETATM   24  C   UNL     1     -11.086   5.331  73.429  1.00  0.00    -0.303 C  
HETATM   25  C   UNL     1     -11.022   5.624  71.916  1.00  0.00    -0.235 C  
ENDBRANCH  16  20
ENDBRANCH   9  13
ENDBRANCH   6   7
ENDBRANCH   3   6
TORSDOF 4
ENDMDL
MODEL       60
REMARK 921   NORMALIZED FREE ENERGY PREDICTED BY IDOCK:   -5.44 KCAL/MOL
REMARK 922        TOTAL FREE ENERGY PREDICTED BY IDOCK:   -7.11 KCAL/MOL
REMARK 923 INTER-LIGAND FREE ENERGY PREDICTED BY IDOCK:   -6.47 KCAL/MOL
REMARK 924 INTRA-LIGAND FREE ENERGY PREDICTED BY IDOCK:   -0.65 KCAL/MOL
REMARK 927      BINDING AFFINITY PREDICTED BY RF-SCORE:    0.00 PKD
ROOT
HETATM    1  C   UNL     1     -11.934  15.462  69.671  1.00  0.00    -0.366 C  
HETATM    2  C   UNL     1     -11.728  14.301  68.738  1.00  0.00    -0.343 C  
HETATM    3  N   UNL     1     -11.210  13.186  69.353  1.00  0.00    -0.427 N  
HETATM    4  O   UNL     1     -12.019  14.346  67.549  1.00  0.00    -0.384 OA 
HETATM    5  H   UNL     1     -11.048  13.204  70.359  1.00  0.00     0.000 HD 
ENDROOT
BRANCH   3   6
HETATM    6  C   UNL     1     -10.887  11.979  68.605  1.00  0.00    -0.237 C  
BRANCH   6   7
HETATM    7  C   UNL     1     -11.453  10.747  69.294  1.00  0.00    -0.298 C  
HETATM    8  C   UNL     1     -10.417   9.896  69.991  1.00  0.00    -0.284 C  
HETATM    9  N   UNL     1     -11.215   9.272  71.003  1.00  0.00    -0.292 N  
HETATM   10  C   UNL     1     -12.302  10.096  71.277  1.00  0.00    -0.400 C  
HETATM   11  O   UNL     1     -13.121  10.011  72.176  1.00  0.00    -0.433 OA 
HETATM   12  O   UNL     1     -12.341  11.118  70.358  1.00  0.00    -0.320 OA 
BRANCH   9  13
HETATM   13  C   UNL     1     -10.904   8.037  71.621  1.00  0.00    -0.237 A  
HETATM   14  C   UNL     1     -10.776   6.868  70.871  1.00  0.00    -0.258 A  
HETATM   15  C   UNL     1     -10.442   5.657  71.480  1.00  0.00    -0.239 A  
HETATM   16  C   UNL     1     -10.232   5.535  72.863  1.00  0.00    -0.186 A  
HETATM   17  F   UNL     1     -10.276   4.594  70.674  1.00  0.00    -0.284 F  
HETATM   18  C   UNL     1     -10.669   7.949  72.997  1.00  0.00    -0.408 A  
HETATM   19  C   UNL     1     -10.337   6.721  73.602  1.00  0.00    -0.372 A  
BRANCH  16  20
HETATM   20  N   UNL     1      -9.984   4.331  73.493  1.00  0.00    -0.128 NA 
HETATM   21  C   UNL     1     -11.060   3.372  73.793  1.00  0.00    -0.196 C  
HETATM   22  C   UNL     1     -10.844   2.068  73.015  1.00  0.00    -0.146 C  
HETATM   23  O   UNL     1      -9.550   1.510  73.304  1.00  0.00    -0.071 OA 
HETATM   24  C   UNL     1      -8.517   2.428  72.910  1.00  0.00    -0.067 C  
HETATM   25  C   UNL     1      -8.627   3.784  73.638  1.00  0.00    -0.090 C  
ENDBRANCH  16  20
ENDBRANCH   9  13
ENDBRANCH   6   7
ENDBRANCH   3   6
TORSDOF 4
ENDMDL
MODEL       61
REMARK 921   NORMALIZED FREE ENERGY PREDICTED BY IDOCK:   -5.43 KCAL/MOL
REMARK 922        TOTAL FREE ENERGY PREDICTED BY IDOCK:   -7.10 KCAL/MOL
REMARK 923 INTER-LIGAND FREE ENERGY PREDICTED BY IDOCK:   -6.39 KCAL/MOL
REMARK 924 INTRA-LIGAND FREE ENERGY PREDICTED BY IDOCK:   -0.71 KCAL/MOL
REMARK 927      BINDING AFFINITY PREDICTED BY RF-SCORE:    0.00 PKD
ROOT
HETATM    1  C   UNL     1     -14.178   7.512  71.593  1.00  0.00    -0.592 C  
HETATM    2  C   UNL     1     -12.724   7.158  71.443  1.00  0.00    -0.391 C  
HETATM    3  N   UNL     1     -12.404   6.661  70.201  1.00  0.00    -0.454 N  
HETATM    4  O   UNL     1     -11.905   7.321  72.339  1.00  0.00    -0.272 OA 
HETATM    5  H   UNL     1     -13.129   6.608  69.486  1.00  0.00     0.000 HD 
ENDROOT
BRANCH   3   6
HETATM    6  C   UNL     1     -11.058   6.208  69.881  1.00  0.00    -0.410 C  
BRANCH   6   7
HETATM    7  C   UNL     1     -10.271   7.302  69.176  1.00  0.00    -0.197 C  
HETATM    8  C   UNL     1     -11.130   8.368  68.536  1.00  0.00     0.373 C  
HETATM    9  N   UNL     1     -10.230   9.483  68.549  1.00  0.00    -0.192 N  
HETATM   10  C   UNL     1      -9.320   9.303  69.586  1.00  0.00    -0.179 C  
HETATM   11  O   UNL     1      -8.502  10.088  70.034  1.00  0.00    -0.187 OA 
HETATM   12  O   UNL     1      -9.472   8.041  70.111  1.00  0.00    -0.160 OA 
BRANCH   9  13
HETATM   13  C   UNL     1     -10.304  10.582  67.660  1.00  0.00    -0.217 A  
HETATM   14  C   UNL     1      -9.939  10.451  66.321  1.00  0.00    -0.283 A  
HETATM   15  C   UNL     1     -10.038  11.531  65.441  1.00  0.00    -0.260 A  
HETATM   16  C   UNL     1     -10.490  12.798  65.841  1.00  0.00    -0.277 A  
HETATM   17  F   UNL     1      -9.726  11.299  64.154  1.00  0.00    -0.234 F  
HETATM   18  C   UNL     1     -10.787  11.827  68.078  1.00  0.00    -0.256 A  
HETATM   19  C   UNL     1     -10.879  12.910  67.183  1.00  0.00    -0.278 A  
BRANCH  16  20
HETATM   20  N   UNL     1     -10.515  13.898  65.005  1.00  0.00    -0.388 NA 
HETATM   21  C   UNL     1     -11.549  14.066  63.971  1.00  0.00    -0.177 C  
HETATM   22  C   UNL     1     -12.404  15.303  64.268  1.00  0.00    -0.121 C  
HETATM   23  O   UNL     1     -11.581  16.478  64.382  1.00  0.00    -0.778 OA 
HETATM   24  C   UNL     1     -10.648  16.324  65.465  1.00  0.00    -0.353 C  
HETATM   25  C   UNL     1      -9.721  15.106  65.270  1.00  0.00    -0.112 C  
ENDBRANCH  16  20
ENDBRANCH   9  13
ENDBRANCH   6   7
ENDBRANCH   3   6
TORSDOF 4
ENDMDL
MODEL       62
REMARK 921   NORMALIZED FREE ENERGY PREDICTED BY IDOCK:   -5.41 KCAL/MOL
REMARK 922        TOTAL FREE ENERGY PREDICTED BY IDOCK:   -7.07 KCAL/MOL
REMARK 923 INTER-LIGAND FREE ENERGY PREDICTED BY IDOCK:   -6.41 KCAL/MOL
REMARK 924 INTRA-LIGAND FREE ENERGY PREDICTED BY IDOCK:   -0.66 KCAL/MOL
REMARK 927      BINDING AFFINITY PREDICTED BY RF-SCORE:    0.00 PKD
ROOT
HETATM    1  C   UNL     1     -11.053   3.345  73.348  1.00  0.00    -0.288 C  
HETATM    2  C   UNL     1     -10.848   4.821  73.554  1.00  0.00    -0.300 C  
HETATM    3  N   UNL     1     -11.775   5.600  72.903  1.00  0.00    -0.530 N  
HETATM    4  O   UNL     1      -9.953   5.275  74.255  1.00  0.00    -0.176 OA 
HETATM    5  H   UNL     1     -12.528   5.148  72.384  1.00  0.00     0.000 HD 
ENDROOT
BRANCH   3   6
HETATM    6  C   UNL     1     -11.710   7.054  72.934  1.00  0.00     0.065 C  
BRANCH   6   7
HETATM    7  C   UNL     1     -11.002   7.591  71.700  1.00  0.00    -0.232 C  
HETATM    8  C   UNL     1     -11.745   8.701  70.993  1.00  0.00    -0.278 C  
HETATM    9  N   UNL     1     -10.661   9.393  70.362  1.00  0.00    -0.242 N  
HETATM   10  C   UNL     1      -9.503   9.161  71.096  1.00  0.00    -0.261 C  
HETATM   11  O   UNL     1      -8.410   9.691  70.992  1.00  0.00    -0.253 OA 
HETATM   12  O   UNL     1      -9.754   8.204  72.052  1.00  0.00    -0.186 OA 
BRANCH   9  13
HETATM   13  C   UNL     1     -10.790  10.194  69.201  1.00  0.00    -0.226 A  
HETATM   14  C   UNL     1     -11.349  11.470  69.265  1.00  0.00    -0.353 A  
HETATM   15  C   UNL     1     -11.449  12.267  68.123  1.00  0.00    -0.316 A  
HETATM   16  C   UNL     1     -11.016  11.840  66.858  1.00  0.00    -0.285 A  
HETATM   17  F   UNL     1     -11.942  13.507  68.287  1.00  0.00    -0.351 F  
HETATM   18  C   UNL     1     -10.321   9.756  67.958  1.00  0.00    -0.250 A  
HETATM   19  C   UNL     1     -10.432  10.567  66.812  1.00  0.00    -0.302 A  
BRANCH  16  20
HETATM   20  N   UNL     1     -11.184  12.581  65.704  1.00  0.00    -0.305 NA 
HETATM   21  C   UNL     1     -10.039  13.090  64.931  1.00  0.00    -0.213 C  
HETATM   22  C   UNL     1     -10.013  12.454  63.537  1.00  0.00    -0.107 C  
HETATM   23  O   UNL     1     -11.255  12.685  62.847  1.00  0.00     0.013 OA 
HETATM   24  C   UNL     1     -12.342  12.091  63.576  1.00  0.00    -0.551 C  
HETATM   25  C   UNL     1     -12.473  12.663  65.002  1.00  0.00    -0.487 C  
ENDBRANCH  16  20
ENDBRANCH   9  13
ENDBRANCH   6   7
ENDBRANCH   3   6
TORSDOF 4
ENDMDL
MODEL       63
REMARK 921   NORMALIZED FREE ENERGY PREDICTED BY IDOCK:   -5.38 KCAL/MOL
REMARK 922        TOTAL FREE ENERGY PREDICTED BY IDOCK:   -7.04 KCAL/MOL
REMARK 923 INTER-LIGAND FREE ENERGY PREDICTED BY IDOCK:   -6.44 KCAL/MOL
REMARK 924 INTRA-LIGAND FREE ENERGY PREDICTED BY IDOCK:   -0.60 KCAL/MOL
REMARK 927      BINDING AFFINITY PREDICTED BY RF-SCORE:    0.00 PKD
ROOT
HETATM    1  C   UNL     1      -6.476   5.024  72.972  1.00  0.00    -0.059 C  
HETATM    2  C   UNL     1      -7.788   4.901  73.697  1.00  0.00    -0.095 C  
HETATM    3  N   UNL     1      -8.555   6.041  73.644  1.00  0.00    -0.125 N  
HETATM    4  O   UNL     1      -8.141   3.872  74.260  1.00  0.00    -0.088 OA 
HETATM    5  H   UNL     1      -8.220   6.840  73.106  1.00  0.00     0.000 HD 
ENDROOT
BRANCH   3   6
HETATM    6  C   UNL     1      -9.833   6.137  74.335  1.00  0.00    -0.284 C  
BRANCH   6   7
HETATM    7  C   UNL     1     -10.807   7.005  73.554  1.00  0.00    -0.254 C  
HETATM    8  C   UNL     1     -10.154   8.122  72.774  1.00  0.00    -0.297 C  
HETATM    9  N   UNL     1     -11.109   8.315  71.725  1.00  0.00    -0.261 N  
HETATM   10  C   UNL     1     -11.803   7.124  71.536  1.00  0.00    -0.313 C  
HETATM   11  O   UNL     1     -12.577   6.820  70.645  1.00  0.00    -0.268 OA 
HETATM   12  O   UNL     1     -11.472   6.241  72.538  1.00  0.00    -0.276 OA 
BRANCH   9  13
HETATM   13  C   UNL     1     -11.273   9.522  71.002  1.00  0.00    -0.362 A  
HETATM   14  C   UNL     1     -12.178  10.495  71.422  1.00  0.00    -0.429 A  
HETATM   15  C   UNL     1     -12.318  11.695  70.721  1.00  0.00    -0.358 A  
HETATM   16  C   UNL     1     -11.581  11.989  69.563  1.00  0.00    -0.321 A  
HETATM   17  F   UNL     1     -13.166  12.605  71.232  1.00  0.00    -0.381 F  
HETATM   18  C   UNL     1     -10.503   9.802  69.868  1.00  0.00    -0.298 A  
HETATM   19  C   UNL     1     -10.655  11.013  69.167  1.00  0.00    -0.253 A  
BRANCH  16  20
HETATM   20  N   UNL     1     -11.765  13.133  68.811  1.00  0.00    -0.304 NA 
HETATM   21  C   UNL     1     -11.473  14.473  69.346  1.00  0.00    -0.285 C  
HETATM   22  C   UNL     1     -10.335  15.127  68.555  1.00  0.00    -0.230 C  
HETATM   23  O   UNL     1     -10.654  15.181  67.152  1.00  0.00    -0.282 OA 
HETATM   24  C   UNL     1     -10.836  13.852  66.636  1.00  0.00    -0.289 C  
HETATM   25  C   UNL     1     -11.970  13.093  67.356  1.00  0.00    -0.327 C  
ENDBRANCH  16  20
ENDBRANCH   9  13
ENDBRANCH   6   7
ENDBRANCH   3   6
TORSDOF 4
ENDMDL
MODEL       64
REMARK 921   NORMALIZED FREE ENERGY PREDICTED BY IDOCK:   -5.37 KCAL/MOL
REMARK 922        TOTAL FREE ENERGY PREDICTED BY IDOCK:   -7.03 KCAL/MOL
REMARK 923 INTER-LIGAND FREE ENERGY PREDICTED BY IDOCK:   -6.64 KCAL/MOL
REMARK 924 INTRA-LIGAND FREE ENERGY PREDICTED BY IDOCK:   -0.39 KCAL/MOL
REMARK 927      BINDING AFFINITY PREDICTED BY RF-SCORE:    0.00 PKD
ROOT
HETATM    1  C   UNL     1     -10.150   3.831  63.993  1.00  0.00    -0.212 C  
HETATM    2  C   UNL     1      -9.715   4.447  65.293  1.00  0.00    -0.192 C  
HETATM    3  N   UNL     1     -10.711   5.148  65.931  1.00  0.00    -0.641 N  
HETATM    4  O   UNL     1      -8.584   4.315  65.745  1.00  0.00    -0.113 OA 
HETATM    5  H   UNL     1     -11.646   5.165  65.522  1.00  0.00     0.000 HD 
ENDROOT
BRANCH   3   6
HETATM    6  C   UNL     1     -10.469   5.864  67.175  1.00  0.00    -0.272 C  
BRANCH   6   7
HETATM    7  C   UNL     1     -10.622   7.364  66.974  1.00  0.00    -0.344 C  
HETATM    8  C   UNL     1     -11.089   8.108  68.203  1.00  0.00     0.392 C  
HETATM    9  N   UNL     1     -10.544   9.410  67.955  1.00  0.00    -0.245 N  
HETATM   10  C   UNL     1      -9.433   9.272  67.129  1.00  0.00    -0.149 C  
HETATM   11  O   UNL     1      -8.601  10.106  66.818  1.00  0.00    -0.125 OA 
HETATM   12  O   UNL     1      -9.356   7.973  66.684  1.00  0.00    -0.172 OA 
BRANCH   9  13
HETATM   13  C   UNL     1     -11.059  10.611  68.499  1.00  0.00    -0.263 A  
HETATM   14  C   UNL     1     -11.296  11.724  67.693  1.00  0.00    -0.370 A  
HETATM   15  C   UNL     1     -11.829  12.898  68.229  1.00  0.00    -0.330 A  
HETATM   16  C   UNL     1     -12.141  13.038  69.591  1.00  0.00    -0.241 A  
HETATM   17  F   UNL     1     -12.085  13.899  67.369  1.00  0.00    -0.385 F  
HETATM   18  C   UNL     1     -11.391  10.713  69.854  1.00  0.00    -0.386 A  
HETATM   19  C   UNL     1     -11.923  11.904  70.385  1.00  0.00    -0.400 A  
BRANCH  16  20
HETATM   20  N   UNL     1     -12.589  14.218  70.153  1.00  0.00    -0.334 NA 
HETATM   21  C   UNL     1     -13.620  14.238  71.203  1.00  0.00    -0.238 C  
HETATM   22  C   UNL     1     -13.041  14.797  72.508  1.00  0.00    -0.402 C  
HETATM   23  O   UNL     1     -12.481  16.106  72.298  1.00  0.00    -0.463 OA 
HETATM   24  C   UNL     1     -11.411  16.038  71.341  1.00  0.00    -0.398 C  
HETATM   25  C   UNL     1     -11.880  15.493  69.976  1.00  0.00    -0.359 C  
ENDBRANCH  16  20
ENDBRANCH   9  13
ENDBRANCH   6   7
ENDBRANCH   3   6
TORSDOF 4
ENDMDL
MODEL       65
REMARK 921   NORMALIZED FREE ENERGY PREDICTED BY IDOCK:   -5.36 KCAL/MOL
REMARK 922        TOTAL FREE ENERGY PREDICTED BY IDOCK:   -7.01 KCAL/MOL
REMARK 923 INTER-LIGAND FREE ENERGY PREDICTED BY IDOCK:   -6.59 KCAL/MOL
REMARK 924 INTRA-LIGAND FREE ENERGY PREDICTED BY IDOCK:   -0.41 KCAL/MOL
REMARK 927      BINDING AFFINITY PREDICTED BY RF-SCORE:    0.00 PKD
ROOT
HETATM    1  C   UNL     1     -13.774   7.210  71.471  1.00  0.00    -0.413 C  
HETATM    2  C   UNL     1     -12.322   6.922  71.205  1.00  0.00    -0.370 C  
HETATM    3  N   UNL     1     -12.035   6.724  69.875  1.00  0.00    -0.659 N  
HETATM    4  O   UNL     1     -11.479   6.890  72.092  1.00  0.00    -0.261 OA 
HETATM    5  H   UNL     1     -12.780   6.824  69.186  1.00  0.00     0.000 HD 
ENDROOT
BRANCH   3   6
HETATM    6  C   UNL     1     -10.696   6.376  69.423  1.00  0.00    -0.289 C  
BRANCH   6   7
HETATM    7  C   UNL     1      -9.913   7.621  69.038  1.00  0.00    -0.181 C  
HETATM    8  C   UNL     1     -10.762   8.859  68.868  1.00  0.00    -0.106 C  
HETATM    9  N   UNL     1      -9.805   9.886  69.154  1.00  0.00    -0.187 N  
HETATM   10  C   UNL     1      -8.820   9.352  69.980  1.00  0.00    -0.211 C  
HETATM   11  O   UNL     1      -7.925   9.927  70.576  1.00  0.00    -0.246 OA 
HETATM   12  O   UNL     1      -8.997   7.992  70.079  1.00  0.00    -0.142 OA 
BRANCH   9  13
HETATM   13  C   UNL     1      -9.893  11.218  68.682  1.00  0.00    -0.202 A  
HETATM   14  C   UNL     1     -11.104  11.908  68.698  1.00  0.00    -0.295 A  
HETATM   15  C   UNL     1     -11.181  13.231  68.257  1.00  0.00    -0.277 A  
HETATM   16  C   UNL     1     -10.070  13.934  67.764  1.00  0.00    -0.241 A  
HETATM   17  F   UNL     1     -12.374  13.842  68.367  1.00  0.00    -0.393 F  
HETATM   18  C   UNL     1      -8.764  11.905  68.225  1.00  0.00    -0.170 A  
HETATM   19  C   UNL     1      -8.854  13.237  67.778  1.00  0.00    -0.197 A  
BRANCH  16  20
HETATM   20  N   UNL     1     -10.145  15.212  67.246  1.00  0.00    -0.234 NA 
HETATM   21  C   UNL     1     -10.602  16.355  68.054  1.00  0.00    -0.314 C  
HETATM   22  C   UNL     1      -9.471  17.376  68.221  1.00  0.00    -0.290 C  
HETATM   23  O   UNL     1      -8.976  17.805  66.940  1.00  0.00    -0.242 OA 
HETATM   24  C   UNL     1      -8.446  16.683  66.214  1.00  0.00    -0.320 C  
HETATM   25  C   UNL     1      -9.504  15.585  65.976  1.00  0.00    -0.352 C  
ENDBRANCH  16  20
ENDBRANCH   9  13
ENDBRANCH   6   7
ENDBRANCH   3   6
TORSDOF 4
ENDMDL
MODEL       66
REMARK 921   NORMALIZED FREE ENERGY PREDICTED BY IDOCK:   -5.35 KCAL/MOL
REMARK 922        TOTAL FREE ENERGY PREDICTED BY IDOCK:   -7.00 KCAL/MOL
REMARK 923 INTER-LIGAND FREE ENERGY PREDICTED BY IDOCK:   -6.55 KCAL/MOL
REMARK 924 INTRA-LIGAND FREE ENERGY PREDICTED BY IDOCK:   -0.44 KCAL/MOL
REMARK 927      BINDING AFFINITY PREDICTED BY RF-SCORE:    0.00 PKD
ROOT
HETATM    1  C   UNL     1     -10.368   3.871  64.785  1.00  0.00    -0.184 C  
HETATM    2  C   UNL     1     -10.005   4.785  65.923  1.00  0.00    -0.228 C  
HETATM    3  N   UNL     1     -11.010   5.657  66.270  1.00  0.00    -0.748 N  
HETATM    4  O   UNL     1      -8.923   4.735  66.495  1.00  0.00    -0.111 OA 
HETATM    5  H   UNL     1     -11.906   5.600  65.786  1.00  0.00     0.000 HD 
ENDROOT
BRANCH   3   6
HETATM    6  C   UNL     1     -10.829   6.659  67.310  1.00  0.00    -0.385 C  
BRANCH   6   7
HETATM    7  C   UNL     1     -10.402   7.990  66.712  1.00  0.00    -0.290 C  
HETATM    8  C   UNL     1     -10.906   9.198  67.467  1.00  0.00    -0.081 C  
HETATM    9  N   UNL     1      -9.905  10.165  67.128  1.00  0.00    -0.179 N  
HETATM   10  C   UNL     1      -8.726   9.492  66.823  1.00  0.00    -0.127 C  
HETATM   11  O   UNL     1      -7.609   9.944  66.645  1.00  0.00    -0.100 OA 
HETATM   12  O   UNL     1      -8.977   8.141  66.765  1.00  0.00    -0.133 OA 
BRANCH   9  13
HETATM   13  C   UNL     1     -10.108  11.566  67.139  1.00  0.00    -0.197 A  
HETATM   14  C   UNL     1     -11.299  12.125  66.677  1.00  0.00    -0.405 A  
HETATM   15  C   UNL     1     -11.506  13.506  66.716  1.00  0.00    -0.346 A  
HETATM   16  C   UNL     1     -10.543  14.405  67.199  1.00  0.00    -0.277 A  
HETATM   17  F   UNL     1     -12.708  13.954  66.311  1.00  0.00    -0.464 F  
HETATM   18  C   UNL     1      -9.144  12.438  67.655  1.00  0.00    -0.186 A  
HETATM   19  C   UNL     1      -9.361  13.829  67.685  1.00  0.00    -0.213 A  
BRANCH  16  20
HETATM   20  N   UNL     1     -10.697  15.778  67.166  1.00  0.00    -0.318 NA 
HETATM   21  C   UNL     1     -11.151  16.539  68.342  1.00  0.00    -0.333 C  
HETATM   22  C   UNL     1     -10.052  17.499  68.812  1.00  0.00    -0.363 C  
HETATM   23  O   UNL     1      -9.649  18.376  67.744  1.00  0.00    -0.277 OA 
HETATM   24  C   UNL     1      -9.119  17.610  66.650  1.00  0.00    -0.264 C  
HETATM   25  C   UNL     1     -10.146  16.606  66.084  1.00  0.00    -0.345 C  
ENDBRANCH  16  20
ENDBRANCH   9  13
ENDBRANCH   6   7
ENDBRANCH   3   6
TORSDOF 4
ENDMDL
MODEL       67
REMARK 921   NORMALIZED FREE ENERGY PREDICTED BY IDOCK:   -5.33 KCAL/MOL
REMARK 922        TOTAL FREE ENERGY PREDICTED BY IDOCK:   -6.97 KCAL/MOL
REMARK 923 INTER-LIGAND FREE ENERGY PREDICTED BY IDOCK:   -6.32 KCAL/MOL
REMARK 924 INTRA-LIGAND FREE ENERGY PREDICTED BY IDOCK:   -0.65 KCAL/MOL
REMARK 927      BINDING AFFINITY PREDICTED BY RF-SCORE:    0.00 PKD
ROOT
HETATM    1  C   UNL     1     -10.563  19.367  67.016  1.00  0.00    -0.586 C  
HETATM    2  C   UNL     1      -9.951  18.223  66.257  1.00  0.00    -0.357 C  
HETATM    3  N   UNL     1     -10.853  17.242  65.918  1.00  0.00    -0.107 N  
HETATM    4  O   UNL     1      -8.765  18.187  65.953  1.00  0.00    -0.505 OA 
HETATM    5  H   UNL     1     -11.837  17.369  66.155  1.00  0.00     0.000 HD 
ENDROOT
BRANCH   3   6
HETATM    6  C   UNL     1     -10.442  16.027  65.230  1.00  0.00    -0.358 C  
BRANCH   6   7
HETATM    7  C   UNL     1     -11.003  14.795  65.924  1.00  0.00    -0.335 C  
HETATM    8  C   UNL     1      -9.955  13.796  66.355  1.00  0.00    -0.297 C  
HETATM    9  N   UNL     1     -10.623  13.160  67.451  1.00  0.00    -0.241 N  
HETATM   10  C   UNL     1     -11.552  14.051  67.978  1.00  0.00    -0.337 C  
HETATM   11  O   UNL     1     -12.203  13.963  69.005  1.00  0.00    -0.350 OA 
HETATM   12  O   UNL     1     -11.645  15.150  67.156  1.00  0.00    -0.311 OA 
BRANCH   9  13
HETATM   13  C   UNL     1     -10.339  11.852  67.912  1.00  0.00    -0.198 A  
HETATM   14  C   UNL     1      -9.184  11.581  68.645  1.00  0.00    -0.136 A  
HETATM   15  C   UNL     1      -8.921  10.295  69.121  1.00  0.00    -0.180 A  
HETATM   16  C   UNL     1      -9.777   9.208  68.885  1.00  0.00    -0.162 A  
HETATM   17  F   UNL     1      -7.818  10.137  69.873  1.00  0.00    -0.133 F  
HETATM   18  C   UNL     1     -11.225  10.792  67.690  1.00  0.00    -0.370 A  
HETATM   19  C   UNL     1     -10.948   9.498  68.171  1.00  0.00    -0.144 A  
BRANCH  16  20
HETATM   20  N   UNL     1      -9.492   7.914  69.276  1.00  0.00    -0.152 NA 
HETATM   21  C   UNL     1      -9.607   7.480  70.678  1.00  0.00    -0.171 C  
HETATM   22  C   UNL     1     -10.693   6.406  70.816  1.00  0.00    -0.250 C  
HETATM   23  O   UNL     1     -10.425   5.294  69.944  1.00  0.00    -0.297 OA 
HETATM   24  C   UNL     1     -10.417   5.731  68.574  1.00  0.00    -0.225 C  
HETATM   25  C   UNL     1      -9.350   6.814  68.311  1.00  0.00    -0.124 C  
ENDBRANCH  16  20
ENDBRANCH   9  13
ENDBRANCH   6   7
ENDBRANCH   3   6
TORSDOF 4
ENDMDL
MODEL       68
REMARK 921   NORMALIZED FREE ENERGY PREDICTED BY IDOCK:   -5.28 KCAL/MOL
REMARK 922        TOTAL FREE ENERGY PREDICTED BY IDOCK:   -6.91 KCAL/MOL
REMARK 923 INTER-LIGAND FREE ENERGY PREDICTED BY IDOCK:   -6.47 KCAL/MOL
REMARK 924 INTRA-LIGAND FREE ENERGY PREDICTED BY IDOCK:   -0.44 KCAL/MOL
REMARK 927      BINDING AFFINITY PREDICTED BY RF-SCORE:    0.00 PKD
ROOT
HETATM    1  C   UNL     1      -9.644  16.891  66.400  1.00  0.00    -0.305 C  
HETATM    2  C   UNL     1     -10.384  15.612  66.120  1.00  0.00    -0.316 C  
HETATM    3  N   UNL     1     -11.264  15.257  67.115  1.00  0.00    -0.321 N  
HETATM    4  O   UNL     1     -10.229  14.967  65.091  1.00  0.00    -0.379 OA 
HETATM    5  H   UNL     1     -11.383  15.876  67.917  1.00  0.00     0.000 HD 
ENDROOT
BRANCH   3   6
HETATM    6  C   UNL     1     -12.032  14.021  67.054  1.00  0.00    -0.438 C  
BRANCH   6   7
HETATM    7  C   UNL     1     -11.218  12.852  67.585  1.00  0.00    -0.278 C  
HETATM    8  C   UNL     1     -11.849  12.141  68.759  1.00  0.00    -0.303 C  
HETATM    9  N   UNL     1     -11.281  10.833  68.621  1.00  0.00    -0.254 N  
HETATM   10  C   UNL     1     -10.953  10.635  67.283  1.00  0.00    -0.284 C  
HETATM   11  O   UNL     1     -10.602   9.610  66.723  1.00  0.00    -0.209 OA 
HETATM   12  O   UNL     1     -11.105  11.817  66.598  1.00  0.00    -0.284 OA 
BRANCH   9  13
HETATM   13  C   UNL     1     -11.124   9.911  69.683  1.00  0.00    -0.241 A  
HETATM   14  C   UNL     1     -10.082   8.984  69.684  1.00  0.00    -0.202 A  
HETATM   15  C   UNL     1      -9.914   8.094  70.747  1.00  0.00    -0.188 A  
HETATM   16  C   UNL     1     -10.774   8.065  71.857  1.00  0.00    -0.251 A  
HETATM   17  F   UNL     1      -8.847   7.279  70.697  1.00  0.00    -0.142 F  
HETATM   18  C   UNL     1     -11.977   9.924  70.792  1.00  0.00    -0.410 A  
HETATM   19  C   UNL     1     -11.800   9.020  71.856  1.00  0.00    -0.447 A  
BRANCH  16  20
HETATM   20  N   UNL     1     -10.673   7.138  72.876  1.00  0.00    -0.274 NA 
HETATM   21  C   UNL     1     -11.266   5.795  72.769  1.00  0.00    -0.292 C  
HETATM   22  C   UNL     1     -10.170   4.724  72.797  1.00  0.00    -0.182 C  
HETATM   23  O   UNL     1      -9.365   4.848  73.984  1.00  0.00    -0.120 OA 
HETATM   24  C   UNL     1      -8.720   6.132  74.011  1.00  0.00    -0.120 C  
HETATM   25  C   UNL     1      -9.731   7.297  73.993  1.00  0.00    -0.231 C  
ENDBRANCH  16  20
ENDBRANCH   9  13
ENDBRANCH   6   7
ENDBRANCH   3   6
TORSDOF 4
ENDMDL
MODEL       69
REMARK 921   NORMALIZED FREE ENERGY PREDICTED BY IDOCK:   -5.27 KCAL/MOL
REMARK 922        TOTAL FREE ENERGY PREDICTED BY IDOCK:   -6.91 KCAL/MOL
REMARK 923 INTER-LIGAND FREE ENERGY PREDICTED BY IDOCK:   -6.34 KCAL/MOL
REMARK 924 INTRA-LIGAND FREE ENERGY PREDICTED BY IDOCK:   -0.57 KCAL/MOL
REMARK 927      BINDING AFFINITY PREDICTED BY RF-SCORE:    0.00 PKD
ROOT
HETATM    1  C   UNL     1     -10.651  20.039  66.019  1.00  0.00    -0.472 C  
HETATM    2  C   UNL     1      -9.528  19.192  66.551  1.00  0.00    -0.356 C  
HETATM    3  N   UNL     1      -9.703  17.846  66.333  1.00  0.00    -0.320 N  
HETATM    4  O   UNL     1      -8.544  19.667  67.104  1.00  0.00    -0.288 OA 
HETATM    5  H   UNL     1     -10.522  17.530  65.813  1.00  0.00     0.000 HD 
ENDROOT
BRANCH   3   6
HETATM    6  C   UNL     1      -8.752  16.860  66.825  1.00  0.00    -0.232 C  
BRANCH   6   7
HETATM    7  C   UNL     1      -8.937  15.528  66.115  1.00  0.00    -0.294 C  
HETATM    8  C   UNL     1      -9.045  14.341  67.044  1.00  0.00    -0.233 C  
HETATM    9  N   UNL     1      -9.810  13.436  66.239  1.00  0.00    -0.287 N  
HETATM   10  C   UNL     1     -10.567  14.180  65.339  1.00  0.00    -0.346 C  
HETATM   11  O   UNL     1     -11.460  13.808  64.598  1.00  0.00    -0.344 OA 
HETATM   12  O   UNL     1     -10.180  15.498  65.399  1.00  0.00    -0.356 OA 
BRANCH   9  13
HETATM   13  C   UNL     1      -9.797  12.028  66.384  1.00  0.00    -0.220 A  
HETATM   14  C   UNL     1      -9.963  11.431  67.632  1.00  0.00    -0.196 A  
HETATM   15  C   UNL     1      -9.976  10.041  67.767  1.00  0.00    -0.170 A  
HETATM   16  C   UNL     1      -9.811   9.170  66.678  1.00  0.00    -0.240 A  
HETATM   17  F   UNL     1     -10.206   9.549  68.997  1.00  0.00    -0.174 F  
HETATM   18  C   UNL     1      -9.662  11.183  65.277  1.00  0.00    -0.285 A  
HETATM   19  C   UNL     1      -9.672   9.783  65.425  1.00  0.00    -0.383 A  
BRANCH  16  20
HETATM   20  N   UNL     1      -9.737   7.797  66.804  1.00  0.00    -0.210 NA 
HETATM   21  C   UNL     1      -8.483   7.113  67.163  1.00  0.00    -0.121 C  
HETATM   22  C   UNL     1      -8.631   6.404  68.514  1.00  0.00    -0.122 C  
HETATM   23  O   UNL     1      -9.740   5.487  68.491  1.00  0.00    -0.121 OA 
HETATM   24  C   UNL     1     -10.964   6.198  68.236  1.00  0.00    -0.308 C  
HETATM   25  C   UNL     1     -10.935   6.949  66.889  1.00  0.00    -0.258 C  
ENDBRANCH  16  20
ENDBRANCH   9  13
ENDBRANCH   6   7
ENDBRANCH   3   6
TORSDOF 4
ENDMDL
MODEL       70
REMARK 921   NORMALIZED FREE ENERGY PREDICTED BY IDOCK:   -5.26 KCAL/MOL
REMARK 922        TOTAL FREE ENERGY PREDICTED BY IDOCK:   -6.89 KCAL/MOL
REMARK 923 INTER-LIGAND FREE ENERGY PREDICTED BY IDOCK:   -6.30 KCAL/MOL
REMARK 924 INTRA-LIGAND FREE ENERGY PREDICTED BY IDOCK:   -0.60 KCAL/MOL
REMARK 927      BINDING AFFINITY PREDICTED BY RF-SCORE:    0.00 PKD
ROOT
HETATM    1  C   UNL     1      -6.024  20.337  64.283  1.00  0.00    -0.321 C  
HETATM    2  C   UNL     1      -6.621  20.636  65.631  1.00  0.00    -0.201 C  
HETATM    3  N   UNL     1      -7.923  20.214  65.762  1.00  0.00    -0.513 N  
HETATM    4  O   UNL     1      -5.992  21.183  66.528  1.00  0.00    -0.242 OA 
HETATM    5  H   UNL     1      -8.362  19.713  64.990  1.00  0.00     0.000 HD 
ENDROOT
BRANCH   3   6
HETATM    6  C   UNL     1      -8.691  20.463  66.973  1.00  0.00    -0.287 C  
BRANCH   6   7
HETATM    7  C   UNL     1      -8.922  19.173  67.744  1.00  0.00    -0.296 C  
HETATM    8  C   UNL     1      -9.327  18.001  66.882  1.00  0.00    -0.276 C  
HETATM    9  N   UNL     1      -8.858  16.905  67.677  1.00  0.00    -0.212 N  
HETATM   10  C   UNL     1      -7.808  17.355  68.471  1.00  0.00    -0.268 C  
HETATM   11  O   UNL     1      -7.038  16.709  69.161  1.00  0.00    -0.213 OA 
HETATM   12  O   UNL     1      -7.709  18.722  68.363  1.00  0.00    -0.293 OA 
BRANCH   9  13
HETATM   13  C   UNL     1      -9.381  15.591  67.618  1.00  0.00    -0.203 A  
HETATM   14  C   UNL     1     -10.654  15.299  68.106  1.00  0.00    -0.254 A  
HETATM   15  C   UNL     1     -11.177  14.007  68.022  1.00  0.00    -0.279 A  
HETATM   16  C   UNL     1     -10.464  12.934  67.464  1.00  0.00    -0.223 A  
HETATM   17  F   UNL     1     -12.436  13.829  68.458  1.00  0.00    -0.363 F  
HETATM   18  C   UNL     1      -8.661  14.546  67.029  1.00  0.00    -0.256 A  
HETATM   19  C   UNL     1      -9.197  13.246  66.953  1.00  0.00    -0.242 A  
BRANCH  16  20
HETATM   20  N   UNL     1     -10.931  11.634  67.448  1.00  0.00    -0.245 NA 
HETATM   21  C   UNL     1     -10.684  10.731  66.312  1.00  0.00    -0.138 C  
HETATM   22  C   UNL     1      -9.820   9.544  66.753  1.00  0.00    -0.216 C  
HETATM   23  O   UNL     1     -10.434   8.847  67.852  1.00  0.00    -0.228 OA 
HETATM   24  C   UNL     1     -10.572   9.727  68.980  1.00  0.00    -0.219 C  
HETATM   25  C   UNL     1     -11.434  10.964  68.656  1.00  0.00    -0.311 C  
ENDBRANCH  16  20
ENDBRANCH   9  13
ENDBRANCH   6   7
ENDBRANCH   3   6
TORSDOF 4
ENDMDL
MODEL       71
REMARK 921   NORMALIZED FREE ENERGY PREDICTED BY IDOCK:   -5.24 KCAL/MOL
REMARK 922        TOTAL FREE ENERGY PREDICTED BY IDOCK:   -6.86 KCAL/MOL
REMARK 923 INTER-LIGAND FREE ENERGY PREDICTED BY IDOCK:   -6.27 KCAL/MOL
REMARK 924 INTRA-LIGAND FREE ENERGY PREDICTED BY IDOCK:   -0.59 KCAL/MOL
REMARK 927      BINDING AFFINITY PREDICTED BY RF-SCORE:    0.00 PKD
ROOT
HETATM    1  C   UNL     1     -10.628  19.570  65.852  1.00  0.00    -0.572 C  
HETATM    2  C   UNL     1      -9.582  18.606  66.340  1.00  0.00    -0.325 C  
HETATM    3  N   UNL     1      -9.924  17.286  66.163  1.00  0.00    -0.293 N  
HETATM    4  O   UNL     1      -8.519  18.970  66.828  1.00  0.00    -0.277 OA 
HETATM    5  H   UNL     1     -10.802  17.059  65.696  1.00  0.00     0.000 HD 
ENDROOT
BRANCH   3   6
HETATM    6  C   UNL     1      -9.068  16.203  66.624  1.00  0.00    -0.252 C  
BRANCH   6   7
HETATM    7  C   UNL     1      -9.634  14.852  66.215  1.00  0.00    -0.307 C  
HETATM    8  C   UNL     1      -9.309  13.729  67.172  1.00  0.00    -0.240 C  
HETATM    9  N   UNL     1     -10.408  12.843  66.931  1.00  0.00    -0.242 N  
HETATM   10  C   UNL     1     -11.484  13.591  66.465  1.00  0.00    -0.339 C  
HETATM   11  O   UNL     1     -12.642  13.248  66.298  1.00  0.00    -0.334 OA 
HETATM   12  O   UNL     1     -11.068  14.878  66.213  1.00  0.00    -0.335 OA 
BRANCH   9  13
HETATM   13  C   UNL     1     -10.379  11.447  67.168  1.00  0.00    -0.212 A  
HETATM   14  C   UNL     1      -9.858  10.566  66.222  1.00  0.00    -0.269 A  
HETATM   15  C   UNL     1      -9.806   9.193  66.470  1.00  0.00    -0.264 A  
HETATM   16  C   UNL     1     -10.279   8.619  67.661  1.00  0.00    -0.239 A  
HETATM   17  F   UNL     1      -9.230   8.424  65.530  1.00  0.00    -0.220 F  
HETATM   18  C   UNL     1     -10.828  10.904  68.377  1.00  0.00    -0.266 A  
HETATM   19  C   UNL     1     -10.775   9.517  68.615  1.00  0.00    -0.218 A  
BRANCH  16  20
HETATM   20  N   UNL     1     -10.312   7.257  67.889  1.00  0.00    -0.190 NA 
HETATM   21  C   UNL     1     -11.105   6.345  67.048  1.00  0.00    -0.329 C  
HETATM   22  C   UNL     1     -10.185   5.366  66.309  1.00  0.00    -0.192 C  
HETATM   23  O   UNL     1      -9.361   4.639  67.239  1.00  0.00    -0.127 OA 
HETATM   24  C   UNL     1      -8.527   5.548  67.976  1.00  0.00    -0.098 C  
HETATM   25  C   UNL     1      -9.349   6.583  68.772  1.00  0.00    -0.130 C  
ENDBRANCH  16  20
ENDBRANCH   9  13
ENDBRANCH   6   7
ENDBRANCH   3   6
TORSDOF 4
ENDMDL
MODEL       72
REMARK 921   NORMALIZED FREE ENERGY PREDICTED BY IDOCK:   -5.22 KCAL/MOL
REMARK 922        TOTAL FREE ENERGY PREDICTED BY IDOCK:   -6.84 KCAL/MOL
REMARK 923 INTER-LIGAND FREE ENERGY PREDICTED BY IDOCK:   -6.52 KCAL/MOL
REMARK 924 INTRA-LIGAND FREE ENERGY PREDICTED BY IDOCK:   -0.32 KCAL/MOL
REMARK 927      BINDING AFFINITY PREDICTED BY RF-SCORE:    0.00 PKD
ROOT
HETATM    1  C   UNL     1     -13.561  13.613  72.344  1.00  0.00    -0.703 C  
HETATM    2  C   UNL     1     -13.287  14.450  71.125  1.00  0.00    -0.331 C  
HETATM    3  N   UNL     1     -12.286  13.948  70.327  1.00  0.00    -0.339 N  
HETATM    4  O   UNL     1     -13.915  15.468  70.864  1.00  0.00    -0.489 OA 
HETATM    5  H   UNL     1     -11.847  13.062  70.578  1.00  0.00     0.000 HD 
ENDROOT
BRANCH   3   6
HETATM    6  C   UNL     1     -11.835  14.647  69.132  1.00  0.00    -0.312 C  
BRANCH   6   7
HETATM    7  C   UNL     1     -11.242  13.673  68.126  1.00  0.00    -0.275 C  
HETATM    8  C   UNL     1     -11.195  12.241  68.604  1.00  0.00    -0.259 C  
HETATM    9  N   UNL     1     -11.231  11.538  67.356  1.00  0.00    -0.290 N  
HETATM   10  C   UNL     1     -11.860  12.345  66.413  1.00  0.00    -0.354 C  
HETATM   11  O   UNL     1     -12.233  12.063  65.288  1.00  0.00    -0.437 OA 
HETATM   12  O   UNL     1     -12.054  13.599  66.945  1.00  0.00    -0.397 OA 
BRANCH   9  13
HETATM   13  C   UNL     1     -10.728  10.229  67.158  1.00  0.00    -0.241 A  
HETATM   14  C   UNL     1     -11.011   9.205  68.061  1.00  0.00    -0.032 A  
HETATM   15  C   UNL     1     -10.535   7.909  67.849  1.00  0.00    -0.198 A  
HETATM   16  C   UNL     1      -9.744   7.563  66.742  1.00  0.00    -0.216 A  
HETATM   17  F   UNL     1     -10.909   6.970  68.734  1.00  0.00    -0.212 F  
HETATM   18  C   UNL     1      -9.968   9.904  66.030  1.00  0.00    -0.338 A  
HETATM   19  C   UNL     1      -9.489   8.595  65.828  1.00  0.00    -0.192 A  
BRANCH  16  20
HETATM   20  N   UNL     1      -9.196   6.308  66.560  1.00  0.00    -0.151 NA 
HETATM   21  C   UNL     1     -10.010   5.083  66.634  1.00  0.00    -0.221 C  
HETATM   22  C   UNL     1     -10.026   4.370  65.277  1.00  0.00    -0.200 C  
HETATM   23  O   UNL     1      -8.686   4.083  64.836  1.00  0.00    -0.113 OA 
HETATM   24  C   UNL     1      -7.946   5.305  64.677  1.00  0.00    -0.109 C  
HETATM   25  C   UNL     1      -7.855   6.110  65.990  1.00  0.00    -0.106 C  
ENDBRANCH  16  20
ENDBRANCH   9  13
ENDBRANCH   6   7
ENDBRANCH   3   6
TORSDOF 4
ENDMDL
MODEL       73
REMARK 921   NORMALIZED FREE ENERGY PREDICTED BY IDOCK:   -5.20 KCAL/MOL
REMARK 922        TOTAL FREE ENERGY PREDICTED BY IDOCK:   -6.82 KCAL/MOL
REMARK 923 INTER-LIGAND FREE ENERGY PREDICTED BY IDOCK:   -6.27 KCAL/MOL
REMARK 924 INTRA-LIGAND FREE ENERGY PREDICTED BY IDOCK:   -0.54 KCAL/MOL
REMARK 927      BINDING AFFINITY PREDICTED BY RF-SCORE:    0.00 PKD
ROOT
HETATM    1  C   UNL     1      -8.169   5.351  66.858  1.00  0.00    -0.104 C  
HETATM    2  C   UNL     1      -8.285   6.527  65.929  1.00  0.00    -0.131 C  
HETATM    3  N   UNL     1      -8.889   7.623  66.500  1.00  0.00    -0.140 N  
HETATM    4  O   UNL     1      -7.860   6.510  64.780  1.00  0.00    -0.100 OA 
HETATM    5  H   UNL     1      -9.165   7.582  67.481  1.00  0.00     0.000 HD 
ENDROOT
BRANCH   3   6
HETATM    6  C   UNL     1      -9.144   8.839  65.743  1.00  0.00    -0.212 C  
BRANCH   6   7
HETATM    7  C   UNL     1      -9.430  10.007  66.673  1.00  0.00    -0.171 C  
HETATM    8  C   UNL     1      -9.212  11.365  66.048  1.00  0.00    -0.214 C  
HETATM    9  N   UNL     1     -10.107  12.168  66.826  1.00  0.00    -0.199 N  
HETATM   10  C   UNL     1     -11.121  11.350  67.314  1.00  0.00    -0.303 C  
HETATM   11  O   UNL     1     -12.156  11.665  67.877  1.00  0.00    -0.613 OA 
HETATM   12  O   UNL     1     -10.814  10.037  67.048  1.00  0.00    -0.215 OA 
BRANCH   9  13
HETATM   13  C   UNL     1      -9.969  13.564  67.020  1.00  0.00    -0.247 A  
HETATM   14  C   UNL     1      -9.719  14.094  68.285  1.00  0.00    -0.227 A  
HETATM   15  C   UNL     1      -9.556  15.469  68.468  1.00  0.00    -0.203 A  
HETATM   16  C   UNL     1      -9.646  16.391  67.413  1.00  0.00    -0.231 A  
HETATM   17  F   UNL     1      -9.255  15.888  69.709  1.00  0.00    -0.263 F  
HETATM   18  C   UNL     1     -10.032  14.458  65.947  1.00  0.00    -0.350 A  
HETATM   19  C   UNL     1      -9.871  15.843  66.143  1.00  0.00    -0.343 A  
BRANCH  16  20
HETATM   20  N   UNL     1      -9.572  17.760  67.589  1.00  0.00    -0.262 NA 
HETATM   21  C   UNL     1      -8.284  18.473  67.615  1.00  0.00    -0.255 C  
HETATM   22  C   UNL     1      -8.190  19.447  66.435  1.00  0.00    -0.325 C  
HETATM   23  O   UNL     1      -9.298  20.366  66.442  1.00  0.00    -0.288 OA 
HETATM   24  C   UNL     1     -10.537  19.647  66.316  1.00  0.00    -0.482 C  
HETATM   25  C   UNL     1     -10.746  18.634  67.461  1.00  0.00    -0.394 C  
ENDBRANCH  16  20
ENDBRANCH   9  13
ENDBRANCH   6   7
ENDBRANCH   3   6
TORSDOF 4
ENDMDL
MODEL       74
REMARK 921   NORMALIZED FREE ENERGY PREDICTED BY IDOCK:   -5.19 KCAL/MOL
REMARK 922        TOTAL FREE ENERGY PREDICTED BY IDOCK:   -6.80 KCAL/MOL
REMARK 923 INTER-LIGAND FREE ENERGY PREDICTED BY IDOCK:   -6.35 KCAL/MOL
REMARK 924 INTRA-LIGAND FREE ENERGY PREDICTED BY IDOCK:   -0.45 KCAL/MOL
REMARK 927      BINDING AFFINITY PREDICTED BY RF-SCORE:    0.00 PKD
ROOT
HETATM    1  C   UNL     1      -6.902   4.717  70.727  1.00  0.00    -0.036 C  
HETATM    2  C   UNL     1      -8.031   5.442  71.407  1.00  0.00    -0.115 C  
HETATM    3  N   UNL     1      -9.276   5.062  70.963  1.00  0.00    -0.143 N  
HETATM    4  O   UNL     1      -7.850   6.273  72.288  1.00  0.00    -0.102 OA 
HETATM    5  H   UNL     1      -9.349   4.320  70.267  1.00  0.00     0.000 HD 
ENDROOT
BRANCH   3   6
HETATM    6  C   UNL     1     -10.491   5.691  71.459  1.00  0.00    -0.239 C  
BRANCH   6   7
HETATM    7  C   UNL     1     -11.135   6.550  70.382  1.00  0.00    -0.332 C  
HETATM    8  C   UNL     1     -10.584   7.954  70.298  1.00  0.00    -0.231 C  
HETATM    9  N   UNL     1     -10.849   8.268  68.926  1.00  0.00    -0.049 N  
HETATM   10  C   UNL     1     -10.901   7.080  68.205  1.00  0.00    -0.153 C  
HETATM   11  O   UNL     1     -10.943   6.917  66.997  1.00  0.00    -0.379 OA 
HETATM   12  O   UNL     1     -10.873   6.017  69.077  1.00  0.00    -0.289 OA 
BRANCH   9  13
HETATM   13  C   UNL     1     -10.999   9.581  68.419  1.00  0.00    -0.069 A  
HETATM   14  C   UNL     1     -11.514  10.605  69.212  1.00  0.00    -0.351 A  
HETATM   15  C   UNL     1     -11.635  11.906  68.717  1.00  0.00    -0.309 A  
HETATM   16  C   UNL     1     -11.268  12.257  67.408  1.00  0.00    -0.301 A  
HETATM   17  F   UNL     1     -12.081  12.844  69.570  1.00  0.00    -0.333 F  
HETATM   18  C   UNL     1     -10.596   9.911  67.121  1.00  0.00    -0.295 A  
HETATM   19  C   UNL     1     -10.726  11.225  66.630  1.00  0.00    -0.321 A  
BRANCH  16  20
HETATM   20  N   UNL     1     -11.458  13.517  66.875  1.00  0.00    -0.329 NA 
HETATM   21  C   UNL     1     -10.439  14.574  66.990  1.00  0.00    -0.268 C  
HETATM   22  C   UNL     1      -9.918  14.965  65.602  1.00  0.00    -0.358 C  
HETATM   23  O   UNL     1     -11.002  15.372  64.746  1.00  0.00    -0.420 OA 
HETATM   24  C   UNL     1     -11.929  14.287  64.573  1.00  0.00    -0.462 C  
HETATM   25  C   UNL     1     -12.529  13.810  65.912  1.00  0.00    -0.468 C  
ENDBRANCH  16  20
ENDBRANCH   9  13
ENDBRANCH   6   7
ENDBRANCH   3   6
TORSDOF 4
ENDMDL
MODEL       75
REMARK 921   NORMALIZED FREE ENERGY PREDICTED BY IDOCK:   -5.17 KCAL/MOL
REMARK 922        TOTAL FREE ENERGY PREDICTED BY IDOCK:   -6.77 KCAL/MOL
REMARK 923 INTER-LIGAND FREE ENERGY PREDICTED BY IDOCK:   -6.14 KCAL/MOL
REMARK 924 INTRA-LIGAND FREE ENERGY PREDICTED BY IDOCK:   -0.63 KCAL/MOL
REMARK 927      BINDING AFFINITY PREDICTED BY RF-SCORE:    0.00 PKD
ROOT
HETATM    1  C   UNL     1      -8.924   4.160  69.061  1.00  0.00    -0.163 C  
HETATM    2  C   UNL     1      -9.237   4.998  70.270  1.00  0.00    -0.139 C  
HETATM    3  N   UNL     1      -8.283   5.950  70.542  1.00  0.00    -0.117 N  
HETATM    4  O   UNL     1     -10.259   4.855  70.929  1.00  0.00    -0.227 OA 
HETATM    5  H   UNL     1      -7.486   6.048  69.913  1.00  0.00     0.000 HD 
ENDROOT
BRANCH   3   6
HETATM    6  C   UNL     1      -8.378   6.820  71.705  1.00  0.00    -0.111 C  
BRANCH   6   7
HETATM    7  C   UNL     1      -8.790   8.226  71.297  1.00  0.00    -0.156 C  
HETATM    8  C   UNL     1      -8.992   8.405  69.810  1.00  0.00    -0.146 C  
HETATM    9  N   UNL     1      -9.926   9.491  69.793  1.00  0.00    -0.199 N  
HETATM   10  C   UNL     1     -10.636   9.480  70.990  1.00  0.00    -0.322 C  
HETATM   11  O   UNL     1     -11.621  10.127  71.303  1.00  0.00    -0.364 OA 
HETATM   12  O   UNL     1     -10.072   8.563  71.845  1.00  0.00    -0.240 OA 
BRANCH   9  13
HETATM   13  C   UNL     1     -10.093  10.388  68.710  1.00  0.00    -0.187 A  
HETATM   14  C   UNL     1      -9.359  11.571  68.636  1.00  0.00    -0.142 A  
HETATM   15  C   UNL     1      -9.507  12.440  67.553  1.00  0.00    -0.187 A  
HETATM   16  C   UNL     1     -10.396  12.192  66.495  1.00  0.00    -0.213 A  
HETATM   17  F   UNL     1      -8.714  13.526  67.529  1.00  0.00    -0.165 F  
HETATM   18  C   UNL     1     -10.963  10.101  67.654  1.00  0.00    -0.331 A  
HETATM   19  C   UNL     1     -11.107  10.987  66.569  1.00  0.00    -0.174 A  
BRANCH  16  20
HETATM   20  N   UNL     1     -10.616  13.080  65.460  1.00  0.00    -0.277 NA 
HETATM   21  C   UNL     1     -10.486  12.678  64.049  1.00  0.00    -0.416 C  
HETATM   22  C   UNL     1     -11.839  12.789  63.337  1.00  0.00    -0.518 C  
HETATM   23  O   UNL     1     -12.372  14.120  63.456  1.00  0.00    -0.738 OA 
HETATM   24  C   UNL     1     -12.581  14.446  64.840  1.00  0.00    -0.286 C  
HETATM   25  C   UNL     1     -11.277  14.377  65.662  1.00  0.00    -0.323 C  
ENDBRANCH  16  20
ENDBRANCH   9  13
ENDBRANCH   6   7
ENDBRANCH   3   6
TORSDOF 4
ENDMDL
MODEL       76
REMARK 921   NORMALIZED FREE ENERGY PREDICTED BY IDOCK:   -5.16 KCAL/MOL
REMARK 922        TOTAL FREE ENERGY PREDICTED BY IDOCK:   -6.76 KCAL/MOL
REMARK 923 INTER-LIGAND FREE ENERGY PREDICTED BY IDOCK:   -6.15 KCAL/MOL
REMARK 924 INTRA-LIGAND FREE ENERGY PREDICTED BY IDOCK:   -0.61 KCAL/MOL
REMARK 927      BINDING AFFINITY PREDICTED BY RF-SCORE:    0.00 PKD
ROOT
HETATM    1  C   UNL     1     -11.778   7.429  71.120  1.00  0.00    -0.322 C  
HETATM    2  C   UNL     1     -11.262   6.857  69.828  1.00  0.00    -0.267 C  
HETATM    3  N   UNL     1     -11.015   7.806  68.865  1.00  0.00    -0.425 N  
HETATM    4  O   UNL     1     -11.064   5.659  69.666  1.00  0.00    -0.328 OA 
HETATM    5  H   UNL     1     -11.149   8.791  69.093  1.00  0.00     0.000 HD 
ENDROOT
BRANCH   3   6
HETATM    6  C   UNL     1     -10.566   7.443  67.529  1.00  0.00    -0.269 C  
BRANCH   6   7
HETATM    7  C   UNL     1     -10.253   8.684  66.707  1.00  0.00    -0.291 C  
HETATM    8  C   UNL     1     -10.172   9.958  67.515  1.00  0.00    -0.216 C  
HETATM    9  N   UNL     1      -9.294  10.741  66.697  1.00  0.00    -0.164 N  
HETATM   10  C   UNL     1      -8.496   9.877  65.954  1.00  0.00    -0.130 C  
HETATM   11  O   UNL     1      -7.522  10.132  65.267  1.00  0.00    -0.136 OA 
HETATM   12  O   UNL     1      -8.951   8.588  66.112  1.00  0.00    -0.157 OA 
BRANCH   9  13
HETATM   13  C   UNL     1      -9.251  12.156  66.694  1.00  0.00    -0.206 A  
HETATM   14  C   UNL     1     -10.124  12.901  65.902  1.00  0.00    -0.295 A  
HETATM   15  C   UNL     1     -10.097  14.297  65.922  1.00  0.00    -0.326 A  
HETATM   16  C   UNL     1      -9.198  15.028  66.714  1.00  0.00    -0.257 A  
HETATM   17  F   UNL     1     -11.016  14.935  65.176  1.00  0.00    -0.312 F  
HETATM   18  C   UNL     1      -8.366  12.860  67.517  1.00  0.00    -0.183 A  
HETATM   19  C   UNL     1      -8.345  14.268  67.526  1.00  0.00    -0.198 A  
BRANCH  16  20
HETATM   20  N   UNL     1      -9.101  16.406  66.683  1.00  0.00    -0.230 NA 
HETATM   21  C   UNL     1     -10.158  17.274  67.229  1.00  0.00    -0.300 C  
HETATM   22  C   UNL     1      -9.622  18.085  68.414  1.00  0.00    -0.334 C  
HETATM   23  O   UNL     1      -8.464  18.848  68.029  1.00  0.00    -0.279 OA 
HETATM   24  C   UNL     1      -7.414  17.967  67.594  1.00  0.00    -0.213 C  
HETATM   25  C   UNL     1      -7.838  17.099  66.391  1.00  0.00    -0.317 C  
ENDBRANCH  16  20
ENDBRANCH   9  13
ENDBRANCH   6   7
ENDBRANCH   3   6
TORSDOF 4
ENDMDL
MODEL       77
REMARK 921   NORMALIZED FREE ENERGY PREDICTED BY IDOCK:   -5.13 KCAL/MOL
REMARK 922        TOTAL FREE ENERGY PREDICTED BY IDOCK:   -6.73 KCAL/MOL
REMARK 923 INTER-LIGAND FREE ENERGY PREDICTED BY IDOCK:   -6.01 KCAL/MOL
REMARK 924 INTRA-LIGAND FREE ENERGY PREDICTED BY IDOCK:   -0.71 KCAL/MOL
REMARK 927      BINDING AFFINITY PREDICTED BY RF-SCORE:    0.00 PKD
ROOT
HETATM    1  C   UNL     1      -9.973  17.538  66.007  1.00  0.00    -0.231 C  
HETATM    2  C   UNL     1     -10.881  16.562  65.311  1.00  0.00    -0.221 C  
HETATM    3  N   UNL     1     -11.195  15.463  66.075  1.00  0.00    -0.234 N  
HETATM    4  O   UNL     1     -11.312  16.747  64.180  1.00  0.00    -1.194 OA 
HETATM    5  H   UNL     1     -10.845  15.406  67.031  1.00  0.00     0.000 HD 
ENDROOT
BRANCH   3   6
HETATM    6  C   UNL     1     -12.015  14.378  65.556  1.00  0.00    -0.358 C  
BRANCH   6   7
HETATM    7  C   UNL     1     -11.768  13.093  66.330  1.00  0.00    -0.379 C  
HETATM    8  C   UNL     1     -11.032  12.030  65.549  1.00  0.00    -0.298 C  
HETATM    9  N   UNL     1     -10.408  11.297  66.609  1.00  0.00    -0.229 N  
HETATM   10  C   UNL     1     -10.246  12.149  67.698  1.00  0.00    -0.197 C  
HETATM   11  O   UNL     1      -9.620  11.967  68.728  1.00  0.00    -0.135 OA 
HETATM   12  O   UNL     1     -10.907  13.330  67.453  1.00  0.00    -0.261 OA 
BRANCH   9  13
HETATM   13  C   UNL     1     -10.009   9.941  66.520  1.00  0.00    -0.228 A  
HETATM   14  C   UNL     1     -10.817   8.919  67.016  1.00  0.00    -0.039 A  
HETATM   15  C   UNL     1     -10.432   7.581  66.902  1.00  0.00    -0.315 A  
HETATM   16  C   UNL     1      -9.224   7.186  66.305  1.00  0.00    -0.127 A  
HETATM   17  F   UNL     1     -11.300   6.657  67.349  1.00  0.00    -0.405 F  
HETATM   18  C   UNL     1      -8.815   9.573  65.893  1.00  0.00    -0.193 A  
HETATM   19  C   UNL     1      -8.435   8.222  65.787  1.00  0.00    -0.164 A  
BRANCH  16  20
HETATM   20  N   UNL     1      -8.790   5.876  66.259  1.00  0.00    -0.138 NA 
HETATM   21  C   UNL     1      -8.292   5.177  67.456  1.00  0.00    -0.106 C  
HETATM   22  C   UNL     1      -9.207   3.997  67.802  1.00  0.00    -0.159 C  
HETATM   23  O   UNL     1      -9.328   3.099  66.684  1.00  0.00    -0.164 OA 
HETATM   24  C   UNL     1      -9.908   3.784  65.561  1.00  0.00    -0.115 C  
HETATM   25  C   UNL     1      -9.065   4.996  65.114  1.00  0.00    -0.123 C  
ENDBRANCH  16  20
ENDBRANCH   9  13
ENDBRANCH   6   7
ENDBRANCH   3   6
TORSDOF 4
ENDMDL
MODEL       78
REMARK 921   NORMALIZED FREE ENERGY PREDICTED BY IDOCK:   -5.11 KCAL/MOL
REMARK 922        TOTAL FREE ENERGY PREDICTED BY IDOCK:   -6.71 KCAL/MOL
REMARK 923 INTER-LIGAND FREE ENERGY PREDICTED BY IDOCK:   -6.27 KCAL/MOL
REMARK 924 INTRA-LIGAND FREE ENERGY PREDICTED BY IDOCK:   -0.43 KCAL/MOL
REMARK 927      BINDING AFFINITY PREDICTED BY RF-SCORE:    0.00 PKD
ROOT
HETATM    1  C   UNL     1     -10.193  17.434  65.800  1.00  0.00    -0.204 C  
HETATM    2  C   UNL     1     -10.951  16.399  65.015  1.00  0.00    -0.252 C  
HETATM    3  N   UNL     1     -10.935  15.150  65.590  1.00  0.00    -0.345 N  
HETATM    4  O   UNL     1     -11.543  16.658  63.974  1.00  0.00    -1.197 OA 
HETATM    5  H   UNL     1     -10.469  15.024  66.488  1.00  0.00     0.000 HD 
ENDROOT
BRANCH   3   6
HETATM    6  C   UNL     1     -11.564  14.004  64.951  1.00  0.00    -0.367 C  
BRANCH   6   7
HETATM    7  C   UNL     1     -11.749  12.865  65.941  1.00  0.00    -0.399 C  
HETATM    8  C   UNL     1     -10.559  11.941  66.052  1.00  0.00    -0.265 C  
HETATM    9  N   UNL     1     -10.726  11.443  67.385  1.00  0.00    -0.218 N  
HETATM   10  C   UNL     1     -11.439  12.384  68.120  1.00  0.00    -0.318 C  
HETATM   11  O   UNL     1     -11.650  12.421  69.321  1.00  0.00    -0.282 OA 
HETATM   12  O   UNL     1     -11.900  13.368  67.276  1.00  0.00    -0.352 OA 
BRANCH   9  13
HETATM   13  C   UNL     1     -10.213  10.208  67.849  1.00  0.00    -0.180 A  
HETATM   14  C   UNL     1     -10.212   9.077  67.035  1.00  0.00    -0.336 A  
HETATM   15  C   UNL     1      -9.680   7.867  67.487  1.00  0.00    -0.159 A  
HETATM   16  C   UNL     1      -9.135   7.710  68.771  1.00  0.00    -0.139 A  
HETATM   17  F   UNL     1      -9.661   6.845  66.614  1.00  0.00    -0.193 F  
HETATM   18  C   UNL     1      -9.647  10.087  69.123  1.00  0.00    -0.217 A  
HETATM   19  C   UNL     1      -9.118   8.861  69.570  1.00  0.00    -0.146 A  
BRANCH  16  20
HETATM   20  N   UNL     1      -8.682   6.502  69.265  1.00  0.00    -0.130 NA 
HETATM   21  C   UNL     1      -9.546   5.609  70.055  1.00  0.00    -0.166 C  
HETATM   22  C   UNL     1      -9.766   4.286  69.313  1.00  0.00    -0.170 C  
HETATM   23  O   UNL     1      -8.508   3.659  69.004  1.00  0.00    -0.070 OA 
HETATM   24  C   UNL     1      -7.728   4.512  68.150  1.00  0.00    -0.080 C  
HETATM   25  C   UNL     1      -7.434   5.881  68.799  1.00  0.00    -0.086 C  
ENDBRANCH  16  20
ENDBRANCH   9  13
ENDBRANCH   6   7
ENDBRANCH   3   6
TORSDOF 4
ENDMDL
MODEL       79
REMARK 921   NORMALIZED FREE ENERGY PREDICTED BY IDOCK:   -5.06 KCAL/MOL
REMARK 922        TOTAL FREE ENERGY PREDICTED BY IDOCK:   -6.64 KCAL/MOL
REMARK 923 INTER-LIGAND FREE ENERGY PREDICTED BY IDOCK:   -6.45 KCAL/MOL
REMARK 924 INTRA-LIGAND FREE ENERGY PREDICTED BY IDOCK:   -0.19 KCAL/MOL
REMARK 927      BINDING AFFINITY PREDICTED BY RF-SCORE:    0.00 PKD
ROOT
HETATM    1  C   UNL     1      -9.312   3.674  66.762  1.00  0.00    -0.210 C  
HETATM    2  C   UNL     1      -9.499   3.563  68.250  1.00  0.00    -0.148 C  
HETATM    3  N   UNL     1      -9.734   4.770  68.866  1.00  0.00    -0.169 N  
HETATM    4  O   UNL     1      -9.466   2.493  68.845  1.00  0.00    -0.162 OA 
HETATM    5  H   UNL     1      -9.805   5.613  68.297  1.00  0.00     0.000 HD 
ENDROOT
BRANCH   3   6
HETATM    6  C   UNL     1      -9.883   4.876  70.310  1.00  0.00    -0.236 C  
BRANCH   6   7
HETATM    7  C   UNL     1     -10.186   6.309  70.720  1.00  0.00    -0.193 C  
HETATM    8  C   UNL     1     -10.403   7.252  69.560  1.00  0.00    -0.225 C  
HETATM    9  N   UNL     1     -11.244   8.239  70.168  1.00  0.00    -0.190 N  
HETATM   10  C   UNL     1     -11.928   7.646  71.225  1.00  0.00    -0.306 C  
HETATM   11  O   UNL     1     -12.849   8.090  71.888  1.00  0.00    -0.316 OA 
HETATM   12  O   UNL     1     -11.423   6.385  71.441  1.00  0.00    -0.287 OA 
BRANCH   9  13
HETATM   13  C   UNL     1     -11.358   9.578  69.723  1.00  0.00    -0.083 A  
HETATM   14  C   UNL     1     -11.898  10.567  70.544  1.00  0.00    -0.442 A  
HETATM   15  C   UNL     1     -11.985  11.892  70.112  1.00  0.00    -0.332 A  
HETATM   16  C   UNL     1     -11.555  12.305  68.841  1.00  0.00    -0.316 A  
HETATM   17  F   UNL     1     -12.459  12.791  70.992  1.00  0.00    -0.431 F  
HETATM   18  C   UNL     1     -10.894   9.969  68.463  1.00  0.00    -0.270 A  
HETATM   19  C   UNL     1     -10.990  11.308  68.035  1.00  0.00    -0.302 A  
BRANCH  16  20
HETATM   20  N   UNL     1     -11.710  13.593  68.365  1.00  0.00    -0.338 NA 
HETATM   21  C   UNL     1     -11.065  14.746  69.016  1.00  0.00    -0.256 C  
HETATM   22  C   UNL     1     -10.053  15.397  68.066  1.00  0.00    -0.226 C  
HETATM   23  O   UNL     1     -10.684  15.778  66.830  1.00  0.00    -0.315 OA 
HETATM   24  C   UNL     1     -11.217  14.617  66.170  1.00  0.00    -0.341 C  
HETATM   25  C   UNL     1     -12.261  13.879  67.033  1.00  0.00    -0.355 C  
ENDBRANCH  16  20
ENDBRANCH   9  13
ENDBRANCH   6   7
ENDBRANCH   3   6
TORSDOF 4
ENDMDL
MODEL       80
REMARK 921   NORMALIZED FREE ENERGY PREDICTED BY IDOCK:   -5.02 KCAL/MOL
REMARK 922        TOTAL FREE ENERGY PREDICTED BY IDOCK:   -6.59 KCAL/MOL
REMARK 923 INTER-LIGAND FREE ENERGY PREDICTED BY IDOCK:   -6.37 KCAL/MOL
REMARK 924 INTRA-LIGAND FREE ENERGY PREDICTED BY IDOCK:   -0.22 KCAL/MOL
REMARK 927      BINDING AFFINITY PREDICTED BY RF-SCORE:    0.00 PKD
ROOT
HETATM    1  C   UNL     1      -7.515   3.791  71.734  1.00  0.00    -0.056 C  
HETATM    2  C   UNL     1      -8.277   4.926  72.361  1.00  0.00    -0.119 C  
HETATM    3  N   UNL     1      -9.640   4.747  72.348  1.00  0.00    -0.141 N  
HETATM    4  O   UNL     1      -7.727   5.902  72.855  1.00  0.00    -0.099 OA 
HETATM    5  H   UNL     1     -10.023   3.880  71.971  1.00  0.00     0.000 HD 
ENDROOT
BRANCH   3   6
HETATM    6  C   UNL     1     -10.551   5.761  72.857  1.00  0.00    -0.232 C  
BRANCH   6   7
HETATM    7  C   UNL     1     -11.200   6.529  71.716  1.00  0.00    -0.269 C  
HETATM    8  C   UNL     1     -10.470   7.794  71.327  1.00  0.00    -0.206 C  
HETATM    9  N   UNL     1     -10.863   7.922  69.955  1.00  0.00    -0.248 N  
HETATM   10  C   UNL     1     -11.174   6.658  69.466  1.00  0.00    -0.326 C  
HETATM   11  O   UNL     1     -11.393   6.312  68.318  1.00  0.00    -0.289 OA 
HETATM   12  O   UNL     1     -11.186   5.758  70.506  1.00  0.00    -0.270 OA 
BRANCH   9  13
HETATM   13  C   UNL     1     -10.888   9.144  69.240  1.00  0.00    -0.132 A  
HETATM   14  C   UNL     1     -10.559   9.193  67.887  1.00  0.00    -0.272 A  
HETATM   15  C   UNL     1     -10.612  10.396  67.179  1.00  0.00    -0.261 A  
HETATM   16  C   UNL     1     -10.978  11.613  67.774  1.00  0.00    -0.233 A  
HETATM   17  F   UNL     1     -10.340  10.341  65.863  1.00  0.00    -0.305 F  
HETATM   18  C   UNL     1     -11.288  10.337  69.851  1.00  0.00    -0.354 A  
HETATM   19  C   UNL     1     -11.333  11.545  69.128  1.00  0.00    -0.351 A  
BRANCH  16  20
HETATM   20  N   UNL     1     -10.955  12.824  67.111  1.00  0.00    -0.256 NA 
HETATM   21  C   UNL     1      -9.868  13.185  66.186  1.00  0.00    -0.280 C  
HETATM   22  C   UNL     1     -10.412  13.351  64.762  1.00  0.00    -0.403 C  
HETATM   23  O   UNL     1     -11.472  14.325  64.731  1.00  0.00    -0.359 OA 
HETATM   24  C   UNL     1     -12.560  13.897  65.566  1.00  0.00    -0.526 C  
HETATM   25  C   UNL     1     -12.131  13.702  67.035  1.00  0.00    -0.380 C  
ENDBRANCH  16  20
ENDBRANCH   9  13
ENDBRANCH   6   7
ENDBRANCH   3   6
TORSDOF 4
ENDMDL
MODEL       81
REMARK 921   NORMALIZED FREE ENERGY PREDICTED BY IDOCK:   -5.01 KCAL/MOL
REMARK 922        TOTAL FREE ENERGY PREDICTED BY IDOCK:   -6.58 KCAL/MOL
REMARK 923 INTER-LIGAND FREE ENERGY PREDICTED BY IDOCK:   -6.33 KCAL/MOL
REMARK 924 INTRA-LIGAND FREE ENERGY PREDICTED BY IDOCK:   -0.25 KCAL/MOL
REMARK 927      BINDING AFFINITY PREDICTED BY RF-SCORE:    0.00 PKD
ROOT
HETATM    1  C   UNL     1     -11.399   5.468  71.940  1.00  0.00    -0.141 C  
HETATM    2  C   UNL     1     -10.582   6.303  70.993  1.00  0.00    -0.238 C  
HETATM    3  N   UNL     1     -11.340   7.037  70.112  1.00  0.00    -0.391 N  
HETATM    4  O   UNL     1      -9.358   6.337  71.026  1.00  0.00    -0.160 OA 
HETATM    5  H   UNL     1     -12.357   7.002  70.183  1.00  0.00     0.000 HD 
ENDROOT
BRANCH   3   6
HETATM    6  C   UNL     1     -10.731   7.864  69.080  1.00  0.00    -0.096 C  
BRANCH   6   7
HETATM    7  C   UNL     1     -10.567   9.297  69.560  1.00  0.00    -0.224 C  
HETATM    8  C   UNL     1     -10.622  10.329  68.458  1.00  0.00    -0.213 C  
HETATM    9  N   UNL     1     -11.079  11.476  69.184  1.00  0.00    -0.246 N  
HETATM   10  C   UNL     1     -11.793  11.039  70.295  1.00  0.00    -0.367 C  
HETATM   11  O   UNL     1     -12.476  11.685  71.071  1.00  0.00    -0.379 OA 
HETATM   12  O   UNL     1     -11.652   9.676  70.419  1.00  0.00    -0.258 OA 
BRANCH   9  13
HETATM   13  C   UNL     1     -10.849  12.817  68.791  1.00  0.00    -0.234 A  
HETATM   14  C   UNL     1     -11.814  13.802  68.995  1.00  0.00    -0.397 A  
HETATM   15  C   UNL     1     -11.573  15.129  68.630  1.00  0.00    -0.338 A  
HETATM   16  C   UNL     1     -10.373  15.547  68.033  1.00  0.00    -0.247 A  
HETATM   17  F   UNL     1     -12.532  16.025  68.921  1.00  0.00    -0.219 F  
HETATM   18  C   UNL     1      -9.632  13.212  68.227  1.00  0.00    -0.218 A  
HETATM   19  C   UNL     1      -9.402  14.552  67.859  1.00  0.00    -0.201 A  
BRANCH  16  20
HETATM   20  N   UNL     1     -10.150  16.836  67.591  1.00  0.00    -0.267 NA 
HETATM   21  C   UNL     1     -10.183  17.990  68.504  1.00  0.00    -0.385 C  
HETATM   22  C   UNL     1      -8.803  18.654  68.573  1.00  0.00    -0.331 C  
HETATM   23  O   UNL     1      -8.354  19.038  67.261  1.00  0.00    -0.271 OA 
HETATM   24  C   UNL     1      -8.238  17.877  66.420  1.00  0.00    -0.255 C  
HETATM   25  C   UNL     1      -9.576  17.126  66.269  1.00  0.00    -0.252 C  
ENDBRANCH  16  20
ENDBRANCH   9  13
ENDBRANCH   6   7
ENDBRANCH   3   6
TORSDOF 4
ENDMDL
MODEL       82
REMARK 921   NORMALIZED FREE ENERGY PREDICTED BY IDOCK:   -5.01 KCAL/MOL
REMARK 922        TOTAL FREE ENERGY PREDICTED BY IDOCK:   -6.58 KCAL/MOL
REMARK 923 INTER-LIGAND FREE ENERGY PREDICTED BY IDOCK:   -6.03 KCAL/MOL
REMARK 924 INTRA-LIGAND FREE ENERGY PREDICTED BY IDOCK:   -0.54 KCAL/MOL
REMARK 927      BINDING AFFINITY PREDICTED BY RF-SCORE:    0.00 PKD
ROOT
HETATM    1  C   UNL     1      -6.901   5.247  74.034  1.00  0.00    -0.077 C  
HETATM    2  C   UNL     1      -7.646   6.531  73.795  1.00  0.00    -0.083 C  
HETATM    3  N   UNL     1      -8.674   6.411  72.890  1.00  0.00    -0.125 N  
HETATM    4  O   UNL     1      -7.371   7.575  74.374  1.00  0.00    -0.114 OA 
HETATM    5  H   UNL     1      -8.880   5.495  72.492  1.00  0.00     0.000 HD 
ENDROOT
BRANCH   3   6
HETATM    6  C   UNL     1      -9.475   7.556  72.484  1.00  0.00    -0.159 C  
BRANCH   6   7
HETATM    7  C   UNL     1      -8.938   8.165  71.198  1.00  0.00    -0.146 C  
HETATM    8  C   UNL     1      -9.947   8.992  70.435  1.00  0.00    -0.203 C  
HETATM    9  N   UNL     1      -9.083   9.890  69.730  1.00  0.00    -0.225 N  
HETATM   10  C   UNL     1      -7.899  10.019  70.449  1.00  0.00     0.082 C  
HETATM   11  O   UNL     1      -6.980  10.802  70.281  1.00  0.00    -0.233 OA 
HETATM   12  O   UNL     1      -7.888   9.102  71.475  1.00  0.00    -0.330 OA 
BRANCH   9  13
HETATM   13  C   UNL     1      -9.421  10.544  68.520  1.00  0.00    -0.164 A  
HETATM   14  C   UNL     1     -10.579  11.314  68.417  1.00  0.00    -0.226 A  
HETATM   15  C   UNL     1     -10.895  11.979  67.231  1.00  0.00    -0.246 A  
HETATM   16  C   UNL     1     -10.093  11.905  66.081  1.00  0.00    -0.228 A  
HETATM   17  F   UNL     1     -11.996  12.751  67.239  1.00  0.00    -0.400 F  
HETATM   18  C   UNL     1      -8.587  10.479  67.399  1.00  0.00    -0.122 A  
HETATM   19  C   UNL     1      -8.918  11.150  66.206  1.00  0.00    -0.202 A  
BRANCH  16  20
HETATM   20  N   UNL     1     -10.433  12.487  64.875  1.00  0.00    -0.294 NA 
HETATM   21  C   UNL     1     -10.988  11.701  63.761  1.00  0.00    -0.422 C  
HETATM   22  C   UNL     1     -12.416  12.160  63.445  1.00  0.00    -0.512 C  
HETATM   23  O   UNL     1     -12.448  13.570  63.160  1.00  0.00    -0.759 OA 
HETATM   24  C   UNL     1     -11.994  14.316  64.302  1.00  0.00    -0.425 C  
HETATM   25  C   UNL     1     -10.554  13.942  64.711  1.00  0.00    -0.426 C  
ENDBRANCH  16  20
ENDBRANCH   9  13
ENDBRANCH   6   7
ENDBRANCH   3   6
TORSDOF 4
ENDMDL
MODEL       83
REMARK 921   NORMALIZED FREE ENERGY PREDICTED BY IDOCK:   -4.99 KCAL/MOL
REMARK 922        TOTAL FREE ENERGY PREDICTED BY IDOCK:   -6.56 KCAL/MOL
REMARK 923 INTER-LIGAND FREE ENERGY PREDICTED BY IDOCK:   -6.40 KCAL/MOL
REMARK 924 INTRA-LIGAND FREE ENERGY PREDICTED BY IDOCK:   -0.16 KCAL/MOL
REMARK 927      BINDING AFFINITY PREDICTED BY RF-SCORE:    0.00 PKD
ROOT
HETATM    1  C   UNL     1     -11.733   9.541  71.341  1.00  0.00    -0.465 C  
HETATM    2  C   UNL     1     -12.428  10.874  71.340  1.00  0.00    -0.355 C  
HETATM    3  N   UNL     1     -11.893  11.774  70.449  1.00  0.00    -0.499 N  
HETATM    4  O   UNL     1     -13.394  11.119  72.053  1.00  0.00    -0.454 OA 
HETATM    5  H   UNL     1     -11.124  11.479  69.847  1.00  0.00     0.000 HD 
ENDROOT
BRANCH   3   6
HETATM    6  C   UNL     1     -12.392  13.137  70.343  1.00  0.00    -0.279 C  
BRANCH   6   7
HETATM    7  C   UNL     1     -11.790  13.842  69.138  1.00  0.00    -0.358 C  
HETATM    8  C   UNL     1     -10.641  14.765  69.471  1.00  0.00    -0.185 C  
HETATM    9  N   UNL     1      -9.919  14.755  68.234  1.00  0.00    -0.217 N  
HETATM   10  C   UNL     1     -10.194  13.561  67.573  1.00  0.00    -0.234 C  
HETATM   11  O   UNL     1      -9.662  13.094  66.581  1.00  0.00    -0.248 OA 
HETATM   12  O   UNL     1     -11.201  12.898  68.233  1.00  0.00    -0.237 OA 
BRANCH   9  13
HETATM   13  C   UNL     1      -9.055  15.790  67.802  1.00  0.00    -0.188 A  
HETATM   14  C   UNL     1      -8.749  16.867  68.632  1.00  0.00    -0.267 A  
HETATM   15  C   UNL     1      -7.876  17.872  68.213  1.00  0.00    -0.285 A  
HETATM   16  C   UNL     1      -7.270  17.872  66.946  1.00  0.00    -0.192 A  
HETATM   17  F   UNL     1      -7.587  18.839  69.101  1.00  0.00    -0.325 F  
HETATM   18  C   UNL     1      -8.441  15.749  66.546  1.00  0.00    -0.335 A  
HETATM   19  C   UNL     1      -7.564  16.770  66.131  1.00  0.00    -0.168 A  
BRANCH  16  20
HETATM   20  N   UNL     1      -6.471  18.899  66.483  1.00  0.00    -0.187 NA 
HETATM   21  C   UNL     1      -5.176  18.645  65.830  1.00  0.00    -0.148 C  
HETATM   22  C   UNL     1      -5.212  19.119  64.372  1.00  0.00    -0.213 C  
HETATM   23  O   UNL     1      -5.573  20.510  64.297  1.00  0.00    -0.190 OA 
HETATM   24  C   UNL     1      -6.883  20.712  64.853  1.00  0.00    -0.109 C  
HETATM   25  C   UNL     1      -6.967  20.274  66.330  1.00  0.00    -0.257 C  
ENDBRANCH  16  20
ENDBRANCH   9  13
ENDBRANCH   6   7
ENDBRANCH   3   6
TORSDOF 4
ENDMDL
MODEL       84
REMARK 921   NORMALIZED FREE ENERGY PREDICTED BY IDOCK:   -4.98 KCAL/MOL
REMARK 922        TOTAL FREE ENERGY PREDICTED BY IDOCK:   -6.54 KCAL/MOL
REMARK 923 INTER-LIGAND FREE ENERGY PREDICTED BY IDOCK:   -6.40 KCAL/MOL
REMARK 924 INTRA-LIGAND FREE ENERGY PREDICTED BY IDOCK:   -0.14 KCAL/MOL
REMARK 927      BINDING AFFINITY PREDICTED BY RF-SCORE:    0.00 PKD
ROOT
HETATM    1  C   UNL     1     -10.785   3.765  62.908  1.00  0.00    -0.175 C  
HETATM    2  C   UNL     1     -10.015   3.932  64.189  1.00  0.00    -0.191 C  
HETATM    3  N   UNL     1     -10.778   4.403  65.231  1.00  0.00    -0.650 N  
HETATM    4  O   UNL     1      -8.827   3.653  64.290  1.00  0.00    -0.103 OA 
HETATM    5  H   UNL     1     -11.775   4.559  65.086  1.00  0.00     0.000 HD 
ENDROOT
BRANCH   3   6
HETATM    6  C   UNL     1     -10.200   4.686  66.537  1.00  0.00    -0.238 C  
BRANCH   6   7
HETATM    7  C   UNL     1      -9.751   6.136  66.629  1.00  0.00    -0.160 C  
HETATM    8  C   UNL     1     -10.837   7.095  67.055  1.00  0.00    -0.312 C  
HETATM    9  N   UNL     1     -10.058   8.139  67.651  1.00  0.00    -0.192 N  
HETATM   10  C   UNL     1      -8.859   7.593  68.097  1.00  0.00    -0.125 C  
HETATM   11  O   UNL     1      -7.998   8.101  68.795  1.00  0.00    -0.111 OA 
HETATM   12  O   UNL     1      -8.752   6.299  67.645  1.00  0.00    -0.114 OA 
BRANCH   9  13
HETATM   13  C   UNL     1     -10.482   9.484  67.775  1.00  0.00    -0.254 A  
HETATM   14  C   UNL     1     -10.969   9.977  68.985  1.00  0.00    -0.249 A  
HETATM   15  C   UNL     1     -11.362  11.311  69.110  1.00  0.00    -0.282 A  
HETATM   16  C   UNL     1     -11.306  12.223  68.044  1.00  0.00    -0.293 A  
HETATM   17  F   UNL     1     -11.758  11.718  70.329  1.00  0.00    -0.370 F  
HETATM   18  C   UNL     1     -10.387  10.379  66.705  1.00  0.00    -0.292 A  
HETATM   19  C   UNL     1     -10.789  11.722  66.841  1.00  0.00    -0.312 A  
BRANCH  16  20
HETATM   20  N   UNL     1     -11.768  13.522  68.127  1.00  0.00    -0.341 NA 
HETATM   21  C   UNL     1     -11.909  14.218  69.417  1.00  0.00    -0.326 C  
HETATM   22  C   UNL     1     -10.963  15.422  69.480  1.00  0.00    -0.275 C  
HETATM   23  O   UNL     1     -11.197  16.314  68.375  1.00  0.00    -0.354 OA 
HETATM   24  C   UNL     1     -10.954  15.634  67.132  1.00  0.00    -0.270 C  
HETATM   25  C   UNL     1     -11.862  14.400  66.952  1.00  0.00    -0.410 C  
ENDBRANCH  16  20
ENDBRANCH   9  13
ENDBRANCH   6   7
ENDBRANCH   3   6
TORSDOF 4
ENDMDL
MODEL       85
REMARK 921   NORMALIZED FREE ENERGY PREDICTED BY IDOCK:   -4.95 KCAL/MOL
REMARK 922        TOTAL FREE ENERGY PREDICTED BY IDOCK:   -6.51 KCAL/MOL
REMARK 923 INTER-LIGAND FREE ENERGY PREDICTED BY IDOCK:   -5.82 KCAL/MOL
REMARK 924 INTRA-LIGAND FREE ENERGY PREDICTED BY IDOCK:   -0.68 KCAL/MOL
REMARK 927      BINDING AFFINITY PREDICTED BY RF-SCORE:    0.00 PKD
ROOT
HETATM    1  C   UNL     1      -7.194   7.119  63.519  1.00  0.00    -0.075 C  
HETATM    2  C   UNL     1      -7.677   8.473  63.078  1.00  0.00    -0.126 C  
HETATM    3  N   UNL     1      -8.977   8.739  63.440  1.00  0.00    -0.363 N  
HETATM    4  O   UNL     1      -6.966   9.266  62.473  1.00  0.00    -0.096 OA 
HETATM    5  H   UNL     1      -9.488   8.052  63.994  1.00  0.00     0.000 HD 
ENDROOT
BRANCH   3   6
HETATM    6  C   UNL     1      -9.642   9.975  63.053  1.00  0.00    -0.056 C  
BRANCH   6   7
HETATM    7  C   UNL     1      -9.680  10.956  64.214  1.00  0.00    -0.294 C  
HETATM    8  C   UNL     1      -9.726  12.407  63.798  1.00  0.00     0.056 C  
HETATM    9  N   UNL     1     -10.374  12.994  64.933  1.00  0.00    -0.325 N  
HETATM   10  C   UNL     1     -11.151  12.019  65.549  1.00  0.00    -0.313 C  
HETATM   11  O   UNL     1     -11.975  12.144  66.439  1.00  0.00    -0.611 OA 
HETATM   12  O   UNL     1     -10.882  10.796  64.981  1.00  0.00    -0.169 OA 
BRANCH   9  13
HETATM   13  C   UNL     1     -10.245  14.351  65.315  1.00  0.00    -0.389 A  
HETATM   14  C   UNL     1      -9.403  14.728  66.360  1.00  0.00    -0.320 A  
HETATM   15  C   UNL     1      -9.258  16.070  66.717  1.00  0.00    -0.240 A  
HETATM   16  C   UNL     1      -9.949  17.107  66.070  1.00  0.00    -0.253 A  
HETATM   17  F   UNL     1      -8.376  16.350  67.692  1.00  0.00    -0.159 F  
HETATM   18  C   UNL     1     -10.922  15.367  64.634  1.00  0.00    -0.333 A  
HETATM   19  C   UNL     1     -10.772  16.717  65.005  1.00  0.00    -0.118 A  
BRANCH  16  20
HETATM   20  N   UNL     1      -9.883  18.429  66.464  1.00  0.00    -0.342 NA 
HETATM   21  C   UNL     1     -10.520  18.906  67.703  1.00  0.00    -0.443 C  
HETATM   22  C   UNL     1      -9.459  19.418  68.685  1.00  0.00    -0.405 C  
HETATM   23  O   UNL     1      -8.656  20.446  68.079  1.00  0.00    -0.151 OA 
HETATM   24  C   UNL     1      -7.969  19.924  66.929  1.00  0.00    -0.306 C  
HETATM   25  C   UNL     1      -8.941  19.383  65.861  1.00  0.00     0.005 C  
ENDBRANCH  16  20
ENDBRANCH   9  13
ENDBRANCH   6   7
ENDBRANCH   3   6
TORSDOF 4
ENDMDL
MODEL       86
REMARK 921   NORMALIZED FREE ENERGY PREDICTED BY IDOCK:   -4.93 KCAL/MOL
REMARK 922        TOTAL FREE ENERGY PREDICTED BY IDOCK:   -6.49 KCAL/MOL
REMARK 923 INTER-LIGAND FREE ENERGY PREDICTED BY IDOCK:   -6.08 KCAL/MOL
REMARK 924 INTRA-LIGAND FREE ENERGY PREDICTED BY IDOCK:   -0.40 KCAL/MOL
REMARK 927      BINDING AFFINITY PREDICTED BY RF-SCORE:    0.00 PKD
ROOT
HETATM    1  C   UNL     1      -9.813   8.174  67.359  1.00  0.00    -0.242 C  
HETATM    2  C   UNL     1     -10.501   9.137  68.287  1.00  0.00    -0.208 C  
HETATM    3  N   UNL     1     -11.308  10.043  67.641  1.00  0.00    -0.395 N  
HETATM    4  O   UNL     1     -10.368   9.096  69.504  1.00  0.00    -0.202 OA 
HETATM    5  H   UNL     1     -11.415   9.979  66.629  1.00  0.00     0.000 HD 
ENDROOT
BRANCH   3   6
HETATM    6  C   UNL     1     -12.014  11.092  68.362  1.00  0.00    -0.141 C  
BRANCH   6   7
HETATM    7  C   UNL     1     -11.769  12.450  67.722  1.00  0.00    -0.350 C  
HETATM    8  C   UNL     1     -10.379  12.998  67.945  1.00  0.00    -0.231 C  
HETATM    9  N   UNL     1     -10.234  13.844  66.798  1.00  0.00    -0.264 N  
HETATM   10  C   UNL     1     -11.059  13.360  65.787  1.00  0.00    -0.282 C  
HETATM   11  O   UNL     1     -11.109  13.690  64.615  1.00  0.00    -0.347 OA 
HETATM   12  O   UNL     1     -11.863  12.366  66.293  1.00  0.00    -0.473 OA 
BRANCH   9  13
HETATM   13  C   UNL     1      -9.366  14.960  66.730  1.00  0.00    -0.250 A  
HETATM   14  C   UNL     1      -9.835  16.215  66.346  1.00  0.00    -0.304 A  
HETATM   15  C   UNL     1      -8.981  17.320  66.306  1.00  0.00    -0.217 A  
HETATM   16  C   UNL     1      -7.617  17.237  66.630  1.00  0.00    -0.258 A  
HETATM   17  F   UNL     1      -9.531  18.504  65.987  1.00  0.00    -0.297 F  
HETATM   18  C   UNL     1      -8.018  14.857  67.088  1.00  0.00    -0.227 A  
HETATM   19  C   UNL     1      -7.164  15.976  67.040  1.00  0.00    -0.249 A  
BRANCH  16  20
HETATM   20  N   UNL     1      -6.741  18.299  66.515  1.00  0.00    -0.194 NA 
HETATM   21  C   UNL     1      -5.574  18.253  65.619  1.00  0.00    -0.199 C  
HETATM   22  C   UNL     1      -5.705  19.310  64.517  1.00  0.00    -0.275 C  
HETATM   23  O   UNL     1      -5.879  20.621  65.085  1.00  0.00    -0.200 OA 
HETATM   24  C   UNL     1      -7.079  20.663  65.874  1.00  0.00    -0.071 C  
HETATM   25  C   UNL     1      -7.058  19.639  67.028  1.00  0.00    -0.208 C  
ENDBRANCH  16  20
ENDBRANCH   9  13
ENDBRANCH   6   7
ENDBRANCH   3   6
TORSDOF 4
ENDMDL
MODEL       87
REMARK 921   NORMALIZED FREE ENERGY PREDICTED BY IDOCK:   -4.93 KCAL/MOL
REMARK 922        TOTAL FREE ENERGY PREDICTED BY IDOCK:   -6.48 KCAL/MOL
REMARK 923 INTER-LIGAND FREE ENERGY PREDICTED BY IDOCK:   -5.82 KCAL/MOL
REMARK 924 INTRA-LIGAND FREE ENERGY PREDICTED BY IDOCK:   -0.66 KCAL/MOL
REMARK 927      BINDING AFFINITY PREDICTED BY RF-SCORE:    0.00 PKD
ROOT
HETATM    1  C   UNL     1      -7.035  10.145  62.828  1.00  0.00    -0.130 C  
HETATM    2  C   UNL     1      -8.519  10.379  62.899  1.00  0.00    -0.182 C  
HETATM    3  N   UNL     1      -8.864  11.522  63.580  1.00  0.00    -0.374 N  
HETATM    4  O   UNL     1      -9.335   9.629  62.377  1.00  0.00    -0.271 OA 
HETATM    5  H   UNL     1      -8.126  12.129  63.937  1.00  0.00     0.000 HD 
ENDROOT
BRANCH   3   6
HETATM    6  C   UNL     1     -10.254  11.890  63.805  1.00  0.00    -0.413 C  
BRANCH   6   7
HETATM    7  C   UNL     1     -10.562  11.964  65.292  1.00  0.00    -0.275 C  
HETATM    8  C   UNL     1     -10.343  10.666  66.035  1.00  0.00    -0.225 C  
HETATM    9  N   UNL     1     -10.075  11.152  67.356  1.00  0.00    -0.182 N  
HETATM   10  C   UNL     1      -9.565  12.443  67.255  1.00  0.00    -0.199 C  
HETATM   11  O   UNL     1      -9.066  13.140  68.122  1.00  0.00    -0.193 OA 
HETATM   12  O   UNL     1      -9.673  12.875  65.954  1.00  0.00    -0.252 OA 
BRANCH   9  13
HETATM   13  C   UNL     1     -10.280  10.406  68.541  1.00  0.00    -0.173 A  
HETATM   14  C   UNL     1      -9.429   9.358  68.889  1.00  0.00    -0.154 A  
HETATM   15  C   UNL     1      -9.618   8.641  70.072  1.00  0.00    -0.170 A  
HETATM   16  C   UNL     1     -10.667   8.913  70.965  1.00  0.00    -0.247 A  
HETATM   17  F   UNL     1      -8.713   7.691  70.361  1.00  0.00    -0.135 F  
HETATM   18  C   UNL     1     -11.315  10.718  69.429  1.00  0.00    -0.351 A  
HETATM   19  C   UNL     1     -11.500   9.986  70.617  1.00  0.00    -0.425 A  
BRANCH  16  20
HETATM   20  N   UNL     1     -10.919   8.161  72.096  1.00  0.00    -0.282 NA 
HETATM   21  C   UNL     1     -12.036   7.204  72.163  1.00  0.00    -0.266 C  
HETATM   22  C   UNL     1     -11.504   5.777  72.334  1.00  0.00    -0.288 C  
HETATM   23  O   UNL     1     -10.663   5.681  73.498  1.00  0.00    -0.250 OA 
HETATM   24  C   UNL     1      -9.529   6.554  73.360  1.00  0.00    -0.140 C  
HETATM   25  C   UNL     1      -9.943   8.030  73.187  1.00  0.00    -0.246 C  
ENDBRANCH  16  20
ENDBRANCH   9  13
ENDBRANCH   6   7
ENDBRANCH   3   6
TORSDOF 4
ENDMDL
MODEL       88
REMARK 921   NORMALIZED FREE ENERGY PREDICTED BY IDOCK:   -4.93 KCAL/MOL
REMARK 922        TOTAL FREE ENERGY PREDICTED BY IDOCK:   -6.48 KCAL/MOL
REMARK 923 INTER-LIGAND FREE ENERGY PREDICTED BY IDOCK:   -6.02 KCAL/MOL
REMARK 924 INTRA-LIGAND FREE ENERGY PREDICTED BY IDOCK:   -0.46 KCAL/MOL
REMARK 927      BINDING AFFINITY PREDICTED BY RF-SCORE:    0.00 PKD
ROOT
HETATM    1  C   UNL     1     -10.258   8.452  72.277  1.00  0.00    -0.396 C  
HETATM    2  C   UNL     1     -11.603   8.819  71.713  1.00  0.00    -0.346 C  
HETATM    3  N   UNL     1     -11.667  10.107  71.238  1.00  0.00    -0.365 N  
HETATM    4  O   UNL     1     -12.539   8.031  71.665  1.00  0.00    -0.306 OA 
HETATM    5  H   UNL     1     -10.828  10.687  71.259  1.00  0.00     0.000 HD 
ENDROOT
BRANCH   3   6
HETATM    6  C   UNL     1     -12.901  10.667  70.706  1.00  0.00    -0.352 C  
BRANCH   6   7
HETATM    7  C   UNL     1     -12.607  11.738  69.667  1.00  0.00     0.205 C  
HETATM    8  C   UNL     1     -11.478  12.669  70.040  1.00  0.00    -0.013 C  
HETATM    9  N   UNL     1     -11.025  13.079  68.745  1.00  0.00    -0.255 N  
HETATM   10  C   UNL     1     -11.350  12.083  67.829  1.00  0.00    -0.303 C  
HETATM   11  O   UNL     1     -11.003  11.968  66.666  1.00  0.00    -0.259 OA 
HETATM   12  O   UNL     1     -12.154  11.149  68.439  1.00  0.00    -0.605 OA 
BRANCH   9  13
HETATM   13  C   UNL     1     -10.339  14.289  68.481  1.00  0.00    -0.244 A  
HETATM   14  C   UNL     1     -10.971  15.350  67.834  1.00  0.00    -0.310 A  
HETATM   15  C   UNL     1     -10.298  16.551  67.600  1.00  0.00    -0.291 A  
HETATM   16  C   UNL     1      -8.964  16.761  67.980  1.00  0.00    -0.217 A  
HETATM   17  F   UNL     1     -11.003  17.543  67.029  1.00  0.00    -0.257 F  
HETATM   18  C   UNL     1      -9.018  14.483  68.899  1.00  0.00    -0.109 A  
HETATM   19  C   UNL     1      -8.348  15.697  68.654  1.00  0.00    -0.177 A  
BRANCH  16  20
HETATM   20  N   UNL     1      -8.258  17.911  67.683  1.00  0.00    -0.230 NA 
HETATM   21  C   UNL     1      -7.045  17.887  66.849  1.00  0.00    -0.183 C  
HETATM   22  C   UNL     1      -7.272  18.677  65.555  1.00  0.00    -0.021 C  
HETATM   23  O   UNL     1      -7.681  20.026  65.846  1.00  0.00    -0.333 OA 
HETATM   24  C   UNL     1      -8.920  20.020  66.575  1.00  0.00    -0.344 C  
HETATM   25  C   UNL     1      -8.811  19.254  67.910  1.00  0.00    -0.312 C  
ENDBRANCH  16  20
ENDBRANCH   9  13
ENDBRANCH   6   7
ENDBRANCH   3   6
TORSDOF 4
ENDMDL
MODEL       89
REMARK 921   NORMALIZED FREE ENERGY PREDICTED BY IDOCK:   -4.92 KCAL/MOL
REMARK 922        TOTAL FREE ENERGY PREDICTED BY IDOCK:   -6.47 KCAL/MOL
REMARK 923 INTER-LIGAND FREE ENERGY PREDICTED BY IDOCK:   -6.16 KCAL/MOL
REMARK 924 INTRA-LIGAND FREE ENERGY PREDICTED BY IDOCK:   -0.31 KCAL/MOL
REMARK 927      BINDING AFFINITY PREDICTED BY RF-SCORE:    0.00 PKD
ROOT
HETATM    1  C   UNL     1      -8.966   9.340  62.551  1.00  0.00    -0.186 C  
HETATM    2  C   UNL     1      -9.513  10.707  62.855  1.00  0.00    -0.343 C  
HETATM    3  N   UNL     1     -10.693  10.684  63.560  1.00  0.00    -0.372 N  
HETATM    4  O   UNL     1      -8.943  11.739  62.521  1.00  0.00    -0.218 OA 
HETATM    5  H   UNL     1     -11.078   9.787  63.854  1.00  0.00     0.000 HD 
ENDROOT
BRANCH   3   6
HETATM    6  C   UNL     1     -11.407  11.906  63.898  1.00  0.00    -0.428 C  
BRANCH   6   7
HETATM    7  C   UNL     1     -10.866  12.513  65.183  1.00  0.00    -0.288 C  
HETATM    8  C   UNL     1     -10.073  13.783  64.983  1.00  0.00    -0.283 C  
HETATM    9  N   UNL     1     -10.257  14.420  66.252  1.00  0.00    -0.289 N  
HETATM   10  C   UNL     1     -11.449  13.963  66.806  1.00  0.00    -0.352 C  
HETATM   11  O   UNL     1     -12.045  14.372  67.788  1.00  0.00    -0.356 OA 
HETATM   12  O   UNL     1     -11.936  12.927  66.045  1.00  0.00    -0.410 OA 
BRANCH   9  13
HETATM   13  C   UNL     1      -9.369  15.374  66.806  1.00  0.00    -0.246 A  
HETATM   14  C   UNL     1      -8.561  16.165  65.991  1.00  0.00    -0.231 A  
HETATM   15  C   UNL     1      -7.706  17.123  66.540  1.00  0.00    -0.286 A  
HETATM   16  C   UNL     1      -7.596  17.338  67.923  1.00  0.00    -0.188 A  
HETATM   17  F   UNL     1      -7.011  17.885  65.679  1.00  0.00    -0.309 F  
HETATM   18  C   UNL     1      -9.302  15.590  68.187  1.00  0.00    -0.197 A  
HETATM   19  C   UNL     1      -8.433  16.556  68.730  1.00  0.00    -0.248 A  
BRANCH  16  20
HETATM   20  N   UNL     1      -6.696  18.222  68.487  1.00  0.00    -0.229 NA 
HETATM   21  C   UNL     1      -6.990  19.659  68.614  1.00  0.00    -0.326 C  
HETATM   22  C   UNL     1      -7.053  20.061  70.092  1.00  0.00     0.183 C  
HETATM   23  O   UNL     1      -5.830  19.715  70.768  1.00  0.00    -0.247 OA 
HETATM   24  C   UNL     1      -5.621  18.294  70.713  1.00  0.00    -0.113 C  
HETATM   25  C   UNL     1      -5.532  17.770  69.264  1.00  0.00    -0.195 C  
ENDBRANCH  16  20
ENDBRANCH   9  13
ENDBRANCH   6   7
ENDBRANCH   3   6
TORSDOF 4
ENDMDL
MODEL       90
REMARK 921   NORMALIZED FREE ENERGY PREDICTED BY IDOCK:   -4.92 KCAL/MOL
REMARK 922        TOTAL FREE ENERGY PREDICTED BY IDOCK:   -6.46 KCAL/MOL
REMARK 923 INTER-LIGAND FREE ENERGY PREDICTED BY IDOCK:   -5.81 KCAL/MOL
REMARK 924 INTRA-LIGAND FREE ENERGY PREDICTED BY IDOCK:   -0.65 KCAL/MOL
REMARK 927      BINDING AFFINITY PREDICTED BY RF-SCORE:    0.00 PKD
ROOT
HETATM    1  C   UNL     1      -8.186   4.557  66.125  1.00  0.00    -0.106 C  
HETATM    2  C   UNL     1      -9.356   5.187  66.830  1.00  0.00    -0.128 C  
HETATM    3  N   UNL     1      -9.702   6.420  66.328  1.00  0.00    -0.363 N  
HETATM    4  O   UNL     1      -9.952   4.637  67.748  1.00  0.00    -0.152 OA 
HETATM    5  H   UNL     1      -9.195   6.788  65.524  1.00  0.00     0.000 HD 
ENDROOT
BRANCH   3   6
HETATM    6  C   UNL     1     -10.772   7.213  66.915  1.00  0.00    -0.293 C  
BRANCH   6   7
HETATM    7  C   UNL     1     -10.233   8.521  67.474  1.00  0.00    -0.242 C  
HETATM    8  C   UNL     1     -10.830   9.756  66.842  1.00  0.00    -0.050 C  
HETATM    9  N   UNL     1     -10.674  10.705  67.903  1.00  0.00    -0.227 N  
HETATM   10  C   UNL     1     -10.640  10.014  69.111  1.00  0.00    -0.218 C  
HETATM   11  O   UNL     1     -10.681  10.454  70.247  1.00  0.00    -0.282 OA 
HETATM   12  O   UNL     1     -10.574   8.664  68.860  1.00  0.00    -0.209 OA 
BRANCH   9  13
HETATM   13  C   UNL     1     -10.600  12.107  67.720  1.00  0.00    -0.204 A  
HETATM   14  C   UNL     1      -9.433  12.812  68.014  1.00  0.00    -0.213 A  
HETATM   15  C   UNL     1      -9.356  14.190  67.807  1.00  0.00    -0.200 A  
HETATM   16  C   UNL     1     -10.431  14.946  67.313  1.00  0.00    -0.263 A  
HETATM   17  F   UNL     1      -8.173  14.779  68.055  1.00  0.00    -0.125 F  
HETATM   18  C   UNL     1     -11.676  12.831  67.197  1.00  0.00    -0.443 A  
HETATM   19  C   UNL     1     -11.589  14.222  66.996  1.00  0.00    -0.406 A  
BRANCH  16  20
HETATM   20  N   UNL     1     -10.399  16.321  67.181  1.00  0.00    -0.282 NA 
HETATM   21  C   UNL     1     -10.775  17.218  68.286  1.00  0.00    -0.349 C  
HETATM   22  C   UNL     1      -9.570  18.057  68.724  1.00  0.00    -0.301 C  
HETATM   23  O   UNL     1      -9.028  18.793  67.613  1.00  0.00    -0.276 OA 
HETATM   24  C   UNL     1      -8.579  17.886  66.592  1.00  0.00    -0.262 C  
HETATM   25  C   UNL     1      -9.716  16.988  66.063  1.00  0.00    -0.218 C  
ENDBRANCH  16  20
ENDBRANCH   9  13
ENDBRANCH   6   7
ENDBRANCH   3   6
TORSDOF 4
ENDMDL
MODEL       91
REMARK 921   NORMALIZED FREE ENERGY PREDICTED BY IDOCK:   -4.91 KCAL/MOL
REMARK 922        TOTAL FREE ENERGY PREDICTED BY IDOCK:   -6.46 KCAL/MOL
REMARK 923 INTER-LIGAND FREE ENERGY PREDICTED BY IDOCK:   -5.83 KCAL/MOL
REMARK 924 INTRA-LIGAND FREE ENERGY PREDICTED BY IDOCK:   -0.63 KCAL/MOL
REMARK 927      BINDING AFFINITY PREDICTED BY RF-SCORE:    0.00 PKD
ROOT
HETATM    1  C   UNL     1     -11.334   4.945  73.108  1.00  0.00    -0.395 C  
HETATM    2  C   UNL     1     -10.122   4.541  72.315  1.00  0.00    -0.191 C  
HETATM    3  N   UNL     1     -10.220   4.832  70.974  1.00  0.00    -0.200 N  
HETATM    4  O   UNL     1      -9.137   4.023  72.826  1.00  0.00    -0.104 OA 
HETATM    5  H   UNL     1     -11.048   5.318  70.631  1.00  0.00     0.000 HD 
ENDROOT
BRANCH   3   6
HETATM    6  C   UNL     1      -9.173   4.465  70.032  1.00  0.00    -0.131 C  
BRANCH   6   7
HETATM    7  C   UNL     1      -8.682   5.683  69.266  1.00  0.00    -0.108 C  
HETATM    8  C   UNL     1      -9.787   6.551  68.709  1.00  0.00    -0.140 C  
HETATM    9  N   UNL     1      -9.128   7.821  68.648  1.00  0.00    -0.136 N  
HETATM   10  C   UNL     1      -8.112   7.837  69.598  1.00  0.00    -0.122 C  
HETATM   11  O   UNL     1      -7.430   8.774  69.976  1.00  0.00    -0.050 OA 
HETATM   12  O   UNL     1      -7.966   6.577  70.129  1.00  0.00    -0.108 OA 
BRANCH   9  13
HETATM   13  C   UNL     1      -9.495   8.873  67.773  1.00  0.00    -0.141 A  
HETATM   14  C   UNL     1      -8.735   9.166  66.642  1.00  0.00    -0.140 A  
HETATM   15  C   UNL     1      -9.116  10.187  65.767  1.00  0.00    -0.171 A  
HETATM   16  C   UNL     1     -10.257  10.978  65.973  1.00  0.00    -0.252 A  
HETATM   17  F   UNL     1      -8.362  10.360  64.667  1.00  0.00    -0.159 F  
HETATM   18  C   UNL     1     -10.654   9.625  67.986  1.00  0.00    -0.292 A  
HETATM   19  C   UNL     1     -11.026  10.655  67.100  1.00  0.00    -0.312 A  
BRANCH  16  20
HETATM   20  N   UNL     1     -10.601  12.044  65.166  1.00  0.00    -0.277 NA 
HETATM   21  C   UNL     1     -10.962  11.864  63.750  1.00  0.00    -0.425 C  
HETATM   22  C   UNL     1     -12.420  12.278  63.515  1.00  0.00    -0.534 C  
HETATM   23  O   UNL     1     -12.641  13.634  63.944  1.00  0.00    -0.687 OA 
HETATM   24  C   UNL     1     -12.375  13.756  65.351  1.00  0.00    -0.475 C  
HETATM   25  C   UNL     1     -10.925  13.371  65.710  1.00  0.00    -0.277 C  
ENDBRANCH  16  20
ENDBRANCH   9  13
ENDBRANCH   6   7
ENDBRANCH   3   6
TORSDOF 4
ENDMDL
MODEL       92
REMARK 921   NORMALIZED FREE ENERGY PREDICTED BY IDOCK:   -4.87 KCAL/MOL
REMARK 922        TOTAL FREE ENERGY PREDICTED BY IDOCK:   -6.41 KCAL/MOL
REMARK 923 INTER-LIGAND FREE ENERGY PREDICTED BY IDOCK:   -5.75 KCAL/MOL
REMARK 924 INTRA-LIGAND FREE ENERGY PREDICTED BY IDOCK:   -0.66 KCAL/MOL
REMARK 927      BINDING AFFINITY PREDICTED BY RF-SCORE:    0.00 PKD
ROOT
HETATM    1  C   UNL     1     -10.203  17.930  66.629  1.00  0.00    -0.371 C  
HETATM    2  C   UNL     1     -10.585  16.667  65.907  1.00  0.00    -0.249 C  
HETATM    3  N   UNL     1     -10.762  15.589  66.741  1.00  0.00    -0.306 N  
HETATM    4  O   UNL     1     -10.743  16.618  64.694  1.00  0.00    -0.742 OA 
HETATM    5  H   UNL     1     -10.670  15.720  67.749  1.00  0.00     0.000 HD 
ENDROOT
BRANCH   3   6
HETATM    6  C   UNL     1     -11.078  14.264  66.226  1.00  0.00    -0.323 C  
BRANCH   6   7
HETATM    7  C   UNL     1     -10.139  13.219  66.805  1.00  0.00    -0.258 C  
HETATM    8  C   UNL     1     -10.821  12.185  67.671  1.00  0.00    -0.233 C  
HETATM    9  N   UNL     1      -9.924  11.078  67.528  1.00  0.00    -0.172 N  
HETATM   10  C   UNL     1      -9.258  11.204  66.312  1.00  0.00    -0.195 C  
HETATM   11  O   UNL     1      -8.540  10.400  65.744  1.00  0.00    -0.152 OA 
HETATM   12  O   UNL     1      -9.543  12.433  65.764  1.00  0.00    -0.236 OA 
BRANCH   9  13
HETATM   13  C   UNL     1      -9.785  10.031  68.471  1.00  0.00    -0.155 A  
HETATM   14  C   UNL     1     -10.579   8.888  68.400  1.00  0.00    -0.190 A  
HETATM   15  C   UNL     1     -10.421   7.846  69.317  1.00  0.00    -0.216 A  
HETATM   16  C   UNL     1      -9.481   7.887  70.359  1.00  0.00    -0.163 A  
HETATM   17  F   UNL     1     -11.183   6.753  69.135  1.00  0.00    -0.268 F  
HETATM   18  C   UNL     1      -8.819  10.085  69.481  1.00  0.00    -0.209 A  
HETATM   19  C   UNL     1      -8.671   9.030  70.403  1.00  0.00    -0.224 A  
BRANCH  16  20
HETATM   20  N   UNL     1      -9.369   6.905  71.323  1.00  0.00    -0.164 NA 
HETATM   21  C   UNL     1     -10.256   6.860  72.497  1.00  0.00    -0.183 C  
HETATM   22  C   UNL     1     -11.108   5.586  72.474  1.00  0.00    -0.270 C  
HETATM   23  O   UNL     1     -10.274   4.415  72.402  1.00  0.00    -0.181 OA 
HETATM   24  C   UNL     1      -9.492   4.439  71.196  1.00  0.00    -0.160 C  
HETATM   25  C   UNL     1      -8.581   5.681  71.112  1.00  0.00    -0.127 C  
ENDBRANCH  16  20
ENDBRANCH   9  13
ENDBRANCH   6   7
ENDBRANCH   3   6
TORSDOF 4
ENDMDL
MODEL       93
REMARK 921   NORMALIZED FREE ENERGY PREDICTED BY IDOCK:   -4.86 KCAL/MOL
REMARK 922        TOTAL FREE ENERGY PREDICTED BY IDOCK:   -6.40 KCAL/MOL
REMARK 923 INTER-LIGAND FREE ENERGY PREDICTED BY IDOCK:   -5.76 KCAL/MOL
REMARK 924 INTRA-LIGAND FREE ENERGY PREDICTED BY IDOCK:   -0.64 KCAL/MOL
REMARK 927      BINDING AFFINITY PREDICTED BY RF-SCORE:    0.00 PKD
ROOT
HETATM    1  C   UNL     1      -9.180   3.775  69.461  1.00  0.00    -0.226 C  
HETATM    2  C   UNL     1      -9.362   5.078  70.190  1.00  0.00    -0.157 C  
HETATM    3  N   UNL     1     -10.614   5.624  70.036  1.00  0.00    -0.301 N  
HETATM    4  O   UNL     1      -8.480   5.585  70.872  1.00  0.00    -0.119 OA 
HETATM    5  H   UNL     1     -11.316   5.114  69.500  1.00  0.00     0.000 HD 
ENDROOT
BRANCH   3   6
HETATM    6  C   UNL     1     -10.965   6.911  70.618  1.00  0.00    -0.264 C  
BRANCH   6   7
HETATM    7  C   UNL     1     -11.282   7.928  69.533  1.00  0.00     0.136 C  
HETATM    8  C   UNL     1     -10.655   9.285  69.754  1.00  0.00    -0.231 C  
HETATM    9  N   UNL     1     -10.562   9.763  68.406  1.00  0.00    -0.218 N  
HETATM   10  C   UNL     1     -10.497   8.665  67.554  1.00  0.00    -0.266 C  
HETATM   11  O   UNL     1     -10.251   8.635  66.360  1.00  0.00    -0.282 OA 
HETATM   12  O   UNL     1     -10.737   7.517  68.271  1.00  0.00    -0.167 OA 
BRANCH   9  13
HETATM   13  C   UNL     1     -10.515  11.130  68.042  1.00  0.00    -0.188 A  
HETATM   14  C   UNL     1     -11.616  11.758  67.461  1.00  0.00    -0.361 A  
HETATM   15  C   UNL     1     -11.575  13.114  67.128  1.00  0.00    -0.361 A  
HETATM   16  C   UNL     1     -10.441  13.914  67.338  1.00  0.00    -0.263 A  
HETATM   17  F   UNL     1     -12.702  13.654  66.631  1.00  0.00    -0.369 F  
HETATM   18  C   UNL     1      -9.383  11.912  68.292  1.00  0.00    -0.193 A  
HETATM   19  C   UNL     1      -9.352  13.277  67.948  1.00  0.00    -0.214 A  
BRANCH  16  20
HETATM   20  N   UNL     1     -10.354  15.234  66.939  1.00  0.00    -0.272 NA 
HETATM   21  C   UNL     1     -10.718  16.345  67.834  1.00  0.00    -0.332 C  
HETATM   22  C   UNL     1      -9.490  17.213  68.133  1.00  0.00    -0.269 C  
HETATM   23  O   UNL     1      -8.898  17.695  66.913  1.00  0.00    -0.232 OA 
HETATM   24  C   UNL     1      -8.463  16.589  66.104  1.00  0.00    -0.285 C  
HETATM   25  C   UNL     1      -9.623  15.644  65.731  1.00  0.00    -0.326 C  
ENDBRANCH  16  20
ENDBRANCH   9  13
ENDBRANCH   6   7
ENDBRANCH   3   6
TORSDOF 4
ENDMDL
MODEL       94
REMARK 921   NORMALIZED FREE ENERGY PREDICTED BY IDOCK:   -4.85 KCAL/MOL
REMARK 922        TOTAL FREE ENERGY PREDICTED BY IDOCK:   -6.38 KCAL/MOL
REMARK 923 INTER-LIGAND FREE ENERGY PREDICTED BY IDOCK:   -5.68 KCAL/MOL
REMARK 924 INTRA-LIGAND FREE ENERGY PREDICTED BY IDOCK:   -0.70 KCAL/MOL
REMARK 927      BINDING AFFINITY PREDICTED BY RF-SCORE:    0.00 PKD
ROOT
HETATM    1  C   UNL     1     -13.678  13.637  72.464  1.00  0.00    -0.663 C  
HETATM    2  C   UNL     1     -13.541  14.618  71.332  1.00  0.00    -0.404 C  
HETATM    3  N   UNL     1     -12.390  14.454  70.598  1.00  0.00    -0.328 N  
HETATM    4  O   UNL     1     -14.390  15.464  71.081  1.00  0.00    -0.490 OA 
HETATM    5  H   UNL     1     -11.758  13.688  70.831  1.00  0.00     0.000 HD 
ENDROOT
BRANCH   3   6
HETATM    6  C   UNL     1     -12.050  15.343  69.497  1.00  0.00    -0.305 C  
BRANCH   6   7
HETATM    7  C   UNL     1     -10.987  14.721  68.606  1.00  0.00    -0.255 C  
HETATM    8  C   UNL     1     -11.067  13.216  68.504  1.00  0.00    -0.266 C  
HETATM    9  N   UNL     1     -10.464  12.999  67.223  1.00  0.00    -0.238 N  
HETATM   10  C   UNL     1     -10.633  14.147  66.456  1.00  0.00    -0.282 C  
HETATM   11  O   UNL     1     -10.412  14.317  65.269  1.00  0.00    -0.340 OA 
HETATM   12  O   UNL     1     -11.142  15.151  67.247  1.00  0.00    -0.321 OA 
BRANCH   9  13
HETATM   13  C   UNL     1      -9.835  11.793  66.827  1.00  0.00    -0.198 A  
HETATM   14  C   UNL     1      -8.456  11.729  66.637  1.00  0.00    -0.153 A  
HETATM   15  C   UNL     1      -7.836  10.532  66.273  1.00  0.00    -0.141 A  
HETATM   16  C   UNL     1      -8.549   9.341  66.064  1.00  0.00    -0.144 A  
HETATM   17  F   UNL     1      -6.496  10.544  66.173  1.00  0.00    -0.087 F  
HETATM   18  C   UNL     1     -10.566  10.613  66.656  1.00  0.00    -0.276 A  
HETATM   19  C   UNL     1      -9.932   9.412  66.285  1.00  0.00    -0.353 A  
BRANCH  16  20
HETATM   20  N   UNL     1      -7.965   8.169  65.622  1.00  0.00    -0.102 NA 
HETATM   21  C   UNL     1      -7.717   7.912  64.194  1.00  0.00    -0.132 C  
HETATM   22  C   UNL     1      -6.212   7.797  63.926  1.00  0.00    -0.057 C  
HETATM   23  O   UNL     1      -5.623   6.776  64.752  1.00  0.00    -0.029 OA 
HETATM   24  C   UNL     1      -5.794   7.105  66.141  1.00  0.00    -0.035 C  
HETATM   25  C   UNL     1      -7.280   7.240  66.533  1.00  0.00    -0.079 C  
ENDBRANCH  16  20
ENDBRANCH   9  13
ENDBRANCH   6   7
ENDBRANCH   3   6
TORSDOF 4
ENDMDL
MODEL       95
REMARK 921   NORMALIZED FREE ENERGY PREDICTED BY IDOCK:   -4.83 KCAL/MOL
REMARK 922        TOTAL FREE ENERGY PREDICTED BY IDOCK:   -6.35 KCAL/MOL
REMARK 923 INTER-LIGAND FREE ENERGY PREDICTED BY IDOCK:   -5.75 KCAL/MOL
REMARK 924 INTRA-LIGAND FREE ENERGY PREDICTED BY IDOCK:   -0.60 KCAL/MOL
REMARK 927      BINDING AFFINITY PREDICTED BY RF-SCORE:    0.00 PKD
ROOT
HETATM    1  C   UNL     1      -9.471   1.899  64.275  1.00  0.00    -0.134 C  
HETATM    2  C   UNL     1      -9.134   2.802  65.429  1.00  0.00    -0.145 C  
HETATM    3  N   UNL     1     -10.166   3.631  65.800  1.00  0.00    -0.391 N  
HETATM    4  O   UNL     1      -8.048   2.778  65.995  1.00  0.00    -0.081 OA 
HETATM    5  H   UNL     1     -11.063   3.553  65.319  1.00  0.00     0.000 HD 
ENDROOT
BRANCH   3   6
HETATM    6  C   UNL     1     -10.015   4.618  66.859  1.00  0.00    -0.211 C  
BRANCH   6   7
HETATM    7  C   UNL     1      -9.645   5.976  66.285  1.00  0.00    -0.102 C  
HETATM    8  C   UNL     1     -10.458   7.124  66.837  1.00  0.00    -0.294 C  
HETATM    9  N   UNL     1      -9.544   8.213  66.661  1.00  0.00    -0.211 N  
HETATM   10  C   UNL     1      -8.249   7.704  66.660  1.00  0.00    -0.124 C  
HETATM   11  O   UNL     1      -7.189   8.306  66.699  1.00  0.00    -0.078 OA 
HETATM   12  O   UNL     1      -8.299   6.330  66.634  1.00  0.00    -0.109 OA 
BRANCH   9  13
HETATM   13  C   UNL     1      -9.928   9.570  66.542  1.00  0.00    -0.261 A  
HETATM   14  C   UNL     1     -10.116  10.158  65.292  1.00  0.00    -0.344 A  
HETATM   15  C   UNL     1     -10.521  11.490  65.179  1.00  0.00    -0.286 A  
HETATM   16  C   UNL     1     -10.747  12.312  66.294  1.00  0.00    -0.259 A  
HETATM   17  F   UNL     1     -10.741  11.957  63.937  1.00  0.00    -0.301 F  
HETATM   18  C   UNL     1     -10.176  10.359  67.670  1.00  0.00    -0.240 A  
HETATM   19  C   UNL     1     -10.580  11.702  67.544  1.00  0.00    -0.245 A  
BRANCH  16  20
HETATM   20  N   UNL     1     -11.066  13.653  66.200  1.00  0.00    -0.294 NA 
HETATM   21  C   UNL     1     -12.147  14.255  66.998  1.00  0.00    -0.390 C  
HETATM   22  C   UNL     1     -11.578  15.303  67.961  1.00  0.00    -0.312 C  
HETATM   23  O   UNL     1     -10.835  16.306  67.245  1.00  0.00    -0.302 OA 
HETATM   24  C   UNL     1      -9.728  15.702  66.556  1.00  0.00    -0.266 C  
HETATM   25  C   UNL     1     -10.181  14.628  65.545  1.00  0.00    -0.370 C  
ENDBRANCH  16  20
ENDBRANCH   9  13
ENDBRANCH   6   7
ENDBRANCH   3   6
TORSDOF 4
ENDMDL
MODEL       96
REMARK 921   NORMALIZED FREE ENERGY PREDICTED BY IDOCK:   -4.82 KCAL/MOL
REMARK 922        TOTAL FREE ENERGY PREDICTED BY IDOCK:   -6.34 KCAL/MOL
REMARK 923 INTER-LIGAND FREE ENERGY PREDICTED BY IDOCK:   -5.69 KCAL/MOL
REMARK 924 INTRA-LIGAND FREE ENERGY PREDICTED BY IDOCK:   -0.65 KCAL/MOL
REMARK 927      BINDING AFFINITY PREDICTED BY RF-SCORE:    0.00 PKD
ROOT
HETATM    1  C   UNL     1      -6.950   7.123  63.258  1.00  0.00    -0.058 C  
HETATM    2  C   UNL     1      -8.015   8.111  63.646  1.00  0.00    -0.140 C  
HETATM    3  N   UNL     1      -8.290   8.123  64.993  1.00  0.00    -0.228 N  
HETATM    4  O   UNL     1      -8.564   8.847  62.835  1.00  0.00    -0.202 OA 
HETATM    5  H   UNL     1      -7.751   7.522  65.616  1.00  0.00     0.000 HD 
ENDROOT
BRANCH   3   6
HETATM    6  C   UNL     1      -9.332   8.971  65.555  1.00  0.00    -0.187 C  
BRANCH   6   7
HETATM    7  C   UNL     1      -8.773  10.332  65.942  1.00  0.00    -0.156 C  
HETATM    8  C   UNL     1      -9.813  11.424  66.034  1.00  0.00    -0.223 C  
HETATM    9  N   UNL     1      -9.189  12.312  66.970  1.00  0.00    -0.198 N  
HETATM   10  C   UNL     1      -8.320  11.573  67.766  1.00  0.00    -0.136 C  
HETATM   11  O   UNL     1      -7.725  11.915  68.774  1.00  0.00    -0.127 OA 
HETATM   12  O   UNL     1      -8.214  10.298  67.262  1.00  0.00    -0.120 OA 
BRANCH   9  13
HETATM   13  C   UNL     1      -9.458  13.699  67.060  1.00  0.00    -0.252 A  
HETATM   14  C   UNL     1      -8.455  14.643  66.846  1.00  0.00    -0.203 A  
HETATM   15  C   UNL     1      -8.731  16.011  66.910  1.00  0.00    -0.229 A  
HETATM   16  C   UNL     1     -10.008  16.515  67.202  1.00  0.00    -0.266 A  
HETATM   17  F   UNL     1      -7.720  16.850  66.627  1.00  0.00    -0.195 F  
HETATM   18  C   UNL     1     -10.747  14.175  67.322  1.00  0.00    -0.279 A  
HETATM   19  C   UNL     1     -11.013  15.556  67.388  1.00  0.00    -0.306 A  
BRANCH  16  20
HETATM   20  N   UNL     1     -10.281  17.861  67.351  1.00  0.00    -0.344 NA 
HETATM   21  C   UNL     1     -10.032  18.571  68.617  1.00  0.00    -0.383 C  
HETATM   22  C   UNL     1      -8.962  19.651  68.422  1.00  0.00    -0.319 C  
HETATM   23  O   UNL     1      -9.342  20.563  67.376  1.00  0.00    -0.388 OA 
HETATM   24  C   UNL     1      -9.481  19.857  66.131  1.00  0.00    -0.377 C  
HETATM   25  C   UNL     1     -10.545  18.742  66.205  1.00  0.00    -0.377 C  
ENDBRANCH  16  20
ENDBRANCH   9  13
ENDBRANCH   6   7
ENDBRANCH   3   6
TORSDOF 4
ENDMDL
MODEL       97
REMARK 921   NORMALIZED FREE ENERGY PREDICTED BY IDOCK:   -4.81 KCAL/MOL
REMARK 922        TOTAL FREE ENERGY PREDICTED BY IDOCK:   -6.34 KCAL/MOL
REMARK 923 INTER-LIGAND FREE ENERGY PREDICTED BY IDOCK:   -5.69 KCAL/MOL
REMARK 924 INTRA-LIGAND FREE ENERGY PREDICTED BY IDOCK:   -0.65 KCAL/MOL
REMARK 927      BINDING AFFINITY PREDICTED BY RF-SCORE:    0.00 PKD
ROOT
HETATM    1  C   UNL     1     -11.358   5.495  72.895  1.00  0.00    -0.348 C  
HETATM    2  C   UNL     1     -10.604   5.393  71.598  1.00  0.00    -0.218 C  
HETATM    3  N   UNL     1     -10.602   6.559  70.870  1.00  0.00    -0.223 N  
HETATM    4  O   UNL     1     -10.031   4.371  71.243  1.00  0.00    -0.187 OA 
HETATM    5  H   UNL     1     -11.052   7.388  71.258  1.00  0.00     0.000 HD 
ENDROOT
BRANCH   3   6
HETATM    6  C   UNL     1      -9.974   6.643  69.559  1.00  0.00    -0.163 C  
BRANCH   6   7
HETATM    7  C   UNL     1     -10.409   7.903  68.829  1.00  0.00    -0.203 C  
HETATM    8  C   UNL     1      -9.606   9.133  69.183  1.00  0.00    -0.161 C  
HETATM    9  N   UNL     1      -9.761   9.910  67.989  1.00  0.00    -0.139 N  
HETATM   10  C   UNL     1     -10.004   9.043  66.928  1.00  0.00    -0.246 C  
HETATM   11  O   UNL     1     -10.032   9.283  65.733  1.00  0.00    -0.299 OA 
HETATM   12  O   UNL     1     -10.204   7.773  67.415  1.00  0.00    -0.202 OA 
BRANCH   9  13
HETATM   13  C   UNL     1      -9.648  11.320  67.931  1.00  0.00    -0.178 A  
HETATM   14  C   UNL     1     -10.770  12.125  67.744  1.00  0.00    -0.241 A  
HETATM   15  C   UNL     1     -10.658  13.517  67.714  1.00  0.00    -0.246 A  
HETATM   16  C   UNL     1      -9.431  14.183  67.852  1.00  0.00    -0.211 A  
HETATM   17  F   UNL     1     -11.799  14.218  67.595  1.00  0.00    -0.342 F  
HETATM   18  C   UNL     1      -8.416  11.960  68.102  1.00  0.00    -0.163 A  
HETATM   19  C   UNL     1      -8.314  13.364  68.066  1.00  0.00    -0.165 A  
BRANCH  16  20
HETATM   20  N   UNL     1      -9.290  15.553  67.741  1.00  0.00    -0.195 NA 
HETATM   21  C   UNL     1      -9.112  16.215  66.438  1.00  0.00    -0.304 C  
HETATM   22  C   UNL     1     -10.298  17.140  66.144  1.00  0.00    -0.322 C  
HETATM   23  O   UNL     1     -10.470  18.102  67.201  1.00  0.00    -0.371 OA 
HETATM   24  C   UNL     1     -10.740  17.428  68.442  1.00  0.00    -0.301 C  
HETATM   25  C   UNL     1      -9.603  16.468  68.848  1.00  0.00    -0.261 C  
ENDBRANCH  16  20
ENDBRANCH   9  13
ENDBRANCH   6   7
ENDBRANCH   3   6
TORSDOF 4
ENDMDL
MODEL       98
REMARK 921   NORMALIZED FREE ENERGY PREDICTED BY IDOCK:   -4.76 KCAL/MOL
REMARK 922        TOTAL FREE ENERGY PREDICTED BY IDOCK:   -6.27 KCAL/MOL
REMARK 923 INTER-LIGAND FREE ENERGY PREDICTED BY IDOCK:   -6.48 KCAL/MOL
REMARK 924 INTRA-LIGAND FREE ENERGY PREDICTED BY IDOCK:    0.21 KCAL/MOL
REMARK 927      BINDING AFFINITY PREDICTED BY RF-SCORE:    0.00 PKD
ROOT
HETATM    1  C   UNL     1      -9.932  19.853  66.395  1.00  0.00    -0.593 C  
HETATM    2  C   UNL     1     -10.455  18.460  66.609  1.00  0.00    -0.385 C  
HETATM    3  N   UNL     1     -10.365  17.661  65.494  1.00  0.00    -0.116 N  
HETATM    4  O   UNL     1     -10.897  18.075  67.684  1.00  0.00    -0.390 OA 
HETATM    5  H   UNL     1      -9.931  18.034  64.650  1.00  0.00     0.000 HD 
ENDROOT
BRANCH   3   6
HETATM    6  C   UNL     1     -10.872  16.296  65.486  1.00  0.00    -0.245 C  
BRANCH   6   7
HETATM    7  C   UNL     1     -10.282  15.491  66.633  1.00  0.00    -0.276 C  
HETATM    8  C   UNL     1     -10.860  14.103  66.777  1.00  0.00    -0.296 C  
HETATM    9  N   UNL     1      -9.771  13.421  67.410  1.00  0.00    -0.217 N  
HETATM   10  C   UNL     1      -8.588  14.073  67.074  1.00  0.00    -0.174 C  
HETATM   11  O   UNL     1      -7.437  13.723  67.270  1.00  0.00    -0.150 OA 
HETATM   12  O   UNL     1      -8.885  15.245  66.419  1.00  0.00    -0.290 OA 
BRANCH   9  13
HETATM   13  C   UNL     1      -9.908  12.263  68.212  1.00  0.00    -0.217 A  
HETATM   14  C   UNL     1      -8.827  11.413  68.442  1.00  0.00    -0.167 A  
HETATM   15  C   UNL     1      -8.960  10.286  69.256  1.00  0.00    -0.179 A  
HETATM   16  C   UNL     1     -10.171   9.932  69.871  1.00  0.00    -0.257 A  
HETATM   17  F   UNL     1      -7.851   9.558  69.476  1.00  0.00    -0.076 F  
HETATM   18  C   UNL     1     -11.119  11.951  68.839  1.00  0.00    -0.299 A  
HETATM   19  C   UNL     1     -11.243  10.809  69.654  1.00  0.00    -0.355 A  
BRANCH  16  20
HETATM   20  N   UNL     1     -10.342   8.777  70.610  1.00  0.00    -0.199 NA 
HETATM   21  C   UNL     1     -10.794   8.808  72.011  1.00  0.00    -0.358 C  
HETATM   22  C   UNL     1     -12.155   8.116  72.148  1.00  0.00    -0.357 C  
HETATM   23  O   UNL     1     -12.095   6.769  71.646  1.00  0.00    -0.326 OA 
HETATM   24  C   UNL     1     -11.749   6.776  70.251  1.00  0.00    -0.341 C  
HETATM   25  C   UNL     1     -10.384   7.446  69.989  1.00  0.00    -0.219 C  
ENDBRANCH  16  20
ENDBRANCH   9  13
ENDBRANCH   6   7
ENDBRANCH   3   6
TORSDOF 4
ENDMDL
MODEL       99
REMARK 921   NORMALIZED FREE ENERGY PREDICTED BY IDOCK:   -4.71 KCAL/MOL
REMARK 922        TOTAL FREE ENERGY PREDICTED BY IDOCK:   -6.21 KCAL/MOL
REMARK 923 INTER-LIGAND FREE ENERGY PREDICTED BY IDOCK:   -6.08 KCAL/MOL
REMARK 924 INTRA-LIGAND FREE ENERGY PREDICTED BY IDOCK:   -0.13 KCAL/MOL
REMARK 927      BINDING AFFINITY PREDICTED BY RF-SCORE:    0.00 PKD
ROOT
HETATM    1  C   UNL     1      -5.891  17.049  67.048  1.00  0.00    -0.214 C  
HETATM    2  C   UNL     1      -7.272  16.726  67.546  1.00  0.00    -0.148 C  
HETATM    3  N   UNL     1      -8.152  16.382  66.547  1.00  0.00    -0.284 N  
HETATM    4  O   UNL     1      -7.570  16.747  68.734  1.00  0.00    -0.217 OA 
HETATM    5  H   UNL     1      -7.815  16.330  65.586  1.00  0.00     0.000 HD 
ENDROOT
BRANCH   3   6
HETATM    6  C   UNL     1      -9.551  16.091  66.824  1.00  0.00    -0.232 C  
BRANCH   6   7
HETATM    7  C   UNL     1      -9.796  14.590  66.856  1.00  0.00    -0.262 C  
HETATM    8  C   UNL     1     -10.037  14.032  68.239  1.00  0.00    -0.246 C  
HETATM    9  N   UNL     1     -10.824  12.875  67.930  1.00  0.00    -0.221 N  
HETATM   10  C   UNL     1     -11.477  13.097  66.722  1.00  0.00    -0.343 C  
HETATM   11  O   UNL     1     -12.356  12.438  66.193  1.00  0.00    -0.606 OA 
HETATM   12  O   UNL     1     -10.998  14.253  66.151  1.00  0.00    -0.304 OA 
BRANCH   9  13
HETATM   13  C   UNL     1     -10.920  11.728  68.754  1.00  0.00    -0.234 A  
HETATM   14  C   UNL     1     -12.095  11.434  69.444  1.00  0.00    -0.358 A  
HETATM   15  C   UNL     1     -12.196  10.287  70.235  1.00  0.00    -0.221 A  
HETATM   16  C   UNL     1     -11.136   9.381  70.397  1.00  0.00    -0.261 A  
HETATM   17  F   UNL     1     -13.385  10.047  70.813  1.00  0.00    -0.431 F  
HETATM   18  C   UNL     1      -9.859  10.825  68.873  1.00  0.00    -0.209 A  
HETATM   19  C   UNL     1      -9.970   9.674  69.676  1.00  0.00    -0.239 A  
BRANCH  16  20
HETATM   20  N   UNL     1     -11.189   8.288  71.240  1.00  0.00    -0.251 NA 
HETATM   21  C   UNL     1     -12.324   8.060  72.149  1.00  0.00    -0.315 C  
HETATM   22  C   UNL     1     -13.058   6.767  71.772  1.00  0.00    -0.183 C  
HETATM   23  O   UNL     1     -12.153   5.648  71.772  1.00  0.00     0.162 OA 
HETATM   24  C   UNL     1     -11.110   5.856  70.804  1.00  0.00    -0.254 C  
HETATM   25  C   UNL     1     -10.293   7.133  71.088  1.00  0.00    -0.202 C  
ENDBRANCH  16  20
ENDBRANCH   9  13
ENDBRANCH   6   7
ENDBRANCH   3   6
TORSDOF 4
ENDMDL
MODEL      100
REMARK 921   NORMALIZED FREE ENERGY PREDICTED BY IDOCK:   -4.70 KCAL/MOL
REMARK 922        TOTAL FREE ENERGY PREDICTED BY IDOCK:   -6.20 KCAL/MOL
REMARK 923 INTER-LIGAND FREE ENERGY PREDICTED BY IDOCK:   -5.62 KCAL/MOL
REMARK 924 INTRA-LIGAND FREE ENERGY PREDICTED BY IDOCK:   -0.58 KCAL/MOL
REMARK 927      BINDING AFFINITY PREDICTED BY RF-SCORE:    0.00 PKD
ROOT
HETATM    1  C   UNL     1     -12.123  15.478  70.901  1.00  0.00    -0.433 C  
HETATM    2  C   UNL     1     -11.820  14.983  69.514  1.00  0.00    -0.330 C  
HETATM    3  N   UNL     1     -12.058  13.639  69.345  1.00  0.00    -0.331 N  
HETATM    4  O   UNL     1     -11.420  15.718  68.620  1.00  0.00    -0.351 OA 
HETATM    5  H   UNL     1     -12.447  13.102  70.121  1.00  0.00     0.000 HD 
ENDROOT
BRANCH   3   6
HETATM    6  C   UNL     1     -11.770  12.962  68.089  1.00  0.00    -0.352 C  
BRANCH   6   7
HETATM    7  C   UNL     1     -10.862  11.763  68.315  1.00  0.00    -0.220 C  
HETATM    8  C   UNL     1     -11.355  10.803  69.373  1.00  0.00    -0.285 C  
HETATM    9  N   UNL     1     -10.744   9.583  68.936  1.00  0.00    -0.217 N  
HETATM   10  C   UNL     1     -10.527   9.666  67.565  1.00  0.00    -0.262 C  
HETATM   11  O   UNL     1     -10.181   8.791  66.789  1.00  0.00    -0.266 OA 
HETATM   12  O   UNL     1     -10.790  10.946  67.139  1.00  0.00    -0.258 OA 
BRANCH   9  13
HETATM   13  C   UNL     1     -10.452   8.486  69.782  1.00  0.00    -0.220 A  
HETATM   14  C   UNL     1      -9.500   8.591  70.795  1.00  0.00    -0.213 A  
HETATM   15  C   UNL     1      -9.235   7.514  71.644  1.00  0.00    -0.134 A  
HETATM   16  C   UNL     1      -9.885   6.276  71.527  1.00  0.00    -0.173 A  
HETATM   17  F   UNL     1      -8.349   7.723  72.634  1.00  0.00    -0.119 F  
HETATM   18  C   UNL     1     -11.138   7.273  69.664  1.00  0.00    -0.161 A  
HETATM   19  C   UNL     1     -10.859   6.192  70.523  1.00  0.00    -0.364 A  
BRANCH  16  20
HETATM   20  N   UNL     1      -9.575   5.176  72.304  1.00  0.00    -0.148 NA 
HETATM   21  C   UNL     1     -10.060   5.037  73.687  1.00  0.00    -0.177 C  
HETATM   22  C   UNL     1     -10.995   3.828  73.805  1.00  0.00    -0.227 C  
HETATM   23  O   UNL     1     -10.337   2.628  73.358  1.00  0.00    -0.113 OA 
HETATM   24  C   UNL     1      -9.964   2.756  71.975  1.00  0.00    -0.156 C  
HETATM   25  C   UNL     1      -9.010   3.945  71.733  1.00  0.00    -0.110 C  
ENDBRANCH  16  20
ENDBRANCH   9  13
ENDBRANCH   6   7
ENDBRANCH   3   6
TORSDOF 4
ENDMDL
MODEL      101
REMARK 921   NORMALIZED FREE ENERGY PREDICTED BY IDOCK:   -4.69 KCAL/MOL
REMARK 922        TOTAL FREE ENERGY PREDICTED BY IDOCK:   -6.18 KCAL/MOL
REMARK 923 INTER-LIGAND FREE ENERGY PREDICTED BY IDOCK:   -5.92 KCAL/MOL
REMARK 924 INTRA-LIGAND FREE ENERGY PREDICTED BY IDOCK:   -0.27 KCAL/MOL
REMARK 927      BINDING AFFINITY PREDICTED BY RF-SCORE:    0.00 PKD
ROOT
HETATM    1  C   UNL     1      -8.494  19.242  66.121  1.00  0.00    -0.278 C  
HETATM    2  C   UNL     1      -9.113  18.019  66.740  1.00  0.00    -0.273 C  
HETATM    3  N   UNL     1     -10.102  17.454  65.969  1.00  0.00    -0.294 N  
HETATM    4  O   UNL     1      -8.751  17.565  67.817  1.00  0.00    -0.225 OA 
HETATM    5  H   UNL     1     -10.309  17.855  65.055  1.00  0.00     0.000 HD 
ENDROOT
BRANCH   3   6
HETATM    6  C   UNL     1     -10.860  16.297  66.423  1.00  0.00    -0.100 C  
BRANCH   6   7
HETATM    7  C   UNL     1     -10.299  15.014  65.831  1.00  0.00    -0.313 C  
HETATM    8  C   UNL     1     -10.550  13.783  66.669  1.00  0.00    -0.274 C  
HETATM    9  N   UNL     1     -10.526  12.762  65.665  1.00  0.00    -0.273 N  
HETATM   10  C   UNL     1     -10.880  13.334  64.447  1.00  0.00    -0.403 C  
HETATM   11  O   UNL     1     -11.134  12.787  63.388  1.00  0.00    -0.408 OA 
HETATM   12  O   UNL     1     -10.941  14.701  64.587  1.00  0.00    -0.378 OA 
BRANCH   9  13
HETATM   13  C   UNL     1     -10.219  11.402  65.911  1.00  0.00    -0.246 A  
HETATM   14  C   UNL     1     -10.652  10.765  67.074  1.00  0.00    -0.312 A  
HETATM   15  C   UNL     1     -10.369   9.417  67.301  1.00  0.00    -0.260 A  
HETATM   16  C   UNL     1      -9.633   8.632  66.399  1.00  0.00    -0.247 A  
HETATM   17  F   UNL     1     -10.880   8.866  68.416  1.00  0.00    -0.233 F  
HETATM   18  C   UNL     1      -9.510  10.635  64.981  1.00  0.00    -0.293 A  
HETATM   19  C   UNL     1      -9.227   9.277  65.222  1.00  0.00    -0.275 A  
BRANCH  16  20
HETATM   20  N   UNL     1      -9.273   7.322  66.645  1.00  0.00    -0.152 NA 
HETATM   21  C   UNL     1     -10.271   6.285  66.956  1.00  0.00    -0.201 C  
HETATM   22  C   UNL     1     -10.283   5.211  65.861  1.00  0.00    -0.120 C  
HETATM   23  O   UNL     1      -8.972   4.642  65.691  1.00  0.00    -0.128 OA 
HETATM   24  C   UNL     1      -8.039   5.661  65.292  1.00  0.00    -0.125 C  
HETATM   25  C   UNL     1      -7.936   6.800  66.327  1.00  0.00    -0.108 C  
ENDBRANCH  16  20
ENDBRANCH   9  13
ENDBRANCH   6   7
ENDBRANCH   3   6
TORSDOF 4
ENDMDL
MODEL      102
REMARK 921   NORMALIZED FREE ENERGY PREDICTED BY IDOCK:   -4.65 KCAL/MOL
REMARK 922        TOTAL FREE ENERGY PREDICTED BY IDOCK:   -6.14 KCAL/MOL
REMARK 923 INTER-LIGAND FREE ENERGY PREDICTED BY IDOCK:   -6.11 KCAL/MOL
REMARK 924 INTRA-LIGAND FREE ENERGY PREDICTED BY IDOCK:   -0.02 KCAL/MOL
REMARK 927      BINDING AFFINITY PREDICTED BY RF-SCORE:    0.00 PKD
ROOT
HETATM    1  C   UNL     1     -12.980  15.837  73.522  1.00  0.00    -0.693 C  
HETATM    2  C   UNL     1     -13.232  15.790  72.040  1.00  0.00    -0.412 C  
HETATM    3  N   UNL     1     -12.103  15.995  71.283  1.00  0.00    -0.544 N  
HETATM    4  O   UNL     1     -14.338  15.568  71.563  1.00  0.00    -0.497 OA 
HETATM    5  H   UNL     1     -11.206  16.116  71.752  1.00  0.00     0.000 HD 
ENDROOT
BRANCH   3   6
HETATM    6  C   UNL     1     -12.154  16.043  69.829  1.00  0.00    -0.107 C  
BRANCH   6   7
HETATM    7  C   UNL     1     -12.193  14.642  69.241  1.00  0.00    -0.212 C  
HETATM    8  C   UNL     1     -10.906  14.212  68.578  1.00  0.00    -0.252 C  
HETATM    9  N   UNL     1     -10.992  12.789  68.714  1.00  0.00    -0.247 N  
HETATM   10  C   UNL     1     -11.793  12.500  69.815  1.00  0.00    -0.310 C  
HETATM   11  O   UNL     1     -11.985  11.429  70.364  1.00  0.00    -0.340 OA 
HETATM   12  O   UNL     1     -12.376  13.660  70.270  1.00  0.00    -0.333 OA 
BRANCH   9  13
HETATM   13  C   UNL     1     -10.336  11.861  67.870  1.00  0.00    -0.198 A  
HETATM   14  C   UNL     1     -10.782  11.629  66.570  1.00  0.00    -0.313 A  
HETATM   15  C   UNL     1     -10.116  10.733  65.731  1.00  0.00    -0.261 A  
HETATM   16  C   UNL     1      -8.983  10.011  66.139  1.00  0.00    -0.149 A  
HETATM   17  F   UNL     1     -10.575  10.619  64.473  1.00  0.00    -0.420 F  
HETATM   18  C   UNL     1      -9.190  11.178  68.291  1.00  0.00    -0.169 A  
HETATM   19  C   UNL     1      -8.529  10.273  67.438  1.00  0.00    -0.125 A  
BRANCH  16  20
HETATM   20  N   UNL     1      -8.362   9.060  65.352  1.00  0.00    -0.136 NA 
HETATM   21  C   UNL     1      -7.640   9.418  64.120  1.00  0.00    -0.115 C  
HETATM   22  C   UNL     1      -6.150   9.085  64.259  1.00  0.00    -0.071 C  
HETATM   23  O   UNL     1      -5.966   7.696  64.589  1.00  0.00    -0.037 OA 
HETATM   24  C   UNL     1      -6.598   7.399  65.846  1.00  0.00    -0.045 C  
HETATM   25  C   UNL     1      -8.113   7.690  65.824  1.00  0.00    -0.126 C  
ENDBRANCH  16  20
ENDBRANCH   9  13
ENDBRANCH   6   7
ENDBRANCH   3   6
TORSDOF 4
ENDMDL
MODEL      103
REMARK 921   NORMALIZED FREE ENERGY PREDICTED BY IDOCK:   -4.65 KCAL/MOL
REMARK 922        TOTAL FREE ENERGY PREDICTED BY IDOCK:   -6.14 KCAL/MOL
REMARK 923 INTER-LIGAND FREE ENERGY PREDICTED BY IDOCK:   -5.55 KCAL/MOL
REMARK 924 INTRA-LIGAND FREE ENERGY PREDICTED BY IDOCK:   -0.58 KCAL/MOL
REMARK 927      BINDING AFFINITY PREDICTED BY RF-SCORE:    0.00 PKD
ROOT
HETATM    1  C   UNL     1      -9.527   3.723  67.063  1.00  0.00    -0.227 C  
HETATM    2  C   UNL     1      -9.821   3.976  68.516  1.00  0.00     0.026 C  
HETATM    3  N   UNL     1     -10.397   5.201  68.756  1.00  0.00    -0.137 N  
HETATM    4  O   UNL     1      -9.586   3.154  69.393  1.00  0.00    -0.150 OA 
HETATM    5  H   UNL     1     -10.616   5.809  67.967  1.00  0.00     0.000 HD 
ENDROOT
BRANCH   3   6
HETATM    6  C   UNL     1     -10.703   5.653  70.105  1.00  0.00    -0.305 C  
BRANCH   6   7
HETATM    7  C   UNL     1     -10.389   7.131  70.266  1.00  0.00    -0.201 C  
HETATM    8  C   UNL     1     -10.439   7.919  68.978  1.00  0.00    -0.198 C  
HETATM    9  N   UNL     1     -10.747   9.228  69.472  1.00  0.00    -0.229 N  
HETATM   10  C   UNL     1     -11.411   9.094  70.687  1.00  0.00    -0.262 C  
HETATM   11  O   UNL     1     -11.981   9.946  71.348  1.00  0.00    -0.362 OA 
HETATM   12  O   UNL     1     -11.373   7.778  71.085  1.00  0.00    -0.260 OA 
BRANCH   9  13
HETATM   13  C   UNL     1     -10.438  10.433  68.797  1.00  0.00    -0.199 A  
HETATM   14  C   UNL     1      -9.121  10.873  68.676  1.00  0.00    -0.175 A  
HETATM   15  C   UNL     1      -8.817  12.049  67.985  1.00  0.00    -0.179 A  
HETATM   16  C   UNL     1      -9.801  12.856  67.392  1.00  0.00    -0.207 A  
HETATM   17  F   UNL     1      -7.517  12.365  67.861  1.00  0.00    -0.087 F  
HETATM   18  C   UNL     1     -11.434  11.203  68.188  1.00  0.00    -0.373 A  
HETATM   19  C   UNL     1     -11.118  12.389  67.498  1.00  0.00    -0.313 A  
BRANCH  16  20
HETATM   20  N   UNL     1      -9.527  14.064  66.779  1.00  0.00    -0.273 NA 
HETATM   21  C   UNL     1     -10.037  14.389  65.436  1.00  0.00    -0.359 C  
HETATM   22  C   UNL     1     -10.999  15.580  65.506  1.00  0.00    -0.324 C  
HETATM   23  O   UNL     1     -10.361  16.718  66.113  1.00  0.00    -0.328 OA 
HETATM   24  C   UNL     1      -9.962  16.401  67.458  1.00  0.00    -0.250 C  
HETATM   25  C   UNL     1      -8.980  15.213  67.514  1.00  0.00    -0.180 C  
ENDBRANCH  16  20
ENDBRANCH   9  13
ENDBRANCH   6   7
ENDBRANCH   3   6
TORSDOF 4
ENDMDL
MODEL      104
REMARK 921   NORMALIZED FREE ENERGY PREDICTED BY IDOCK:   -4.63 KCAL/MOL
REMARK 922        TOTAL FREE ENERGY PREDICTED BY IDOCK:   -6.11 KCAL/MOL
REMARK 923 INTER-LIGAND FREE ENERGY PREDICTED BY IDOCK:   -5.79 KCAL/MOL
REMARK 924 INTRA-LIGAND FREE ENERGY PREDICTED BY IDOCK:   -0.32 KCAL/MOL
REMARK 927      BINDING AFFINITY PREDICTED BY RF-SCORE:    0.00 PKD
ROOT
HETATM    1  C   UNL     1     -12.201   6.875  71.122  1.00  0.00    -0.428 C  
HETATM    2  C   UNL     1     -10.999   7.544  70.516  1.00  0.00    -0.252 C  
HETATM    3  N   UNL     1     -11.317   8.539  69.621  1.00  0.00    -0.435 N  
HETATM    4  O   UNL     1      -9.851   7.241  70.813  1.00  0.00    -0.179 OA 
HETATM    5  H   UNL     1     -12.297   8.775  69.468  1.00  0.00     0.000 HD 
ENDROOT
BRANCH   3   6
HETATM    6  C   UNL     1     -10.291   9.265  68.887  1.00  0.00    -0.214 C  
BRANCH   6   7
HETATM    7  C   UNL     1     -10.298  10.739  69.259  1.00  0.00    -0.205 C  
HETATM    8  C   UNL     1      -9.608  11.635  68.257  1.00  0.00    -0.198 C  
HETATM    9  N   UNL     1     -10.288  12.874  68.489  1.00  0.00    -0.244 N  
HETATM   10  C   UNL     1     -11.550  12.594  69.004  1.00  0.00    -0.317 C  
HETATM   11  O   UNL     1     -12.490  13.350  69.183  1.00  0.00    -0.115 OA 
HETATM   12  O   UNL     1     -11.637  11.253  69.292  1.00  0.00    -0.261 OA 
BRANCH   9  13
HETATM   13  C   UNL     1      -9.747  14.150  68.202  1.00  0.00    -0.225 A  
HETATM   14  C   UNL     1     -10.534  15.158  67.645  1.00  0.00    -0.253 A  
HETATM   15  C   UNL     1     -10.003  16.424  67.389  1.00  0.00    -0.251 A  
HETATM   16  C   UNL     1      -8.666  16.755  67.655  1.00  0.00    -0.204 A  
HETATM   17  F   UNL     1     -10.849  17.354  66.911  1.00  0.00    -0.280 F  
HETATM   18  C   UNL     1      -8.418  14.464  68.507  1.00  0.00    -0.170 A  
HETATM   19  C   UNL     1      -7.893  15.743  68.240  1.00  0.00    -0.129 A  
BRANCH  16  20
HETATM   20  N   UNL     1      -8.103  17.974  67.331  1.00  0.00    -0.221 NA 
HETATM   21  C   UNL     1      -8.465  19.213  68.040  1.00  0.00    -0.309 C  
HETATM   22  C   UNL     1      -7.247  19.778  68.781  1.00  0.00    -0.317 C  
HETATM   23  O   UNL     1      -6.152  19.994  67.873  1.00  0.00    -0.213 OA 
HETATM   24  C   UNL     1      -5.756  18.751  67.270  1.00  0.00    -0.151 C  
HETATM   25  C   UNL     1      -6.907  18.088  66.484  1.00  0.00    -0.219 C  
ENDBRANCH  16  20
ENDBRANCH   9  13
ENDBRANCH   6   7
ENDBRANCH   3   6
TORSDOF 4
ENDMDL
MODEL      105
REMARK 921   NORMALIZED FREE ENERGY PREDICTED BY IDOCK:   -4.63 KCAL/MOL
REMARK 922        TOTAL FREE ENERGY PREDICTED BY IDOCK:   -6.11 KCAL/MOL
REMARK 923 INTER-LIGAND FREE ENERGY PREDICTED BY IDOCK:   -6.15 KCAL/MOL
REMARK 924 INTRA-LIGAND FREE ENERGY PREDICTED BY IDOCK:    0.04 KCAL/MOL
REMARK 927      BINDING AFFINITY PREDICTED BY RF-SCORE:    0.00 PKD
ROOT
HETATM    1  C   UNL     1      -8.638  18.689  68.310  1.00  0.00    -0.347 C  
HETATM    2  C   UNL     1      -9.922  17.967  68.009  1.00  0.00    -0.333 C  
HETATM    3  N   UNL     1     -10.049  16.770  68.675  1.00  0.00    -0.262 N  
HETATM    4  O   UNL     1     -10.777  18.419  67.259  1.00  0.00    -0.411 OA 
HETATM    5  H   UNL     1      -9.320  16.487  69.330  1.00  0.00     0.000 HD 
ENDROOT
BRANCH   3   6
HETATM    6  C   UNL     1     -11.196  15.898  68.471  1.00  0.00    -0.362 C  
BRANCH   6   7
HETATM    7  C   UNL     1     -10.991  15.010  67.254  1.00  0.00    -0.326 C  
HETATM    8  C   UNL     1     -10.155  13.780  67.518  1.00  0.00    -0.241 C  
HETATM    9  N   UNL     1     -10.648  12.895  66.505  1.00  0.00    -0.257 N  
HETATM   10  C   UNL     1     -11.948  13.272  66.185  1.00  0.00    -0.418 C  
HETATM   11  O   UNL     1     -12.769  12.689  65.497  1.00  0.00    -0.597 OA 
HETATM   12  O   UNL     1     -12.239  14.467  66.801  1.00  0.00    -0.420 OA 
BRANCH   9  13
HETATM   13  C   UNL     1      -9.917  11.809  65.965  1.00  0.00    -0.229 A  
HETATM   14  C   UNL     1     -10.097  11.407  64.642  1.00  0.00    -0.330 A  
HETATM   15  C   UNL     1      -9.355  10.352  64.105  1.00  0.00    -0.277 A  
HETATM   16  C   UNL     1      -8.408   9.633  64.851  1.00  0.00    -0.148 A  
HETATM   17  F   UNL     1      -9.546  10.073  62.804  1.00  0.00    -0.310 F  
HETATM   18  C   UNL     1      -8.956  11.130  66.721  1.00  0.00    -0.169 A  
HETATM   19  C   UNL     1      -8.217  10.065  66.170  1.00  0.00    -0.121 A  
BRANCH  16  20
HETATM   20  N   UNL     1      -7.726   8.536  64.362  1.00  0.00    -0.120 NA 
HETATM   21  C   UNL     1      -7.530   7.318  65.166  1.00  0.00    -0.087 C  
HETATM   22  C   UNL     1      -8.248   6.129  64.516  1.00  0.00    -0.079 C  
HETATM   23  O   UNL     1      -7.800   5.941  63.161  1.00  0.00    -0.087 OA 
HETATM   24  C   UNL     1      -8.094   7.108  62.377  1.00  0.00    -0.109 C  
HETATM   25  C   UNL     1      -7.414   8.376  62.934  1.00  0.00    -0.108 C  
ENDBRANCH  16  20
ENDBRANCH   9  13
ENDBRANCH   6   7
ENDBRANCH   3   6
TORSDOF 4
ENDMDL
MODEL      106
REMARK 921   NORMALIZED FREE ENERGY PREDICTED BY IDOCK:   -4.63 KCAL/MOL
REMARK 922        TOTAL FREE ENERGY PREDICTED BY IDOCK:   -6.11 KCAL/MOL
REMARK 923 INTER-LIGAND FREE ENERGY PREDICTED BY IDOCK:   -5.75 KCAL/MOL
REMARK 924 INTRA-LIGAND FREE ENERGY PREDICTED BY IDOCK:   -0.36 KCAL/MOL
REMARK 927      BINDING AFFINITY PREDICTED BY RF-SCORE:    0.00 PKD
ROOT
HETATM    1  C   UNL     1      -8.875   6.405  74.141  1.00  0.00    -0.155 C  
HETATM    2  C   UNL     1     -10.058   5.847  73.400  1.00  0.00    -0.198 C  
HETATM    3  N   UNL     1      -9.933   5.915  72.032  1.00  0.00    -0.174 N  
HETATM    4  O   UNL     1     -11.028   5.360  73.968  1.00  0.00    -0.211 OA 
HETATM    5  H   UNL     1      -9.070   6.281  71.631  1.00  0.00     0.000 HD 
ENDROOT
BRANCH   3   6
HETATM    6  C   UNL     1     -10.999   5.478  71.143  1.00  0.00    -0.125 C  
BRANCH   6   7
HETATM    7  C   UNL     1     -11.398   6.591  70.187  1.00  0.00    -0.402 C  
HETATM    8  C   UNL     1     -10.603   7.865  70.354  1.00  0.00    -0.228 C  
HETATM    9  N   UNL     1     -10.705   8.422  69.038  1.00  0.00    -0.141 N  
HETATM   10  C   UNL     1     -10.910   7.384  68.135  1.00  0.00    -0.037 C  
HETATM   11  O   UNL     1     -10.887   7.411  66.917  1.00  0.00    -0.357 OA 
HETATM   12  O   UNL     1     -11.135   6.217  68.827  1.00  0.00    -0.344 OA 
BRANCH   9  13
HETATM   13  C   UNL     1     -10.582   9.800  68.740  1.00  0.00    -0.219 A  
HETATM   14  C   UNL     1     -11.473  10.734  69.268  1.00  0.00    -0.369 A  
HETATM   15  C   UNL     1     -11.332  12.096  68.993  1.00  0.00    -0.276 A  
HETATM   16  C   UNL     1     -10.314  12.604  68.171  1.00  0.00    -0.234 A  
HETATM   17  F   UNL     1     -12.196  12.932  69.595  1.00  0.00    -0.333 F  
HETATM   18  C   UNL     1      -9.539  10.283  67.942  1.00  0.00    -0.161 A  
HETATM   19  C   UNL     1      -9.410  11.658  67.668  1.00  0.00    -0.178 A  
BRANCH  16  20
HETATM   20  N   UNL     1     -10.210  13.936  67.821  1.00  0.00    -0.234 NA 
HETATM   21  C   UNL     1     -11.391  14.747  67.481  1.00  0.00    -0.344 C  
HETATM   22  C   UNL     1     -11.571  15.879  68.499  1.00  0.00    -0.349 C  
HETATM   23  O   UNL     1     -10.384  16.689  68.577  1.00  0.00    -0.266 OA 
HETATM   24  C   UNL     1      -9.268  15.890  69.006  1.00  0.00    -0.242 C  
HETATM   25  C   UNL     1      -8.985  14.715  68.047  1.00  0.00    -0.174 C  
ENDBRANCH  16  20
ENDBRANCH   9  13
ENDBRANCH   6   7
ENDBRANCH   3   6
TORSDOF 4
ENDMDL
MODEL      107
REMARK 921   NORMALIZED FREE ENERGY PREDICTED BY IDOCK:   -4.62 KCAL/MOL
REMARK 922        TOTAL FREE ENERGY PREDICTED BY IDOCK:   -6.10 KCAL/MOL
REMARK 923 INTER-LIGAND FREE ENERGY PREDICTED BY IDOCK:   -5.93 KCAL/MOL
REMARK 924 INTRA-LIGAND FREE ENERGY PREDICTED BY IDOCK:   -0.17 KCAL/MOL
REMARK 927      BINDING AFFINITY PREDICTED BY RF-SCORE:    0.00 PKD
ROOT
HETATM    1  C   UNL     1     -13.957  15.229  72.503  1.00  0.00    -0.609 C  
HETATM    2  C   UNL     1     -12.902  15.701  71.540  1.00  0.00    -0.471 C  
HETATM    3  N   UNL     1     -13.159  15.361  70.233  1.00  0.00    -0.672 N  
HETATM    4  O   UNL     1     -11.922  16.345  71.893  1.00  0.00    -0.472 OA 
HETATM    5  H   UNL     1     -14.026  14.873  70.008  1.00  0.00     0.000 HD 
ENDROOT
BRANCH   3   6
HETATM    6  C   UNL     1     -12.226  15.678  69.161  1.00  0.00    -0.124 C  
BRANCH   6   7
HETATM    7  C   UNL     1     -11.085  14.675  69.121  1.00  0.00    -0.268 C  
HETATM    8  C   UNL     1     -11.512  13.264  68.790  1.00  0.00    -0.306 C  
HETATM    9  N   UNL     1     -10.308  12.745  68.213  1.00  0.00    -0.238 N  
HETATM   10  C   UNL     1      -9.578  13.807  67.689  1.00  0.00    -0.219 C  
HETATM   11  O   UNL     1      -8.586  13.781  66.980  1.00  0.00    -0.214 OA 
HETATM   12  O   UNL     1     -10.160  14.993  68.072  1.00  0.00    -0.221 OA 
BRANCH   9  13
HETATM   13  C   UNL     1      -9.965  11.372  68.173  1.00  0.00    -0.189 A  
HETATM   14  C   UNL     1      -8.717  10.954  67.713  1.00  0.00    -0.129 A  
HETATM   15  C   UNL     1      -8.373   9.601  67.701  1.00  0.00    -0.121 A  
HETATM   16  C   UNL     1      -9.249   8.590  68.128  1.00  0.00    -0.137 A  
HETATM   17  F   UNL     1      -7.127   9.292  67.302  1.00  0.00    -0.078 F  
HETATM   18  C   UNL     1     -10.846  10.388  68.634  1.00  0.00    -0.270 A  
HETATM   19  C   UNL     1     -10.490   9.026  68.613  1.00  0.00    -0.229 A  
BRANCH  16  20
HETATM   20  N   UNL     1      -8.957   7.243  68.044  1.00  0.00    -0.132 NA 
HETATM   21  C   UNL     1      -8.974   6.367  69.228  1.00  0.00    -0.133 C  
HETATM   22  C   UNL     1     -10.065   5.299  69.085  1.00  0.00    -0.219 C  
HETATM   23  O   UNL     1      -9.882   4.541  67.874  1.00  0.00    -0.155 OA 
HETATM   24  C   UNL     1      -9.969   5.408  66.731  1.00  0.00    -0.192 C  
HETATM   25  C   UNL     1      -8.907   6.527  66.761  1.00  0.00    -0.129 C  
ENDBRANCH  16  20
ENDBRANCH   9  13
ENDBRANCH   6   7
ENDBRANCH   3   6
TORSDOF 4
ENDMDL
MODEL      108
REMARK 921   NORMALIZED FREE ENERGY PREDICTED BY IDOCK:   -4.62 KCAL/MOL
REMARK 922        TOTAL FREE ENERGY PREDICTED BY IDOCK:   -6.09 KCAL/MOL
REMARK 923 INTER-LIGAND FREE ENERGY PREDICTED BY IDOCK:   -5.42 KCAL/MOL
REMARK 924 INTRA-LIGAND FREE ENERGY PREDICTED BY IDOCK:   -0.67 KCAL/MOL
REMARK 927      BINDING AFFINITY PREDICTED BY RF-SCORE:    0.00 PKD
ROOT
HETATM    1  C   UNL     1      -5.353   6.908  63.674  1.00  0.00    -0.028 C  
HETATM    2  C   UNL     1      -6.795   7.193  63.993  1.00  0.00    -0.051 C  
HETATM    3  N   UNL     1      -7.235   6.580  65.143  1.00  0.00    -0.067 N  
HETATM    4  O   UNL     1      -7.496   7.921  63.302  1.00  0.00    -0.104 OA 
HETATM    5  H   UNL     1      -6.576   6.035  65.698  1.00  0.00     0.000 HD 
ENDROOT
BRANCH   3   6
HETATM    6  C   UNL     1      -8.617   6.689  65.588  1.00  0.00    -0.123 C  
BRANCH   6   7
HETATM    7  C   UNL     1      -8.784   7.845  66.561  1.00  0.00    -0.147 C  
HETATM    8  C   UNL     1      -9.427   9.072  65.959  1.00  0.00    -0.256 C  
HETATM    9  N   UNL     1     -10.014   9.667  67.123  1.00  0.00    -0.182 N  
HETATM   10  C   UNL     1     -10.256   8.664  68.056  1.00  0.00    -0.210 C  
HETATM   11  O   UNL     1     -10.885   8.722  69.099  1.00  0.00    -0.173 OA 
HETATM   12  O   UNL     1      -9.679   7.493  67.625  1.00  0.00    -0.139 OA 
BRANCH   9  13
HETATM   13  C   UNL     1     -10.312  11.045  67.254  1.00  0.00    -0.211 A  
HETATM   14  C   UNL     1     -11.366  11.625  66.549  1.00  0.00    -0.331 A  
HETATM   15  C   UNL     1     -11.673  12.979  66.702  1.00  0.00    -0.381 A  
HETATM   16  C   UNL     1     -10.947  13.831  67.548  1.00  0.00    -0.272 A  
HETATM   17  F   UNL     1     -12.744  13.440  66.033  1.00  0.00    -0.451 F  
HETATM   18  C   UNL     1      -9.592  11.866  68.129  1.00  0.00    -0.195 A  
HETATM   19  C   UNL     1      -9.908  13.231  68.272  1.00  0.00    -0.231 A  
BRANCH  16  20
HETATM   20  N   UNL     1     -11.184  15.189  67.648  1.00  0.00    -0.320 NA 
HETATM   21  C   UNL     1     -11.711  15.799  68.880  1.00  0.00    -0.394 C  
HETATM   22  C   UNL     1     -10.684  16.769  69.475  1.00  0.00    -0.273 C  
HETATM   23  O   UNL     1     -10.310  17.771  68.512  1.00  0.00    -0.359 OA 
HETATM   24  C   UNL     1      -9.708  17.152  67.363  1.00  0.00    -0.253 C  
HETATM   25  C   UNL     1     -10.658  16.153  66.671  1.00  0.00    -0.274 C  
ENDBRANCH  16  20
ENDBRANCH   9  13
ENDBRANCH   6   7
ENDBRANCH   3   6
TORSDOF 4
ENDMDL
MODEL      109
REMARK 921   NORMALIZED FREE ENERGY PREDICTED BY IDOCK:   -4.60 KCAL/MOL
REMARK 922        TOTAL FREE ENERGY PREDICTED BY IDOCK:   -6.08 KCAL/MOL
REMARK 923 INTER-LIGAND FREE ENERGY PREDICTED BY IDOCK:   -5.72 KCAL/MOL
REMARK 924 INTRA-LIGAND FREE ENERGY PREDICTED BY IDOCK:   -0.36 KCAL/MOL
REMARK 927      BINDING AFFINITY PREDICTED BY RF-SCORE:    0.00 PKD
ROOT
HETATM    1  C   UNL     1      -9.044   8.308  65.760  1.00  0.00    -0.169 C  
HETATM    2  C   UNL     1     -10.052   8.524  66.855  1.00  0.00    -0.294 C  
HETATM    3  N   UNL     1     -10.241   9.847  67.176  1.00  0.00    -0.214 N  
HETATM    4  O   UNL     1     -10.659   7.604  67.389  1.00  0.00    -0.274 OA 
HETATM    5  H   UNL     1      -9.742  10.563  66.648  1.00  0.00     0.000 HD 
ENDROOT
BRANCH   3   6
HETATM    6  C   UNL     1     -11.134  10.255  68.251  1.00  0.00    -0.254 C  
BRANCH   6   7
HETATM    7  C   UNL     1     -11.229  11.771  68.331  1.00  0.00    -0.251 C  
HETATM    8  C   UNL     1      -9.919  12.487  68.102  1.00  0.00    -0.224 C  
HETATM    9  N   UNL     1     -10.383  13.749  67.609  1.00  0.00    -0.237 N  
HETATM   10  C   UNL     1     -11.632  13.562  67.024  1.00  0.00    -0.359 C  
HETATM   11  O   UNL     1     -12.289  14.338  66.353  1.00  0.00    -0.448 OA 
HETATM   12  O   UNL     1     -12.071  12.286  67.290  1.00  0.00    -0.548 OA 
BRANCH   9  13
HETATM   13  C   UNL     1      -9.653  14.959  67.692  1.00  0.00    -0.200 A  
HETATM   14  C   UNL     1      -8.539  15.186  66.886  1.00  0.00    -0.289 A  
HETATM   15  C   UNL     1      -7.838  16.392  66.953  1.00  0.00    -0.238 A  
HETATM   16  C   UNL     1      -8.193  17.429  67.829  1.00  0.00    -0.216 A  
HETATM   17  F   UNL     1      -6.815  16.551  66.094  1.00  0.00    -0.157 F  
HETATM   18  C   UNL     1     -10.048  15.990  68.553  1.00  0.00    -0.233 A  
HETATM   19  C   UNL     1      -9.331  17.200  68.615  1.00  0.00    -0.269 A  
BRANCH  16  20
HETATM   20  N   UNL     1      -7.462  18.593  67.968  1.00  0.00    -0.245 NA 
HETATM   21  C   UNL     1      -8.050  19.819  68.534  1.00  0.00    -0.242 C  
HETATM   22  C   UNL     1      -7.344  20.194  69.842  1.00  0.00     0.336 C  
HETATM   23  O   UNL     1      -5.927  20.339  69.635  1.00  0.00    -0.310 OA 
HETATM   24  C   UNL     1      -5.365  19.098  69.177  1.00  0.00    -0.197 C  
HETATM   25  C   UNL     1      -5.997  18.621  67.853  1.00  0.00    -0.190 C  
ENDBRANCH  16  20
ENDBRANCH   9  13
ENDBRANCH   6   7
ENDBRANCH   3   6
TORSDOF 4
ENDMDL
MODEL      110
REMARK 921   NORMALIZED FREE ENERGY PREDICTED BY IDOCK:   -4.60 KCAL/MOL
REMARK 922        TOTAL FREE ENERGY PREDICTED BY IDOCK:   -6.07 KCAL/MOL
REMARK 923 INTER-LIGAND FREE ENERGY PREDICTED BY IDOCK:   -5.46 KCAL/MOL
REMARK 924 INTRA-LIGAND FREE ENERGY PREDICTED BY IDOCK:   -0.62 KCAL/MOL
REMARK 927      BINDING AFFINITY PREDICTED BY RF-SCORE:    0.00 PKD
ROOT
HETATM    1  C   UNL     1     -10.248   4.300  64.988  1.00  0.00    -0.213 C  
HETATM    2  C   UNL     1      -9.677   5.250  66.004  1.00  0.00    -0.139 C  
HETATM    3  N   UNL     1     -10.550   6.244  66.379  1.00  0.00    -0.490 N  
HETATM    4  O   UNL     1      -8.549   5.129  66.465  1.00  0.00    -0.111 OA 
HETATM    5  H   UNL     1     -11.494   6.247  65.995  1.00  0.00     0.000 HD 
ENDROOT
BRANCH   3   6
HETATM    6  C   UNL     1     -10.161   7.294  67.310  1.00  0.00    -0.253 C  
BRANCH   6   7
HETATM    7  C   UNL     1     -10.164   8.653  66.628  1.00  0.00    -0.273 C  
HETATM    8  C   UNL     1      -9.667   9.784  67.497  1.00  0.00    -0.157 C  
HETATM    9  N   UNL     1      -9.187  10.697  66.504  1.00  0.00    -0.163 N  
HETATM   10  C   UNL     1      -8.842   9.972  65.368  1.00  0.00    -0.173 C  
HETATM   11  O   UNL     1      -8.250  10.345  64.370  1.00  0.00    -0.165 OA 
HETATM   12  O   UNL     1      -9.257   8.669  65.517  1.00  0.00    -0.180 OA 
BRANCH   9  13
HETATM   13  C   UNL     1      -9.069  12.096  66.692  1.00  0.00    -0.206 A  
HETATM   14  C   UNL     1      -8.000  12.639  67.402  1.00  0.00    -0.177 A  
HETATM   15  C   UNL     1      -7.872  14.020  67.563  1.00  0.00    -0.184 A  
HETATM   16  C   UNL     1      -8.801  14.934  67.042  1.00  0.00    -0.232 A  
HETATM   17  F   UNL     1      -6.777  14.461  68.207  1.00  0.00    -0.084 F  
HETATM   18  C   UNL     1      -9.992  12.986  66.135  1.00  0.00    -0.278 A  
HETATM   19  C   UNL     1      -9.856  14.377  66.306  1.00  0.00    -0.321 A  
BRANCH  16  20
HETATM   20  N   UNL     1      -8.736  16.297  67.262  1.00  0.00    -0.178 NA 
HETATM   21  C   UNL     1      -8.775  17.267  66.155  1.00  0.00    -0.162 C  
HETATM   22  C   UNL     1     -10.029  18.142  66.257  1.00  0.00    -0.342 C  
HETATM   23  O   UNL     1     -10.089  18.802  67.535  1.00  0.00    -0.326 OA 
HETATM   24  C   UNL     1     -10.151  17.828  68.591  1.00  0.00    -0.384 C  
HETATM   25  C   UNL     1      -8.927  16.888  68.594  1.00  0.00    -0.266 C  
ENDBRANCH  16  20
ENDBRANCH   9  13
ENDBRANCH   6   7
ENDBRANCH   3   6
TORSDOF 4
ENDMDL
MODEL      111
REMARK 921   NORMALIZED FREE ENERGY PREDICTED BY IDOCK:   -4.58 KCAL/MOL
REMARK 922        TOTAL FREE ENERGY PREDICTED BY IDOCK:   -6.05 KCAL/MOL
REMARK 923 INTER-LIGAND FREE ENERGY PREDICTED BY IDOCK:   -5.64 KCAL/MOL
REMARK 924 INTRA-LIGAND FREE ENERGY PREDICTED BY IDOCK:   -0.41 KCAL/MOL
REMARK 927      BINDING AFFINITY PREDICTED BY RF-SCORE:    0.00 PKD
ROOT
HETATM    1  C   UNL     1     -12.724   6.871  71.540  1.00  0.00    -0.396 C  
HETATM    2  C   UNL     1     -11.390   6.639  70.884  1.00  0.00    -0.325 C  
HETATM    3  N   UNL     1     -10.372   7.385  71.429  1.00  0.00    -0.195 N  
HETATM    4  O   UNL     1     -11.231   5.842  69.967  1.00  0.00    -0.364 OA 
HETATM    5  H   UNL     1     -10.570   7.984  72.230  1.00  0.00     0.000 HD 
ENDROOT
BRANCH   3   6
HETATM    6  C   UNL     1      -9.019   7.342  70.893  1.00  0.00    -0.150 C  
BRANCH   6   7
HETATM    7  C   UNL     1      -8.854   8.341  69.759  1.00  0.00    -0.142 C  
HETATM    8  C   UNL     1      -9.823   9.499  69.807  1.00  0.00    -0.215 C  
HETATM    9  N   UNL     1      -9.077  10.505  69.110  1.00  0.00    -0.181 N  
HETATM   10  C   UNL     1      -7.722  10.220  69.243  1.00  0.00    -0.130 C  
HETATM   11  O   UNL     1      -6.761  10.906  68.942  1.00  0.00    -0.057 OA 
HETATM   12  O   UNL     1      -7.572   8.982  69.824  1.00  0.00    -0.067 OA 
BRANCH   9  13
HETATM   13  C   UNL     1      -9.655  11.607  68.436  1.00  0.00    -0.195 A  
HETATM   14  C   UNL     1     -10.730  12.304  68.984  1.00  0.00    -0.149 A  
HETATM   15  C   UNL     1     -11.280  13.408  68.328  1.00  0.00    -0.279 A  
HETATM   16  C   UNL     1     -10.806  13.870  67.090  1.00  0.00    -0.284 A  
HETATM   17  F   UNL     1     -12.272  14.060  68.959  1.00  0.00    -0.366 F  
HETATM   18  C   UNL     1      -9.142  12.066  67.218  1.00  0.00    -0.178 A  
HETATM   19  C   UNL     1      -9.708  13.177  66.563  1.00  0.00    -0.268 A  
BRANCH  16  20
HETATM   20  N   UNL     1     -11.390  14.906  66.388  1.00  0.00    -0.335 NA 
HETATM   21  C   UNL     1     -10.878  16.284  66.462  1.00  0.00    -0.105 C  
HETATM   22  C   UNL     1     -10.366  16.737  65.090  1.00  0.00     0.072 C  
HETATM   23  O   UNL     1     -11.397  16.614  64.094  1.00  0.00    -1.141 OA 
HETATM   24  C   UNL     1     -11.807  15.242  63.975  1.00  0.00     0.022 C  
HETATM   25  C   UNL     1     -12.353  14.675  65.302  1.00  0.00    -0.215 C  
ENDBRANCH  16  20
ENDBRANCH   9  13
ENDBRANCH   6   7
ENDBRANCH   3   6
TORSDOF 4
ENDMDL
MODEL      112
REMARK 921   NORMALIZED FREE ENERGY PREDICTED BY IDOCK:   -4.57 KCAL/MOL
REMARK 922        TOTAL FREE ENERGY PREDICTED BY IDOCK:   -6.04 KCAL/MOL
REMARK 923 INTER-LIGAND FREE ENERGY PREDICTED BY IDOCK:   -5.37 KCAL/MOL
REMARK 924 INTRA-LIGAND FREE ENERGY PREDICTED BY IDOCK:   -0.66 KCAL/MOL
REMARK 927      BINDING AFFINITY PREDICTED BY RF-SCORE:    0.00 PKD
ROOT
HETATM    1  C   UNL     1     -10.097  19.100  68.395  1.00  0.00    -0.498 C  
HETATM    2  C   UNL     1     -10.400  18.591  67.013  1.00  0.00    -0.399 C  
HETATM    3  N   UNL     1     -10.419  17.219  66.924  1.00  0.00    -0.303 N  
HETATM    4  O   UNL     1     -10.629  19.334  66.068  1.00  0.00    -0.471 OA 
HETATM    5  H   UNL     1     -10.276  16.664  67.769  1.00  0.00     0.000 HD 
ENDROOT
BRANCH   3   6
HETATM    6  C   UNL     1     -10.637  16.536  65.657  1.00  0.00    -0.304 C  
BRANCH   6   7
HETATM    7  C   UNL     1      -9.834  15.246  65.592  1.00  0.00    -0.348 C  
HETATM    8  C   UNL     1      -9.779  14.484  66.895  1.00  0.00    -0.252 C  
HETATM    9  N   UNL     1      -9.574  13.148  66.419  1.00  0.00    -0.267 N  
HETATM   10  C   UNL     1     -10.092  13.056  65.131  1.00  0.00    -0.221 C  
HETATM   11  O   UNL     1     -10.263  12.064  64.443  1.00  0.00    -0.278 OA 
HETATM   12  O   UNL     1     -10.442  14.310  64.690  1.00  0.00    -0.425 OA 
BRANCH   9  13
HETATM   13  C   UNL     1      -8.970  12.113  67.172  1.00  0.00    -0.189 A  
HETATM   14  C   UNL     1      -9.574  11.613  68.325  1.00  0.00    -0.198 A  
HETATM   15  C   UNL     1      -8.988  10.574  69.050  1.00  0.00    -0.176 A  
HETATM   16  C   UNL     1      -7.768   9.985  68.682  1.00  0.00    -0.086 A  
HETATM   17  F   UNL     1      -9.670  10.110  70.111  1.00  0.00    -0.264 F  
HETATM   18  C   UNL     1      -7.768  11.523  66.766  1.00  0.00    -0.136 A  
HETATM   19  C   UNL     1      -7.184  10.478  67.507  1.00  0.00    -0.090 A  
BRANCH  16  20
HETATM   20  N   UNL     1      -7.132   9.015  69.432  1.00  0.00    -0.056 NA 
HETATM   21  C   UNL     1      -6.442   9.333  70.694  1.00  0.00    -0.073 C  
HETATM   22  C   UNL     1      -7.127   8.626  71.869  1.00  0.00    -0.068 C  
HETATM   23  O   UNL     1      -7.184   7.205  71.647  1.00  0.00    -0.072 OA 
HETATM   24  C   UNL     1      -7.948   6.921  70.462  1.00  0.00    -0.114 C  
HETATM   25  C   UNL     1      -7.345   7.579  69.204  1.00  0.00    -0.086 C  
ENDBRANCH  16  20
ENDBRANCH   9  13
ENDBRANCH   6   7
ENDBRANCH   3   6
TORSDOF 4
ENDMDL
MODEL      113
REMARK 921   NORMALIZED FREE ENERGY PREDICTED BY IDOCK:   -4.57 KCAL/MOL
REMARK 922        TOTAL FREE ENERGY PREDICTED BY IDOCK:   -6.03 KCAL/MOL
REMARK 923 INTER-LIGAND FREE ENERGY PREDICTED BY IDOCK:   -5.46 KCAL/MOL
REMARK 924 INTRA-LIGAND FREE ENERGY PREDICTED BY IDOCK:   -0.58 KCAL/MOL
REMARK 927      BINDING AFFINITY PREDICTED BY RF-SCORE:    0.00 PKD
ROOT
HETATM    1  C   UNL     1      -9.057   3.832  63.176  1.00  0.00    -0.105 C  
HETATM    2  C   UNL     1     -10.126   4.079  64.205  1.00  0.00    -0.167 C  
HETATM    3  N   UNL     1      -9.752   4.968  65.184  1.00  0.00    -0.366 N  
HETATM    4  O   UNL     1     -11.230   3.551  64.155  1.00  0.00    -0.248 OA 
HETATM    5  H   UNL     1      -8.835   5.413  65.128  1.00  0.00     0.000 HD 
ENDROOT
BRANCH   3   6
HETATM    6  C   UNL     1     -10.628   5.292  66.301  1.00  0.00    -0.248 C  
BRANCH   6   7
HETATM    7  C   UNL     1     -10.065   6.447  67.114  1.00  0.00    -0.168 C  
HETATM    8  C   UNL     1     -10.515   7.811  66.647  1.00  0.00    -0.126 C  
HETATM    9  N   UNL     1     -10.405   8.563  67.862  1.00  0.00    -0.222 N  
HETATM   10  C   UNL     1     -10.535   7.687  68.935  1.00  0.00    -0.199 C  
HETATM   11  O   UNL     1     -10.661   7.941  70.121  1.00  0.00    -0.237 OA 
HETATM   12  O   UNL     1     -10.531   6.393  68.470  1.00  0.00    -0.179 OA 
BRANCH   9  13
HETATM   13  C   UNL     1     -10.224   9.966  67.922  1.00  0.00    -0.193 A  
HETATM   14  C   UNL     1      -9.000  10.518  68.297  1.00  0.00    -0.139 A  
HETATM   15  C   UNL     1      -8.817  11.902  68.329  1.00  0.00    -0.174 A  
HETATM   16  C   UNL     1      -9.837  12.811  68.007  1.00  0.00    -0.226 A  
HETATM   17  F   UNL     1      -7.587  12.348  68.638  1.00  0.00    -0.108 F  
HETATM   18  C   UNL     1     -11.248  10.849  67.567  1.00  0.00    -0.364 A  
HETATM   19  C   UNL     1     -11.054  12.243  67.607  1.00  0.00    -0.318 A  
BRANCH  16  20
HETATM   20  N   UNL     1      -9.700  14.182  68.115  1.00  0.00    -0.218 NA 
HETATM   21  C   UNL     1      -9.072  14.987  67.054  1.00  0.00    -0.230 C  
HETATM   22  C   UNL     1     -10.090  15.963  66.453  1.00  0.00    -0.292 C  
HETATM   23  O   UNL     1     -10.662  16.798  67.476  1.00  0.00    -0.328 OA 
HETATM   24  C   UNL     1     -11.352  15.991  68.444  1.00  0.00    -0.355 C  
HETATM   25  C   UNL     1     -10.420  14.968  69.126  1.00  0.00    -0.247 C  
ENDBRANCH  16  20
ENDBRANCH   9  13
ENDBRANCH   6   7
ENDBRANCH   3   6
TORSDOF 4
ENDMDL
MODEL      114
REMARK 921   NORMALIZED FREE ENERGY PREDICTED BY IDOCK:   -4.54 KCAL/MOL
REMARK 922        TOTAL FREE ENERGY PREDICTED BY IDOCK:   -6.00 KCAL/MOL
REMARK 923 INTER-LIGAND FREE ENERGY PREDICTED BY IDOCK:   -5.44 KCAL/MOL
REMARK 924 INTRA-LIGAND FREE ENERGY PREDICTED BY IDOCK:   -0.56 KCAL/MOL
REMARK 927      BINDING AFFINITY PREDICTED BY RF-SCORE:    0.00 PKD
ROOT
HETATM    1  C   UNL     1     -12.912  13.901  65.272  1.00  0.00    -0.341 C  
HETATM    2  C   UNL     1     -11.838  14.193  66.284  1.00  0.00    -0.411 C  
HETATM    3  N   UNL     1     -10.607  13.684  65.943  1.00  0.00    -0.284 N  
HETATM    4  O   UNL     1     -12.045  14.842  67.302  1.00  0.00    -0.307 OA 
HETATM    5  H   UNL     1     -10.499  13.204  65.050  1.00  0.00     0.000 HD 
ENDROOT
BRANCH   3   6
HETATM    6  C   UNL     1      -9.454  13.813  66.822  1.00  0.00    -0.275 C  
BRANCH   6   7
HETATM    7  C   UNL     1      -9.043  12.458  67.378  1.00  0.00    -0.183 C  
HETATM    8  C   UNL     1      -9.845  12.011  68.577  1.00  0.00    -0.172 C  
HETATM    9  N   UNL     1      -9.722  10.588  68.469  1.00  0.00    -0.159 N  
HETATM   10  C   UNL     1      -9.497  10.265  67.135  1.00  0.00    -0.158 C  
HETATM   11  O   UNL     1      -9.497   9.170  66.600  1.00  0.00    -0.159 OA 
HETATM   12  O   UNL     1      -9.279  11.419  66.418  1.00  0.00    -0.185 OA 
BRANCH   9  13
HETATM   13  C   UNL     1      -9.845   9.689  69.556  1.00  0.00    -0.206 A  
HETATM   14  C   UNL     1     -10.804   9.884  70.548  1.00  0.00    -0.391 A  
HETATM   15  C   UNL     1     -10.940   8.980  71.603  1.00  0.00    -0.365 A  
HETATM   16  C   UNL     1     -10.125   7.845  71.741  1.00  0.00    -0.185 A  
HETATM   17  F   UNL     1     -11.933   9.210  72.480  1.00  0.00    -0.380 F  
HETATM   18  C   UNL     1      -9.040   8.548  69.652  1.00  0.00    -0.149 A  
HETATM   19  C   UNL     1      -9.183   7.646  70.723  1.00  0.00    -0.157 A  
BRANCH  16  20
HETATM   20  N   UNL     1     -10.189   6.987  72.822  1.00  0.00    -0.188 NA 
HETATM   21  C   UNL     1     -10.609   5.583  72.678  1.00  0.00    -0.226 C  
HETATM   22  C   UNL     1      -9.458   4.641  73.047  1.00  0.00    -0.129 C  
HETATM   23  O   UNL     1      -8.983   4.913  74.378  1.00  0.00    -0.111 OA 
HETATM   24  C   UNL     1      -8.487   6.260  74.461  1.00  0.00    -0.131 C  
HETATM   25  C   UNL     1      -9.569   7.304  74.116  1.00  0.00    -0.184 C  
ENDBRANCH  16  20
ENDBRANCH   9  13
ENDBRANCH   6   7
ENDBRANCH   3   6
TORSDOF 4
ENDMDL
MODEL      115
REMARK 921   NORMALIZED FREE ENERGY PREDICTED BY IDOCK:   -4.53 KCAL/MOL
REMARK 922        TOTAL FREE ENERGY PREDICTED BY IDOCK:   -5.98 KCAL/MOL
REMARK 923 INTER-LIGAND FREE ENERGY PREDICTED BY IDOCK:   -5.30 KCAL/MOL
REMARK 924 INTRA-LIGAND FREE ENERGY PREDICTED BY IDOCK:   -0.68 KCAL/MOL
REMARK 927      BINDING AFFINITY PREDICTED BY RF-SCORE:    0.00 PKD
ROOT
HETATM    1  C   UNL     1      -8.561  17.862  66.798  1.00  0.00    -0.271 C  
HETATM    2  C   UNL     1      -9.941  17.387  66.437  1.00  0.00    -0.316 C  
HETATM    3  N   UNL     1      -9.946  16.276  65.626  1.00  0.00    -0.317 N  
HETATM    4  O   UNL     1     -10.959  17.930  66.848  1.00  0.00    -0.138 OA 
HETATM    5  H   UNL     1      -9.058  15.844  65.371  1.00  0.00     0.000 HD 
ENDROOT
BRANCH   3   6
HETATM    6  C   UNL     1     -11.185  15.701  65.122  1.00  0.00    -0.282 C  
BRANCH   6   7
HETATM    7  C   UNL     1     -10.925  14.365  64.444  1.00  0.00    -0.153 C  
HETATM    8  C   UNL     1     -10.272  13.334  65.335  1.00  0.00    -0.293 C  
HETATM    9  N   UNL     1     -10.726  12.121  64.723  1.00  0.00    -0.288 N  
HETATM   10  C   UNL     1     -11.923  12.381  64.064  1.00  0.00    -0.460 C  
HETATM   11  O   UNL     1     -12.708  11.595  63.561  1.00  0.00    -0.445 OA 
HETATM   12  O   UNL     1     -12.157  13.736  64.063  1.00  0.00    -0.461 OA 
BRANCH   9  13
HETATM   13  C   UNL     1     -10.057  10.877  64.819  1.00  0.00    -0.321 A  
HETATM   14  C   UNL     1      -9.392  10.330  63.722  1.00  0.00    -0.339 A  
HETATM   15  C   UNL     1      -8.711   9.116  63.828  1.00  0.00    -0.125 A  
HETATM   16  C   UNL     1      -8.665   8.372  65.018  1.00  0.00    -0.056 A  
HETATM   17  F   UNL     1      -8.043   8.694  62.740  1.00  0.00    -0.141 F  
HETATM   18  C   UNL     1     -10.000  10.171  66.025  1.00  0.00    -0.322 A  
HETATM   19  C   UNL     1      -9.314   8.945  66.120  1.00  0.00    -0.301 A  
BRANCH  16  20
HETATM   20  N   UNL     1      -8.068   7.130  65.118  1.00  0.00    -0.128 NA 
HETATM   21  C   UNL     1      -8.770   5.895  64.732  1.00  0.00     0.076 C  
HETATM   22  C   UNL     1      -8.061   5.227  63.548  1.00  0.00    -0.115 C  
HETATM   23  O   UNL     1      -6.679   4.970  63.858  1.00  0.00    -0.040 OA 
HETATM   24  C   UNL     1      -5.997   6.205  64.134  1.00  0.00    -0.022 C  
HETATM   25  C   UNL     1      -6.621   6.967  65.322  1.00  0.00    -0.047 C  
ENDBRANCH  16  20
ENDBRANCH   9  13
ENDBRANCH   6   7
ENDBRANCH   3   6
TORSDOF 4
ENDMDL
MODEL      116
REMARK 921   NORMALIZED FREE ENERGY PREDICTED BY IDOCK:   -4.49 KCAL/MOL
REMARK 922        TOTAL FREE ENERGY PREDICTED BY IDOCK:   -5.94 KCAL/MOL
REMARK 923 INTER-LIGAND FREE ENERGY PREDICTED BY IDOCK:   -5.33 KCAL/MOL
REMARK 924 INTRA-LIGAND FREE ENERGY PREDICTED BY IDOCK:   -0.61 KCAL/MOL
REMARK 927      BINDING AFFINITY PREDICTED BY RF-SCORE:    0.00 PKD
ROOT
HETATM    1  C   UNL     1      -9.419   3.663  68.022  1.00  0.00    -0.218 C  
HETATM    2  C   UNL     1      -8.709   3.896  66.717  1.00  0.00    -0.115 C  
HETATM    3  N   UNL     1      -8.245   5.182  66.565  1.00  0.00    -0.108 N  
HETATM    4  O   UNL     1      -8.546   3.014  65.884  1.00  0.00    -0.106 OA 
HETATM    5  H   UNL     1      -8.368   5.847  67.328  1.00  0.00     0.000 HD 
ENDROOT
BRANCH   3   6
HETATM    6  C   UNL     1      -7.582   5.618  65.344  1.00  0.00    -0.083 C  
BRANCH   6   7
HETATM    7  C   UNL     1      -8.281   6.831  64.752  1.00  0.00    -0.052 C  
HETATM    8  C   UNL     1      -8.436   7.986  65.713  1.00  0.00    -0.147 C  
HETATM    9  N   UNL     1      -8.491   9.091  64.802  1.00  0.00    -0.173 N  
HETATM   10  C   UNL     1      -7.821   8.734  63.636  1.00  0.00    -0.145 C  
HETATM   11  O   UNL     1      -7.502   9.433  62.690  1.00  0.00    -0.103 OA 
HETATM   12  O   UNL     1      -7.508   7.395  63.683  1.00  0.00    -0.089 OA 
BRANCH   9  13
HETATM   13  C   UNL     1      -9.108  10.333  65.085  1.00  0.00    -0.197 A  
HETATM   14  C   UNL     1     -10.258  10.737  64.409  1.00  0.00    -0.432 A  
HETATM   15  C   UNL     1     -10.879  11.952  64.710  1.00  0.00    -0.307 A  
HETATM   16  C   UNL     1     -10.387  12.835  65.684  1.00  0.00    -0.279 A  
HETATM   17  F   UNL     1     -12.019  12.233  64.055  1.00  0.00    -0.412 F  
HETATM   18  C   UNL     1      -8.614  11.181  66.082  1.00  0.00    -0.172 A  
HETATM   19  C   UNL     1      -9.246  12.405  66.375  1.00  0.00    -0.192 A  
BRANCH  16  20
HETATM   20  N   UNL     1     -10.938  14.076  65.936  1.00  0.00    -0.284 NA 
HETATM   21  C   UNL     1     -11.980  14.273  66.958  1.00  0.00    -0.433 C  
HETATM   22  C   UNL     1     -11.465  15.188  68.074  1.00  0.00    -0.342 C  
HETATM   23  O   UNL     1     -11.014  16.445  67.537  1.00  0.00    -0.285 OA 
HETATM   24  C   UNL     1      -9.930  16.228  66.617  1.00  0.00    -0.264 C  
HETATM   25  C   UNL     1     -10.336  15.321  65.437  1.00  0.00    -0.393 C  
ENDBRANCH  16  20
ENDBRANCH   9  13
ENDBRANCH   6   7
ENDBRANCH   3   6
TORSDOF 4
ENDMDL
MODEL      117
REMARK 921   NORMALIZED FREE ENERGY PREDICTED BY IDOCK:   -4.49 KCAL/MOL
REMARK 922        TOTAL FREE ENERGY PREDICTED BY IDOCK:   -5.94 KCAL/MOL
REMARK 923 INTER-LIGAND FREE ENERGY PREDICTED BY IDOCK:   -5.85 KCAL/MOL
REMARK 924 INTRA-LIGAND FREE ENERGY PREDICTED BY IDOCK:   -0.09 KCAL/MOL
REMARK 927      BINDING AFFINITY PREDICTED BY RF-SCORE:    0.00 PKD
ROOT
HETATM    1  C   UNL     1      -8.561   4.117  73.129  1.00  0.00    -0.093 C  
HETATM    2  C   UNL     1      -9.711   5.010  73.509  1.00  0.00    -0.141 C  
HETATM    3  N   UNL     1     -10.875   4.724  72.836  1.00  0.00    -0.229 N  
HETATM    4  O   UNL     1      -9.615   5.891  74.354  1.00  0.00    -0.155 OA 
HETATM    5  H   UNL     1     -10.894   3.936  72.188  1.00  0.00     0.000 HD 
ENDROOT
BRANCH   3   6
HETATM    6  C   UNL     1     -12.083   5.514  73.025  1.00  0.00     0.255 C  
BRANCH   6   7
HETATM    7  C   UNL     1     -12.278   6.488  71.873  1.00  0.00    -0.324 C  
HETATM    8  C   UNL     1     -12.002   7.930  72.227  1.00  0.00    -0.337 C  
HETATM    9  N   UNL     1     -11.637   8.458  70.947  1.00  0.00    -0.276 N  
HETATM   10  C   UNL     1     -11.139   7.419  70.167  1.00  0.00    -0.246 C  
HETATM   11  O   UNL     1     -10.577   7.473  69.087  1.00  0.00    -0.219 OA 
HETATM   12  O   UNL     1     -11.345   6.225  70.816  1.00  0.00    -0.317 OA 
BRANCH   9  13
HETATM   13  C   UNL     1     -11.752   9.821  70.580  1.00  0.00    -0.300 A  
HETATM   14  C   UNL     1     -10.886  10.391  69.649  1.00  0.00    -0.320 A  
HETATM   15  C   UNL     1     -11.019  11.729  69.270  1.00  0.00    -0.175 A  
HETATM   16  C   UNL     1     -12.004  12.575  69.802  1.00  0.00    -0.289 A  
HETATM   17  F   UNL     1     -10.183  12.179  68.318  1.00  0.00    -0.184 F  
HETATM   18  C   UNL     1     -12.763  10.634  71.103  1.00  0.00    -0.522 A  
HETATM   19  C   UNL     1     -12.885  11.982  70.718  1.00  0.00    -0.118 A  
BRANCH  16  20
HETATM   20  N   UNL     1     -12.098  13.920  69.502  1.00  0.00    -0.338 NA 
HETATM   21  C   UNL     1     -12.107  14.954  70.551  1.00  0.00    -0.320 C  
HETATM   22  C   UNL     1     -10.873  15.853  70.424  1.00  0.00    -0.313 C  
HETATM   23  O   UNL     1     -10.801  16.439  69.111  1.00  0.00    -0.289 OA 
HETATM   24  C   UNL     1     -10.693  15.409  68.115  1.00  0.00    -0.271 C  
HETATM   25  C   UNL     1     -11.893  14.439  68.142  1.00  0.00    -0.327 C  
ENDBRANCH  16  20
ENDBRANCH   9  13
ENDBRANCH   6   7
ENDBRANCH   3   6
TORSDOF 4
ENDMDL
MODEL      118
REMARK 921   NORMALIZED FREE ENERGY PREDICTED BY IDOCK:   -4.48 KCAL/MOL
REMARK 922        TOTAL FREE ENERGY PREDICTED BY IDOCK:   -5.93 KCAL/MOL
REMARK 923 INTER-LIGAND FREE ENERGY PREDICTED BY IDOCK:   -5.61 KCAL/MOL
REMARK 924 INTRA-LIGAND FREE ENERGY PREDICTED BY IDOCK:   -0.32 KCAL/MOL
REMARK 927      BINDING AFFINITY PREDICTED BY RF-SCORE:    0.00 PKD
ROOT
HETATM    1  C   UNL     1      -9.599  10.489  62.839  1.00  0.00    -0.355 C  
HETATM    2  C   UNL     1      -9.381  10.705  64.311  1.00  0.00    -0.258 C  
HETATM    3  N   UNL     1     -10.193  11.675  64.851  1.00  0.00    -0.257 N  
HETATM    4  O   UNL     1      -8.571  10.059  64.964  1.00  0.00    -0.143 OA 
HETATM    5  H   UNL     1     -10.885  12.131  64.256  1.00  0.00     0.000 HD 
ENDROOT
BRANCH   3   6
HETATM    6  C   UNL     1     -10.091  12.070  66.248  1.00  0.00    -0.222 C  
BRANCH   6   7
HETATM    7  C   UNL     1     -10.795  11.066  67.148  1.00  0.00    -0.282 C  
HETATM    8  C   UNL     1      -9.950  10.563  68.295  1.00  0.00    -0.159 C  
HETATM    9  N   UNL     1     -10.964  10.214  69.245  1.00  0.00    -0.231 N  
HETATM   10  C   UNL     1     -12.092  10.986  68.988  1.00  0.00    -0.215 C  
HETATM   11  O   UNL     1     -13.104  11.112  69.656  1.00  0.00     0.076 OA 
HETATM   12  O   UNL     1     -11.918  11.668  67.807  1.00  0.00    -0.608 OA 
BRANCH   9  13
HETATM   13  C   UNL     1     -10.799   9.261  70.278  1.00  0.00    -0.246 A  
HETATM   14  C   UNL     1      -9.871   8.227  70.164  1.00  0.00    -0.184 A  
HETATM   15  C   UNL     1      -9.693   7.305  71.197  1.00  0.00    -0.171 A  
HETATM   16  C   UNL     1     -10.433   7.347  72.389  1.00  0.00    -0.233 A  
HETATM   17  F   UNL     1      -8.731   6.380  71.029  1.00  0.00    -0.130 F  
HETATM   18  C   UNL     1     -11.528   9.345  71.470  1.00  0.00    -0.467 A  
HETATM   19  C   UNL     1     -11.343   8.406  72.503  1.00  0.00    -0.416 A  
BRANCH  16  20
HETATM   20  N   UNL     1     -10.329   6.395  73.385  1.00  0.00    -0.229 NA 
HETATM   21  C   UNL     1     -10.959   5.069  73.264  1.00  0.00    -0.318 C  
HETATM   22  C   UNL     1      -9.889   3.971  73.241  1.00  0.00    -0.129 C  
HETATM   23  O   UNL     1      -9.053   4.049  74.409  1.00  0.00    -0.099 OA 
HETATM   24  C   UNL     1      -8.375   5.317  74.448  1.00  0.00    -0.104 C  
HETATM   25  C   UNL     1      -9.357   6.506  74.481  1.00  0.00    -0.232 C  
ENDBRANCH  16  20
ENDBRANCH   9  13
ENDBRANCH   6   7
ENDBRANCH   3   6
TORSDOF 4
ENDMDL
MODEL      119
REMARK 921   NORMALIZED FREE ENERGY PREDICTED BY IDOCK:   -4.44 KCAL/MOL
REMARK 922        TOTAL FREE ENERGY PREDICTED BY IDOCK:   -5.88 KCAL/MOL
REMARK 923 INTER-LIGAND FREE ENERGY PREDICTED BY IDOCK:   -5.65 KCAL/MOL
REMARK 924 INTRA-LIGAND FREE ENERGY PREDICTED BY IDOCK:   -0.23 KCAL/MOL
REMARK 927      BINDING AFFINITY PREDICTED BY RF-SCORE:    0.00 PKD
ROOT
HETATM    1  C   UNL     1     -12.529  15.317  73.904  1.00  0.00    -0.752 C  
HETATM    2  C   UNL     1     -12.978  15.069  72.490  1.00  0.00    -0.374 C  
HETATM    3  N   UNL     1     -12.151  14.222  71.790  1.00  0.00    -0.297 N  
HETATM    4  O   UNL     1     -13.997  15.561  72.022  1.00  0.00    -0.484 OA 
HETATM    5  H   UNL     1     -11.351  13.804  72.266  1.00  0.00     0.000 HD 
ENDROOT
BRANCH   3   6
HETATM    6  C   UNL     1     -12.387  13.905  70.389  1.00  0.00    -0.363 C  
BRANCH   6   7
HETATM    7  C   UNL     1     -12.450  12.401  70.177  1.00  0.00    -0.020 C  
HETATM    8  C   UNL     1     -11.179  11.801  69.621  1.00  0.00    -0.152 C  
HETATM    9  N   UNL     1     -11.275  10.460  70.116  1.00  0.00    -0.301 N  
HETATM   10  C   UNL     1     -12.055  10.470  71.268  1.00  0.00    -0.332 C  
HETATM   11  O   UNL     1     -12.244   9.575  72.073  1.00  0.00    -0.358 OA 
HETATM   12  O   UNL     1     -12.619  11.714  71.424  1.00  0.00    -0.349 OA 
BRANCH   9  13
HETATM   13  C   UNL     1     -10.644   9.340  69.522  1.00  0.00    -0.224 A  
HETATM   14  C   UNL     1     -10.454   8.158  70.237  1.00  0.00    -0.219 A  
HETATM   15  C   UNL     1      -9.855   7.047  69.640  1.00  0.00    -0.164 A  
HETATM   16  C   UNL     1      -9.399   7.051  68.312  1.00  0.00    -0.126 A  
HETATM   17  F   UNL     1      -9.770   5.928  70.380  1.00  0.00    -0.175 F  
HETATM   18  C   UNL     1     -10.227   9.361  68.187  1.00  0.00    -0.239 A  
HETATM   19  C   UNL     1      -9.620   8.236  67.597  1.00  0.00    -0.187 A  
BRANCH  16  20
HETATM   20  N   UNL     1      -8.730   5.991  67.732  1.00  0.00    -0.106 NA 
HETATM   21  C   UNL     1      -9.169   5.394  66.459  1.00  0.00    -0.138 C  
HETATM   22  C   UNL     1      -8.099   5.592  65.380  1.00  0.00    -0.123 C  
HETATM   23  O   UNL     1      -6.837   5.047  65.807  1.00  0.00    -0.058 OA 
HETATM   24  C   UNL     1      -6.386   5.717  66.995  1.00  0.00    -0.038 C  
HETATM   25  C   UNL     1      -7.386   5.580  68.162  1.00  0.00    -0.073 C  
ENDBRANCH  16  20
ENDBRANCH   9  13
ENDBRANCH   6   7
ENDBRANCH   3   6
TORSDOF 4
ENDMDL
MODEL      120
REMARK 921   NORMALIZED FREE ENERGY PREDICTED BY IDOCK:   -4.41 KCAL/MOL
REMARK 922        TOTAL FREE ENERGY PREDICTED BY IDOCK:   -5.84 KCAL/MOL
REMARK 923 INTER-LIGAND FREE ENERGY PREDICTED BY IDOCK:   -5.13 KCAL/MOL
REMARK 924 INTRA-LIGAND FREE ENERGY PREDICTED BY IDOCK:   -0.72 KCAL/MOL
REMARK 927      BINDING AFFINITY PREDICTED BY RF-SCORE:    0.00 PKD
ROOT
HETATM    1  C   UNL     1      -7.942  15.456  69.408  1.00  0.00    -0.234 C  
HETATM    2  C   UNL     1      -8.100  14.598  68.183  1.00  0.00    -0.137 C  
HETATM    3  N   UNL     1      -9.295  13.920  68.136  1.00  0.00    -0.198 N  
HETATM    4  O   UNL     1      -7.249  14.533  67.305  1.00  0.00    -0.177 OA 
HETATM    5  H   UNL     1      -9.980  14.070  68.877  1.00  0.00     0.000 HD 
ENDROOT
BRANCH   3   6
HETATM    6  C   UNL     1      -9.610  12.995  67.057  1.00  0.00    -0.236 C  
BRANCH   6   7
HETATM    7  C   UNL     1     -10.236  11.720  67.602  1.00  0.00    -0.199 C  
HETATM    8  C   UNL     1      -9.390  11.005  68.629  1.00  0.00    -0.194 C  
HETATM    9  N   UNL     1     -10.399  10.314  69.376  1.00  0.00    -0.221 N  
HETATM   10  C   UNL     1     -11.594  11.016  69.256  1.00  0.00    -0.314 C  
HETATM   11  O   UNL     1     -12.641  10.857  69.860  1.00  0.00    -0.289 OA 
HETATM   12  O   UNL     1     -11.445  12.009  68.316  1.00  0.00    -0.256 OA 
BRANCH   9  13
HETATM   13  C   UNL     1     -10.174   9.134  70.125  1.00  0.00    -0.205 A  
HETATM   14  C   UNL     1     -10.707   7.911  69.719  1.00  0.00    -0.233 A  
HETATM   15  C   UNL     1     -10.460   6.744  70.445  1.00  0.00    -0.206 A  
HETATM   16  C   UNL     1      -9.688   6.728  71.617  1.00  0.00    -0.162 A  
HETATM   17  F   UNL     1     -10.959   5.599  69.947  1.00  0.00    -0.375 F  
HETATM   18  C   UNL     1      -9.374   9.140  71.272  1.00  0.00    -0.285 A  
HETATM   19  C   UNL     1      -9.136   7.958  71.999  1.00  0.00    -0.198 A  
BRANCH  16  20
HETATM   20  N   UNL     1      -9.503   5.600  72.393  1.00  0.00    -0.144 NA 
HETATM   21  C   UNL     1     -10.345   5.316  73.567  1.00  0.00    -0.220 C  
HETATM   22  C   UNL     1     -11.149   4.029  73.348  1.00  0.00    -0.246 C  
HETATM   23  O   UNL     1     -10.274   2.925  73.051  1.00  0.00    -0.130 OA 
HETATM   24  C   UNL     1      -9.538   3.189  71.845  1.00  0.00    -0.152 C  
HETATM   25  C   UNL     1      -8.679   4.466  71.950  1.00  0.00    -0.116 C  
ENDBRANCH  16  20
ENDBRANCH   9  13
ENDBRANCH   6   7
ENDBRANCH   3   6
TORSDOF 4
ENDMDL
MODEL      121
REMARK 921   NORMALIZED FREE ENERGY PREDICTED BY IDOCK:   -4.35 KCAL/MOL
REMARK 922        TOTAL FREE ENERGY PREDICTED BY IDOCK:   -5.76 KCAL/MOL
REMARK 923 INTER-LIGAND FREE ENERGY PREDICTED BY IDOCK:   -5.11 KCAL/MOL
REMARK 924 INTRA-LIGAND FREE ENERGY PREDICTED BY IDOCK:   -0.65 KCAL/MOL
REMARK 927      BINDING AFFINITY PREDICTED BY RF-SCORE:    0.00 PKD
ROOT
HETATM    1  C   UNL     1     -10.928   2.403  62.923  1.00  0.00    -0.221 C  
HETATM    2  C   UNL     1      -9.695   2.424  63.782  1.00  0.00    -0.134 C  
HETATM    3  N   UNL     1      -9.780   3.291  64.846  1.00  0.00    -0.277 N  
HETATM    4  O   UNL     1      -8.720   1.716  63.561  1.00  0.00    -0.078 OA 
HETATM    5  H   UNL     1     -10.647   3.806  64.999  1.00  0.00     0.000 HD 
ENDROOT
BRANCH   3   6
HETATM    6  C   UNL     1      -8.665   3.495  65.759  1.00  0.00    -0.121 C  
BRANCH   6   7
HETATM    7  C   UNL     1      -8.242   4.956  65.782  1.00  0.00    -0.113 C  
HETATM    8  C   UNL     1      -9.394   5.933  65.836  1.00  0.00    -0.049 C  
HETATM    9  N   UNL     1      -8.767   7.055  66.468  1.00  0.00    -0.128 N  
HETATM   10  C   UNL     1      -7.702   6.591  67.235  1.00  0.00    -0.101 C  
HETATM   11  O   UNL     1      -7.021   7.194  68.046  1.00  0.00    -0.074 OA 
HETATM   12  O   UNL     1      -7.501   5.256  66.972  1.00  0.00    -0.085 OA 
BRANCH   9  13
HETATM   13  C   UNL     1      -9.202   8.395  66.336  1.00  0.00    -0.201 A  
HETATM   14  C   UNL     1     -10.280   8.879  67.077  1.00  0.00    -0.345 A  
HETATM   15  C   UNL     1     -10.690  10.209  66.963  1.00  0.00    -0.196 A  
HETATM   16  C   UNL     1     -10.065  11.125  66.103  1.00  0.00    -0.238 A  
HETATM   17  F   UNL     1     -11.697  10.607  67.761  1.00  0.00    -0.368 F  
HETATM   18  C   UNL     1      -8.542   9.296  65.495  1.00  0.00    -0.172 A  
HETATM   19  C   UNL     1      -8.966  10.635  65.385  1.00  0.00    -0.208 A  
BRANCH  16  20
HETATM   20  N   UNL     1     -10.509  12.420  65.916  1.00  0.00    -0.250 NA 
HETATM   21  C   UNL     1     -11.342  12.800  64.762  1.00  0.00    -0.309 C  
HETATM   22  C   UNL     1     -12.723  13.270  65.233  1.00  0.00    -0.412 C  
HETATM   23  O   UNL     1     -12.601  14.354  66.171  1.00  0.00    -0.375 OA 
HETATM   24  C   UNL     1     -11.869  13.925  67.331  1.00  0.00    -0.402 C  
HETATM   25  C   UNL     1     -10.449  13.434  66.979  1.00  0.00    -0.257 C  
ENDBRANCH  16  20
ENDBRANCH   9  13
ENDBRANCH   6   7
ENDBRANCH   3   6
TORSDOF 4
ENDMDL
MODEL      122
REMARK 921   NORMALIZED FREE ENERGY PREDICTED BY IDOCK:   -4.32 KCAL/MOL
REMARK 922        TOTAL FREE ENERGY PREDICTED BY IDOCK:   -5.73 KCAL/MOL
REMARK 923 INTER-LIGAND FREE ENERGY PREDICTED BY IDOCK:   -5.17 KCAL/MOL
REMARK 924 INTRA-LIGAND FREE ENERGY PREDICTED BY IDOCK:   -0.56 KCAL/MOL
REMARK 927      BINDING AFFINITY PREDICTED BY RF-SCORE:    0.00 PKD
ROOT
HETATM    1  C   UNL     1     -10.206  17.976  66.529  1.00  0.00    -0.383 C  
HETATM    2  C   UNL     1     -10.650  16.783  65.727  1.00  0.00    -0.250 C  
HETATM    3  N   UNL     1     -10.716  15.622  66.460  1.00  0.00    -0.307 N  
HETATM    4  O   UNL     1     -10.944  16.854  64.540  1.00  0.00    -0.989 OA 
HETATM    5  H   UNL     1     -10.512  15.652  67.459  1.00  0.00     0.000 HD 
ENDROOT
BRANCH   3   6
HETATM    6  C   UNL     1     -11.070  14.349  65.848  1.00  0.00    -0.319 C  
BRANCH   6   7
HETATM    7  C   UNL     1     -10.114  13.251  66.289  1.00  0.00    -0.294 C  
HETATM    8  C   UNL     1     -10.727  12.236  67.226  1.00  0.00    -0.231 C  
HETATM    9  N   UNL     1      -9.910  11.091  66.955  1.00  0.00    -0.188 N  
HETATM   10  C   UNL     1      -9.402  11.207  65.665  1.00  0.00    -0.219 C  
HETATM   11  O   UNL     1      -8.803  10.380  64.999  1.00  0.00    -0.174 OA 
HETATM   12  O   UNL     1      -9.697  12.456  65.171  1.00  0.00    -0.179 OA 
BRANCH   9  13
HETATM   13  C   UNL     1      -9.701  10.024  67.862  1.00  0.00    -0.146 A  
HETATM   14  C   UNL     1      -8.428   9.731  68.348  1.00  0.00    -0.114 A  
HETATM   15  C   UNL     1      -8.230   8.695  69.263  1.00  0.00    -0.113 A  
HETATM   16  C   UNL     1      -9.277   7.886  69.732  1.00  0.00    -0.150 A  
HETATM   17  F   UNL     1      -6.981   8.523  69.729  1.00  0.00    -0.044 F  
HETATM   18  C   UNL     1     -10.767   9.253  68.338  1.00  0.00    -0.192 A  
HETATM   19  C   UNL     1     -10.555   8.208  69.257  1.00  0.00    -0.191 A  
BRANCH  16  20
HETATM   20  N   UNL     1      -9.087   6.805  70.571  1.00  0.00    -0.155 NA 
HETATM   21  C   UNL     1      -8.312   5.624  70.157  1.00  0.00    -0.118 C  
HETATM   22  C   UNL     1      -7.062   5.473  71.032  1.00  0.00    -0.069 C  
HETATM   23  O   UNL     1      -7.419   5.404  72.425  1.00  0.00    -0.092 OA 
HETATM   24  C   UNL     1      -8.087   6.613  72.824  1.00  0.00    -0.107 C  
HETATM   25  C   UNL     1      -9.374   6.867  72.012  1.00  0.00    -0.140 C  
ENDBRANCH  16  20
ENDBRANCH   9  13
ENDBRANCH   6   7
ENDBRANCH   3   6
TORSDOF 4
ENDMDL
MODEL      123
REMARK 921   NORMALIZED FREE ENERGY PREDICTED BY IDOCK:   -4.23 KCAL/MOL
REMARK 922        TOTAL FREE ENERGY PREDICTED BY IDOCK:   -5.62 KCAL/MOL
REMARK 923 INTER-LIGAND FREE ENERGY PREDICTED BY IDOCK:   -5.02 KCAL/MOL
REMARK 924 INTRA-LIGAND FREE ENERGY PREDICTED BY IDOCK:   -0.60 KCAL/MOL
REMARK 927      BINDING AFFINITY PREDICTED BY RF-SCORE:    0.00 PKD
ROOT
HETATM    1  C   UNL     1     -12.334  12.450  63.527  1.00  0.00    -0.648 C  
HETATM    2  C   UNL     1     -11.419  12.430  64.721  1.00  0.00    -0.325 C  
HETATM    3  N   UNL     1     -10.664  11.285  64.815  1.00  0.00    -0.305 N  
HETATM    4  O   UNL     1     -11.344  13.359  65.515  1.00  0.00    -0.292 OA 
HETATM    5  H   UNL     1     -10.738  10.579  64.083  1.00  0.00     0.000 HD 
ENDROOT
BRANCH   3   6
HETATM    6  C   UNL     1      -9.760  11.054  65.933  1.00  0.00    -0.224 C  
BRANCH   6   7
HETATM    7  C   UNL     1     -10.422  10.190  66.995  1.00  0.00    -0.240 C  
HETATM    8  C   UNL     1      -9.538   9.093  67.541  1.00  0.00    -0.150 C  
HETATM    9  N   UNL     1     -10.107   8.910  68.843  1.00  0.00    -0.192 N  
HETATM   10  C   UNL     1     -10.722  10.097  69.226  1.00  0.00    -0.231 C  
HETATM   11  O   UNL     1     -11.177  10.409  70.313  1.00  0.00    -0.283 OA 
HETATM   12  O   UNL     1     -10.740  10.965  68.159  1.00  0.00    -0.186 OA 
BRANCH   9  13
HETATM   13  C   UNL     1     -10.015   7.715  69.596  1.00  0.00    -0.185 A  
HETATM   14  C   UNL     1      -8.794   7.064  69.768  1.00  0.00    -0.142 A  
HETATM   15  C   UNL     1      -8.702   5.900  70.534  1.00  0.00    -0.140 A  
HETATM   16  C   UNL     1      -9.814   5.312  71.158  1.00  0.00    -0.189 A  
HETATM   17  F   UNL     1      -7.476   5.375  70.700  1.00  0.00    -0.069 F  
HETATM   18  C   UNL     1     -11.133   7.167  70.233  1.00  0.00    -0.303 A  
HETATM   19  C   UNL     1     -11.030   5.991  71.000  1.00  0.00    -0.350 A  
BRANCH  16  20
HETATM   20  N   UNL     1      -9.756   4.117  71.849  1.00  0.00    -0.159 NA 
HETATM   21  C   UNL     1      -9.664   2.821  71.158  1.00  0.00    -0.113 C  
HETATM   22  C   UNL     1      -8.337   2.131  71.494  1.00  0.00    -0.054 C  
HETATM   23  O   UNL     1      -8.188   1.977  72.917  1.00  0.00    -0.056 OA 
HETATM   24  C   UNL     1      -8.182   3.266  73.555  1.00  0.00    -0.074 C  
HETATM   25  C   UNL     1      -9.481   4.056  73.292  1.00  0.00    -0.111 C  
ENDBRANCH  16  20
ENDBRANCH   9  13
ENDBRANCH   6   7
ENDBRANCH   3   6
TORSDOF 4
ENDMDL
MODEL      124
REMARK 921   NORMALIZED FREE ENERGY PREDICTED BY IDOCK:   -4.22 KCAL/MOL
REMARK 922        TOTAL FREE ENERGY PREDICTED BY IDOCK:   -5.60 KCAL/MOL
REMARK 923 INTER-LIGAND FREE ENERGY PREDICTED BY IDOCK:   -5.46 KCAL/MOL
REMARK 924 INTRA-LIGAND FREE ENERGY PREDICTED BY IDOCK:   -0.14 KCAL/MOL
REMARK 927      BINDING AFFINITY PREDICTED BY RF-SCORE:    0.00 PKD
ROOT
HETATM    1  C   UNL     1      -9.177  15.633  68.969  1.00  0.00    -0.243 C  
HETATM    2  C   UNL     1      -9.485  14.724  67.811  1.00  0.00    -0.204 C  
HETATM    3  N   UNL     1     -10.169  13.587  68.172  1.00  0.00    -0.242 N  
HETATM    4  O   UNL     1      -9.172  14.989  66.657  1.00  0.00    -0.241 OA 
HETATM    5  H   UNL     1     -10.447  13.462  69.145  1.00  0.00     0.000 HD 
ENDROOT
BRANCH   3   6
HETATM    6  C   UNL     1     -10.507  12.556  67.201  1.00  0.00    -0.224 C  
BRANCH   6   7
HETATM    7  C   UNL     1     -10.017  11.193  67.664  1.00  0.00    -0.174 C  
HETATM    8  C   UNL     1     -10.624  10.726  68.966  1.00  0.00    -0.219 C  
HETATM    9  N   UNL     1     -10.522   9.305  68.818  1.00  0.00    -0.211 N  
HETATM   10  C   UNL     1     -10.506   9.004  67.460  1.00  0.00    -0.272 C  
HETATM   11  O   UNL     1     -10.591   7.917  66.914  1.00  0.00    -0.341 OA 
HETATM   12  O   UNL     1     -10.400  10.169  66.737  1.00  0.00    -0.223 OA 
BRANCH   9  13
HETATM   13  C   UNL     1     -10.476   8.388  69.896  1.00  0.00    -0.222 A  
HETATM   14  C   UNL     1     -10.089   8.795  71.172  1.00  0.00    -0.317 A  
HETATM   15  C   UNL     1     -10.071   7.894  72.238  1.00  0.00    -0.236 A  
HETATM   16  C   UNL     1     -10.420   6.541  72.096  1.00  0.00    -0.205 A  
HETATM   17  F   UNL     1      -9.748   8.386  73.447  1.00  0.00    -0.304 F  
HETATM   18  C   UNL     1     -10.859   7.053  69.733  1.00  0.00    -0.276 A  
HETATM   19  C   UNL     1     -10.832   6.151  70.814  1.00  0.00    -0.350 A  
BRANCH  16  20
HETATM   20  N   UNL     1     -10.328   5.618  73.119  1.00  0.00    -0.191 NA 
HETATM   21  C   UNL     1     -11.361   4.592  73.339  1.00  0.00    -0.305 C  
HETATM   22  C   UNL     1     -10.774   3.192  73.129  1.00  0.00    -0.161 C  
HETATM   23  O   UNL     1      -9.636   2.981  73.985  1.00  0.00    -0.090 OA 
HETATM   24  C   UNL     1      -8.605   3.935  73.680  1.00  0.00    -0.091 C  
HETATM   25  C   UNL     1      -9.081   5.392  73.864  1.00  0.00    -0.122 C  
ENDBRANCH  16  20
ENDBRANCH   9  13
ENDBRANCH   6   7
ENDBRANCH   3   6
TORSDOF 4
ENDMDL
MODEL      125
REMARK 921   NORMALIZED FREE ENERGY PREDICTED BY IDOCK:   -4.20 KCAL/MOL
REMARK 922        TOTAL FREE ENERGY PREDICTED BY IDOCK:   -5.58 KCAL/MOL
REMARK 923 INTER-LIGAND FREE ENERGY PREDICTED BY IDOCK:   -4.88 KCAL/MOL
REMARK 924 INTRA-LIGAND FREE ENERGY PREDICTED BY IDOCK:   -0.70 KCAL/MOL
REMARK 927      BINDING AFFINITY PREDICTED BY RF-SCORE:    0.00 PKD
ROOT
HETATM    1  C   UNL     1      -6.971  16.786  69.036  1.00  0.00    -0.218 C  
HETATM    2  C   UNL     1      -7.384  16.355  67.656  1.00  0.00    -0.135 C  
HETATM    3  N   UNL     1      -8.730  16.101  67.538  1.00  0.00    -0.183 N  
HETATM    4  O   UNL     1      -6.593  16.264  66.725  1.00  0.00    -0.255 OA 
HETATM    5  H   UNL     1      -9.336  16.255  68.344  1.00  0.00     0.000 HD 
ENDROOT
BRANCH   3   6
HETATM    6  C   UNL     1      -9.313  15.617  66.295  1.00  0.00    -0.323 C  
BRANCH   6   7
HETATM    7  C   UNL     1     -10.046  14.303  66.516  1.00  0.00    -0.278 C  
HETATM    8  C   UNL     1      -9.255  13.274  67.288  1.00  0.00    -0.222 C  
HETATM    9  N   UNL     1     -10.311  12.501  67.870  1.00  0.00    -0.211 N  
HETATM   10  C   UNL     1     -11.437  13.310  67.984  1.00  0.00    -0.309 C  
HETATM   11  O   UNL     1     -12.484  13.090  68.568  1.00  0.00     0.072 OA 
HETATM   12  O   UNL     1     -11.212  14.498  67.329  1.00  0.00    -0.308 OA 
BRANCH   9  13
HETATM   13  C   UNL     1     -10.186  11.151  68.278  1.00  0.00    -0.182 A  
HETATM   14  C   UNL     1     -10.700  10.114  67.502  1.00  0.00    -0.347 A  
HETATM   15  C   UNL     1     -10.550   8.782  67.894  1.00  0.00    -0.174 A  
HETATM   16  C   UNL     1      -9.898   8.408  69.080  1.00  0.00    -0.183 A  
HETATM   17  F   UNL     1     -11.019   7.842  67.054  1.00  0.00    -0.401 F  
HETATM   18  C   UNL     1      -9.504  10.804  69.449  1.00  0.00    -0.037 A  
HETATM   19  C   UNL     1      -9.363   9.458  69.837  1.00  0.00    -0.234 A  
BRANCH  16  20
HETATM   20  N   UNL     1      -9.815   7.103  69.525  1.00  0.00    -0.161 NA 
HETATM   21  C   UNL     1      -8.620   6.274  69.290  1.00  0.00    -0.124 C  
HETATM   22  C   UNL     1      -7.959   5.902  70.621  1.00  0.00    -0.110 C  
HETATM   23  O   UNL     1      -8.896   5.238  71.489  1.00  0.00    -0.132 OA 
HETATM   24  C   UNL     1     -10.002   6.107  71.780  1.00  0.00    -0.172 C  
HETATM   25  C   UNL     1     -10.756   6.545  70.507  1.00  0.00    -0.254 C  
ENDBRANCH  16  20
ENDBRANCH   9  13
ENDBRANCH   6   7
ENDBRANCH   3   6
TORSDOF 4
ENDMDL
MODEL      126
REMARK 921   NORMALIZED FREE ENERGY PREDICTED BY IDOCK:   -4.16 KCAL/MOL
REMARK 922        TOTAL FREE ENERGY PREDICTED BY IDOCK:   -5.53 KCAL/MOL
REMARK 923 INTER-LIGAND FREE ENERGY PREDICTED BY IDOCK:   -5.01 KCAL/MOL
REMARK 924 INTRA-LIGAND FREE ENERGY PREDICTED BY IDOCK:   -0.52 KCAL/MOL
REMARK 927      BINDING AFFINITY PREDICTED BY RF-SCORE:    0.00 PKD
ROOT
HETATM    1  C   UNL     1      -6.955  10.481  62.470  1.00  0.00    -0.130 C  
HETATM    2  C   UNL     1      -8.395  10.184  62.784  1.00  0.00    -0.165 C  
HETATM    3  N   UNL     1      -8.983  11.118  63.604  1.00  0.00    -0.401 N  
HETATM    4  O   UNL     1      -8.986   9.212  62.331  1.00  0.00    -0.237 OA 
HETATM    5  H   UNL     1      -8.444  11.933  63.895  1.00  0.00     0.000 HD 
ENDROOT
BRANCH   3   6
HETATM    6  C   UNL     1     -10.356  10.975  64.068  1.00  0.00    -0.371 C  
BRANCH   6   7
HETATM    7  C   UNL     1     -10.406  10.853  65.583  1.00  0.00    -0.242 C  
HETATM    8  C   UNL     1     -10.082   9.472  66.104  1.00  0.00    -0.256 C  
HETATM    9  N   UNL     1      -9.588   9.786  67.412  1.00  0.00    -0.151 N  
HETATM   10  C   UNL     1      -9.085  11.083  67.393  1.00  0.00    -0.141 C  
HETATM   11  O   UNL     1      -8.436  11.666  68.245  1.00  0.00    -0.149 OA 
HETATM   12  O   UNL     1      -9.406  11.678  66.196  1.00  0.00    -0.216 OA 
BRANCH   9  13
HETATM   13  C   UNL     1      -9.600   8.890  68.508  1.00  0.00    -0.157 A  
HETATM   14  C   UNL     1     -10.630   7.966  68.672  1.00  0.00    -0.145 A  
HETATM   15  C   UNL     1     -10.624   7.066  69.741  1.00  0.00    -0.233 A  
HETATM   16  C   UNL     1      -9.608   7.044  70.709  1.00  0.00    -0.164 A  
HETATM   17  F   UNL     1     -11.623   6.167  69.786  1.00  0.00    -0.466 F  
HETATM   18  C   UNL     1      -8.558   8.868  69.442  1.00  0.00    -0.133 A  
HETATM   19  C   UNL     1      -8.564   7.959  70.517  1.00  0.00    -0.131 A  
BRANCH  16  20
HETATM   20  N   UNL     1      -9.628   6.219  71.817  1.00  0.00    -0.154 NA 
HETATM   21  C   UNL     1     -10.539   6.457  72.949  1.00  0.00    -0.235 C  
HETATM   22  C   UNL     1     -11.530   5.296  73.089  1.00  0.00    -0.246 C  
HETATM   23  O   UNL     1     -10.835   4.044  73.231  1.00  0.00    -0.187 OA 
HETATM   24  C   UNL     1     -10.031   3.792  72.066  1.00  0.00    -0.168 C  
HETATM   25  C   UNL     1      -8.982   4.898  71.826  1.00  0.00    -0.135 C  
ENDBRANCH  16  20
ENDBRANCH   9  13
ENDBRANCH   6   7
ENDBRANCH   3   6
TORSDOF 4
ENDMDL
MODEL      127
REMARK 921   NORMALIZED FREE ENERGY PREDICTED BY IDOCK:   -4.16 KCAL/MOL
REMARK 922        TOTAL FREE ENERGY PREDICTED BY IDOCK:   -5.53 KCAL/MOL
REMARK 923 INTER-LIGAND FREE ENERGY PREDICTED BY IDOCK:   -4.67 KCAL/MOL
REMARK 924 INTRA-LIGAND FREE ENERGY PREDICTED BY IDOCK:   -0.86 KCAL/MOL
REMARK 927      BINDING AFFINITY PREDICTED BY RF-SCORE:    0.00 PKD
ROOT
HETATM    1  C   UNL     1     -10.928   6.418  67.558  1.00  0.00    -0.454 C  
HETATM    2  C   UNL     1      -9.466   6.500  67.898  1.00  0.00    -0.120 C  
HETATM    3  N   UNL     1      -8.714   7.148  66.946  1.00  0.00    -0.122 N  
HETATM    4  O   UNL     1      -9.000   6.048  68.937  1.00  0.00    -0.123 OA 
HETATM    5  H   UNL     1      -9.182   7.550  66.134  1.00  0.00     0.000 HD 
ENDROOT
BRANCH   3   6
HETATM    6  C   UNL     1      -7.269   7.278  67.068  1.00  0.00    -0.092 C  
BRANCH   6   7
HETATM    7  C   UNL     1      -6.888   8.672  67.541  1.00  0.00    -0.071 C  
HETATM    8  C   UNL     1      -7.825   9.762  67.076  1.00  0.00    -0.102 C  
HETATM    9  N   UNL     1      -7.640  10.736  68.110  1.00  0.00    -0.090 N  
HETATM   10  C   UNL     1      -7.230  10.080  69.266  1.00  0.00    -0.078 C  
HETATM   11  O   UNL     1      -7.123  10.517  70.399  1.00  0.00    -0.273 OA 
HETATM   12  O   UNL     1      -6.960   8.764  68.971  1.00  0.00    -0.062 OA 
BRANCH   9  13
HETATM   13  C   UNL     1      -7.873  12.124  67.954  1.00  0.00    -0.147 A  
HETATM   14  C   UNL     1      -9.158  12.655  68.058  1.00  0.00    -0.207 A  
HETATM   15  C   UNL     1      -9.380  14.027  67.930  1.00  0.00    -0.206 A  
HETATM   16  C   UNL     1      -8.348  14.944  67.678  1.00  0.00    -0.167 A  
HETATM   17  F   UNL     1     -10.641  14.460  68.110  1.00  0.00    -0.225 F  
HETATM   18  C   UNL     1      -6.821  13.019  67.733  1.00  0.00    -0.144 A  
HETATM   19  C   UNL     1      -7.058  14.401  67.601  1.00  0.00    -0.202 A  
BRANCH  16  20
HETATM   20  N   UNL     1      -8.560  16.292  67.465  1.00  0.00    -0.175 NA 
HETATM   21  C   UNL     1      -8.903  16.827  66.137  1.00  0.00    -0.263 C  
HETATM   22  C   UNL     1     -10.303  17.451  66.159  1.00  0.00    -0.327 C  
HETATM   23  O   UNL     1     -10.393  18.468  67.173  1.00  0.00    -0.361 OA 
HETATM   24  C   UNL     1     -10.151  17.896  68.469  1.00  0.00    -0.391 C  
HETATM   25  C   UNL     1      -8.758  17.241  68.570  1.00  0.00    -0.273 C  
ENDBRANCH  16  20
ENDBRANCH   9  13
ENDBRANCH   6   7
ENDBRANCH   3   6
TORSDOF 4
ENDMDL
MODEL      128
REMARK 921   NORMALIZED FREE ENERGY PREDICTED BY IDOCK:   -4.09 KCAL/MOL
REMARK 922        TOTAL FREE ENERGY PREDICTED BY IDOCK:   -5.44 KCAL/MOL
REMARK 923 INTER-LIGAND FREE ENERGY PREDICTED BY IDOCK:   -4.72 KCAL/MOL
REMARK 924 INTRA-LIGAND FREE ENERGY PREDICTED BY IDOCK:   -0.73 KCAL/MOL
REMARK 927      BINDING AFFINITY PREDICTED BY RF-SCORE:    0.00 PKD
ROOT
HETATM    1  C   UNL     1      -9.193   2.464  66.497  1.00  0.00    -0.037 C  
HETATM    2  C   UNL     1      -8.352   3.697  66.309  1.00  0.00    -0.105 C  
HETATM    3  N   UNL     1      -8.405   4.567  67.373  1.00  0.00    -0.104 N  
HETATM    4  O   UNL     1      -7.670   3.889  65.310  1.00  0.00    -0.081 OA 
HETATM    5  H   UNL     1      -8.950   4.311  68.196  1.00  0.00     0.000 HD 
ENDROOT
BRANCH   3   6
HETATM    6  C   UNL     1      -7.704   5.842  67.355  1.00  0.00    -0.097 C  
BRANCH   6   7
HETATM    7  C   UNL     1      -8.641   6.969  66.949  1.00  0.00    -0.120 C  
HETATM    8  C   UNL     1      -8.532   8.206  67.809  1.00  0.00    -0.132 C  
HETATM    9  N   UNL     1      -8.967   9.215  66.890  1.00  0.00    -0.122 N  
HETATM   10  C   UNL     1      -8.715   8.770  65.596  1.00  0.00    -0.184 C  
HETATM   11  O   UNL     1      -8.786   9.385  64.546  1.00  0.00    -0.187 OA 
HETATM   12  O   UNL     1      -8.320   7.453  65.637  1.00  0.00    -0.131 OA 
BRANCH   9  13
HETATM   13  C   UNL     1      -9.527  10.458  67.270  1.00  0.00    -0.154 A  
HETATM   14  C   UNL     1      -8.740  11.460  67.836  1.00  0.00    -0.145 A  
HETATM   15  C   UNL     1      -9.292  12.695  68.185  1.00  0.00    -0.210 A  
HETATM   16  C   UNL     1     -10.651  12.997  68.007  1.00  0.00    -0.235 A  
HETATM   17  F   UNL     1      -8.448  13.626  68.664  1.00  0.00    -0.159 F  
HETATM   18  C   UNL     1     -10.879  10.744  67.054  1.00  0.00    -0.311 A  
HETATM   19  C   UNL     1     -11.426  11.991  67.414  1.00  0.00    -0.406 A  
BRANCH  16  20
HETATM   20  N   UNL     1     -11.230  14.180  68.424  1.00  0.00    -0.253 NA 
HETATM   21  C   UNL     1     -11.627  14.403  69.824  1.00  0.00    -0.298 C  
HETATM   22  C   UNL     1     -10.809  15.546  70.435  1.00  0.00    -0.335 C  
HETATM   23  O   UNL     1     -10.946  16.747  69.654  1.00  0.00    -0.287 OA 
HETATM   24  C   UNL     1     -10.458  16.527  68.320  1.00  0.00    -0.313 C  
HETATM   25  C   UNL     1     -11.218  15.395  67.597  1.00  0.00    -0.311 C  
ENDBRANCH  16  20
ENDBRANCH   9  13
ENDBRANCH   6   7
ENDBRANCH   3   6
TORSDOF 4
ENDMDL
MODEL      129
REMARK 921   NORMALIZED FREE ENERGY PREDICTED BY IDOCK:   -4.07 KCAL/MOL
REMARK 922        TOTAL FREE ENERGY PREDICTED BY IDOCK:   -5.42 KCAL/MOL
REMARK 923 INTER-LIGAND FREE ENERGY PREDICTED BY IDOCK:   -5.08 KCAL/MOL
REMARK 924 INTRA-LIGAND FREE ENERGY PREDICTED BY IDOCK:   -0.35 KCAL/MOL
REMARK 927      BINDING AFFINITY PREDICTED BY RF-SCORE:    0.00 PKD
ROOT
HETATM    1  C   UNL     1      -9.404   2.592  68.036  1.00  0.00    -0.255 C  
HETATM    2  C   UNL     1      -8.640   2.739  66.750  1.00  0.00    -0.110 C  
HETATM    3  N   UNL     1      -8.135   4.002  66.550  1.00  0.00    -0.097 N  
HETATM    4  O   UNL     1      -8.469   1.810  65.970  1.00  0.00    -0.094 OA 
HETATM    5  H   UNL     1      -8.269   4.710  67.273  1.00  0.00     0.000 HD 
ENDROOT
BRANCH   3   6
HETATM    6  C   UNL     1      -7.415   4.357  65.336  1.00  0.00    -0.080 C  
BRANCH   6   7
HETATM    7  C   UNL     1      -8.030   5.584  64.680  1.00  0.00    -0.115 C  
HETATM    8  C   UNL     1      -8.341   6.709  65.639  1.00  0.00    -0.144 C  
HETATM    9  N   UNL     1      -8.270   7.839  64.762  1.00  0.00    -0.129 N  
HETATM   10  C   UNL     1      -7.428   7.522  63.701  1.00  0.00    -0.105 C  
HETATM   11  O   UNL     1      -6.978   8.251  62.834  1.00  0.00    -0.088 OA 
HETATM   12  O   UNL     1      -7.111   6.184  63.756  1.00  0.00    -0.047 OA 
BRANCH   9  13
HETATM   13  C   UNL     1      -8.936   9.069  64.984  1.00  0.00    -0.147 A  
HETATM   14  C   UNL     1      -9.120   9.565  66.274  1.00  0.00    -0.202 A  
HETATM   15  C   UNL     1      -9.753  10.791  66.487  1.00  0.00    -0.196 A  
HETATM   16  C   UNL     1     -10.250  11.582  65.439  1.00  0.00    -0.264 A  
HETATM   17  F   UNL     1      -9.830  11.225  67.758  1.00  0.00    -0.165 F  
HETATM   18  C   UNL     1      -9.394   9.852  63.920  1.00  0.00    -0.262 A  
HETATM   19  C   UNL     1     -10.035  11.085  64.147  1.00  0.00    -0.385 A  
BRANCH  16  20
HETATM   20  N   UNL     1     -10.952  12.755  65.636  1.00  0.00    -0.269 NA 
HETATM   21  C   UNL     1     -10.307  13.972  66.159  1.00  0.00    -0.297 C  
HETATM   22  C   UNL     1     -10.348  15.089  65.110  1.00  0.00    -0.392 C  
HETATM   23  O   UNL     1     -11.702  15.350  64.695  1.00  0.00    -0.369 OA 
HETATM   24  C   UNL     1     -12.272  14.173  64.099  1.00  0.00    -0.390 C  
HETATM   25  C   UNL     1     -12.291  12.975  65.071  1.00  0.00    -0.473 C  
ENDBRANCH  16  20
ENDBRANCH   9  13
ENDBRANCH   6   7
ENDBRANCH   3   6
TORSDOF 4
ENDMDL
MODEL      130
REMARK 921   NORMALIZED FREE ENERGY PREDICTED BY IDOCK:   -4.07 KCAL/MOL
REMARK 922        TOTAL FREE ENERGY PREDICTED BY IDOCK:   -5.42 KCAL/MOL
REMARK 923 INTER-LIGAND FREE ENERGY PREDICTED BY IDOCK:   -5.10 KCAL/MOL
REMARK 924 INTRA-LIGAND FREE ENERGY PREDICTED BY IDOCK:   -0.32 KCAL/MOL
REMARK 927      BINDING AFFINITY PREDICTED BY RF-SCORE:    0.00 PKD
ROOT
HETATM    1  C   UNL     1      -9.819   5.023  72.729  1.00  0.00    -0.191 C  
HETATM    2  C   UNL     1      -9.589   4.453  71.357  1.00  0.00    -0.165 C  
HETATM    3  N   UNL     1      -9.536   5.406  70.367  1.00  0.00    -0.158 N  
HETATM    4  O   UNL     1      -9.441   3.255  71.152  1.00  0.00    -0.129 OA 
HETATM    5  H   UNL     1      -9.610   6.391  70.622  1.00  0.00     0.000 HD 
ENDROOT
BRANCH   3   6
HETATM    6  C   UNL     1      -9.378   5.048  68.965  1.00  0.00    -0.126 C  
BRANCH   6   7
HETATM    7  C   UNL     1      -9.800   6.195  68.061  1.00  0.00    -0.127 C  
HETATM    8  C   UNL     1      -9.524   7.567  68.631  1.00  0.00    -0.146 C  
HETATM    9  N   UNL     1      -9.400   8.339  67.431  1.00  0.00    -0.139 N  
HETATM   10  C   UNL     1      -8.998   7.492  66.402  1.00  0.00    -0.167 C  
HETATM   11  O   UNL     1      -8.627   7.776  65.276  1.00  0.00    -0.130 OA 
HETATM   12  O   UNL     1      -9.047   6.189  66.841  1.00  0.00    -0.121 OA 
BRANCH   9  13
HETATM   13  C   UNL     1      -9.626   9.734  67.348  1.00  0.00    -0.155 A  
HETATM   14  C   UNL     1     -10.830  10.294  67.772  1.00  0.00    -0.346 A  
HETATM   15  C   UNL     1     -11.039  11.674  67.714  1.00  0.00    -0.249 A  
HETATM   16  C   UNL     1     -10.076  12.568  67.221  1.00  0.00    -0.213 A  
HETATM   17  F   UNL     1     -12.204  12.135  68.203  1.00  0.00    -0.374 F  
HETATM   18  C   UNL     1      -8.637  10.606  66.882  1.00  0.00    -0.126 A  
HETATM   19  C   UNL     1      -8.860  11.995  66.823  1.00  0.00    -0.198 A  
BRANCH  16  20
HETATM   20  N   UNL     1     -10.297  13.924  67.078  1.00  0.00    -0.265 NA 
HETATM   21  C   UNL     1      -9.213  14.910  67.224  1.00  0.00    -0.204 C  
HETATM   22  C   UNL     1      -8.979  15.644  65.899  1.00  0.00    -0.154 C  
HETATM   23  O   UNL     1     -10.192  16.265  65.437  1.00  0.00    -0.518 OA 
HETATM   24  C   UNL     1     -11.201  15.267  65.209  1.00  0.00    -0.336 C  
HETATM   25  C   UNL     1     -11.529  14.462  66.484  1.00  0.00    -0.362 C  
ENDBRANCH  16  20
ENDBRANCH   9  13
ENDBRANCH   6   7
ENDBRANCH   3   6
TORSDOF 4
ENDMDL
MODEL      131
REMARK 921   NORMALIZED FREE ENERGY PREDICTED BY IDOCK:   -4.05 KCAL/MOL
REMARK 922        TOTAL FREE ENERGY PREDICTED BY IDOCK:   -5.40 KCAL/MOL
REMARK 923 INTER-LIGAND FREE ENERGY PREDICTED BY IDOCK:   -4.82 KCAL/MOL
REMARK 924 INTRA-LIGAND FREE ENERGY PREDICTED BY IDOCK:   -0.58 KCAL/MOL
REMARK 927      BINDING AFFINITY PREDICTED BY RF-SCORE:    0.00 PKD
ROOT
HETATM    1  C   UNL     1     -12.839  13.803  65.216  1.00  0.00    -0.430 C  
HETATM    2  C   UNL     1     -11.910  13.982  66.385  1.00  0.00    -0.418 C  
HETATM    3  N   UNL     1     -10.619  13.585  66.128  1.00  0.00    -0.286 N  
HETATM    4  O   UNL     1     -12.273  14.459  67.453  1.00  0.00    -0.364 OA 
HETATM    5  H   UNL     1     -10.379  13.251  65.195  1.00  0.00     0.000 HD 
ENDROOT
BRANCH   3   6
HETATM    6  C   UNL     1      -9.586  13.627  67.153  1.00  0.00    -0.241 C  
BRANCH   6   7
HETATM    7  C   UNL     1      -9.282  12.231  67.673  1.00  0.00    -0.183 C  
HETATM    8  C   UNL     1      -9.761  11.116  66.773  1.00  0.00    -0.193 C  
HETATM    9  N   UNL     1      -8.844  10.072  67.122  1.00  0.00    -0.135 N  
HETATM   10  C   UNL     1      -7.672  10.656  67.595  1.00  0.00    -0.097 C  
HETATM   11  O   UNL     1      -6.600  10.131  67.840  1.00  0.00    -0.065 OA 
HETATM   12  O   UNL     1      -7.866  12.009  67.744  1.00  0.00    -0.126 OA 
BRANCH   9  13
HETATM   13  C   UNL     1      -9.108   8.690  66.971  1.00  0.00    -0.138 A  
HETATM   14  C   UNL     1     -10.200   8.092  67.599  1.00  0.00    -0.296 A  
HETATM   15  C   UNL     1     -10.472   6.734  67.426  1.00  0.00    -0.262 A  
HETATM   16  C   UNL     1      -9.672   5.893  66.636  1.00  0.00    -0.157 A  
HETATM   17  F   UNL     1     -11.581   6.254  68.016  1.00  0.00    -0.344 F  
HETATM   18  C   UNL     1      -8.312   7.882  66.153  1.00  0.00    -0.127 A  
HETATM   19  C   UNL     1      -8.594   6.512  65.988  1.00  0.00    -0.150 A  
BRANCH  16  20
HETATM   20  N   UNL     1      -9.878   4.532  66.520  1.00  0.00    -0.209 NA 
HETATM   21  C   UNL     1     -10.311   3.914  65.256  1.00  0.00    -0.028 C  
HETATM   22  C   UNL     1      -9.230   2.962  64.731  1.00  0.00    -0.146 C  
HETATM   23  O   UNL     1      -8.903   1.966  65.717  1.00  0.00    -0.120 OA 
HETATM   24  C   UNL     1      -8.391   2.595  66.903  1.00  0.00    -0.095 C  
HETATM   25  C   UNL     1      -9.402   3.576  67.531  1.00  0.00    -0.206 C  
ENDBRANCH  16  20
ENDBRANCH   9  13
ENDBRANCH   6   7
ENDBRANCH   3   6
TORSDOF 4
ENDMDL
MODEL      132
REMARK 921   NORMALIZED FREE ENERGY PREDICTED BY IDOCK:   -4.01 KCAL/MOL
REMARK 922        TOTAL FREE ENERGY PREDICTED BY IDOCK:   -5.34 KCAL/MOL
REMARK 923 INTER-LIGAND FREE ENERGY PREDICTED BY IDOCK:   -5.01 KCAL/MOL
REMARK 924 INTRA-LIGAND FREE ENERGY PREDICTED BY IDOCK:   -0.33 KCAL/MOL
REMARK 927      BINDING AFFINITY PREDICTED BY RF-SCORE:    0.00 PKD
ROOT
HETATM    1  C   UNL     1     -11.579  12.954  63.893  1.00  0.00    -0.515 C  
HETATM    2  C   UNL     1     -11.186  13.405  65.273  1.00  0.00    -0.289 C  
HETATM    3  N   UNL     1     -12.068  13.012  66.252  1.00  0.00    -0.410 N  
HETATM    4  O   UNL     1     -10.165  14.042  65.497  1.00  0.00    -0.317 OA 
HETATM    5  H   UNL     1     -12.867  12.433  65.997  1.00  0.00     0.000 HD 
ENDROOT
BRANCH   3   6
HETATM    6  C   UNL     1     -11.890  13.401  67.644  1.00  0.00    -0.354 C  
BRANCH   6   7
HETATM    7  C   UNL     1     -11.187  12.304  68.428  1.00  0.00    -0.266 C  
HETATM    8  C   UNL     1     -11.370  10.919  67.855  1.00  0.00    -0.308 C  
HETATM    9  N   UNL     1     -10.184  10.270  68.331  1.00  0.00    -0.160 N  
HETATM   10  C   UNL     1      -9.205  11.237  68.535  1.00  0.00    -0.181 C  
HETATM   11  O   UNL     1      -8.020  11.089  68.777  1.00  0.00    -0.130 OA 
HETATM   12  O   UNL     1      -9.764  12.486  68.398  1.00  0.00    -0.221 OA 
BRANCH   9  13
HETATM   13  C   UNL     1     -10.057   8.873  68.521  1.00  0.00    -0.188 A  
HETATM   14  C   UNL     1      -9.307   8.092  67.643  1.00  0.00    -0.160 A  
HETATM   15  C   UNL     1      -9.161   6.719  67.850  1.00  0.00    -0.114 A  
HETATM   16  C   UNL     1      -9.760   6.044  68.925  1.00  0.00    -0.132 A  
HETATM   17  F   UNL     1      -8.368   6.054  66.991  1.00  0.00    -0.105 F  
HETATM   18  C   UNL     1     -10.639   8.231  69.619  1.00  0.00    -0.222 A  
HETATM   19  C   UNL     1     -10.489   6.845  69.815  1.00  0.00    -0.240 A  
BRANCH  16  20
HETATM   20  N   UNL     1      -9.696   4.675  69.098  1.00  0.00    -0.179 NA 
HETATM   21  C   UNL     1      -9.503   3.755  67.964  1.00  0.00    -0.164 C  
HETATM   22  C   UNL     1      -8.172   3.008  68.106  1.00  0.00    -0.076 C  
HETATM   23  O   UNL     1      -8.109   2.311  69.363  1.00  0.00    -0.045 OA 
HETATM   24  C   UNL     1      -8.201   3.245  70.451  1.00  0.00    -0.051 C  
HETATM   25  C   UNL     1      -9.513   4.057  70.418  1.00  0.00    -0.182 C  
ENDBRANCH  16  20
ENDBRANCH   9  13
ENDBRANCH   6   7
ENDBRANCH   3   6
TORSDOF 4
ENDMDL
MODEL      133
REMARK 921   NORMALIZED FREE ENERGY PREDICTED BY IDOCK:   -3.98 KCAL/MOL
REMARK 922        TOTAL FREE ENERGY PREDICTED BY IDOCK:   -5.31 KCAL/MOL
REMARK 923 INTER-LIGAND FREE ENERGY PREDICTED BY IDOCK:   -5.15 KCAL/MOL
REMARK 924 INTRA-LIGAND FREE ENERGY PREDICTED BY IDOCK:   -0.17 KCAL/MOL
REMARK 927      BINDING AFFINITY PREDICTED BY RF-SCORE:    0.00 PKD
ROOT
HETATM    1  C   UNL     1      -8.824   2.524  66.329  1.00  0.00    -0.132 C  
HETATM    2  C   UNL     1      -9.020   2.506  67.820  1.00  0.00    -0.155 C  
HETATM    3  N   UNL     1      -8.971   3.753  68.397  1.00  0.00    -0.114 N  
HETATM    4  O   UNL     1      -9.226   1.475  68.449  1.00  0.00    -0.126 OA 
HETATM    5  H   UNL     1      -8.854   4.572  67.800  1.00  0.00     0.000 HD 
ENDROOT
BRANCH   3   6
HETATM    6  C   UNL     1      -9.082   3.936  69.836  1.00  0.00    -0.122 C  
BRANCH   6   7
HETATM    7  C   UNL     1      -9.321   5.398  70.180  1.00  0.00    -0.149 C  
HETATM    8  C   UNL     1      -9.445   6.304  68.978  1.00  0.00    -0.128 C  
HETATM    9  N   UNL     1     -10.253   7.358  69.516  1.00  0.00    -0.199 N  
HETATM   10  C   UNL     1     -11.005   6.844  70.567  1.00  0.00    -0.273 C  
HETATM   11  O   UNL     1     -11.924   7.362  71.178  1.00  0.00    -0.301 OA 
HETATM   12  O   UNL     1     -10.578   5.567  70.850  1.00  0.00    -0.247 OA 
BRANCH   9  13
HETATM   13  C   UNL     1     -10.278   8.683  69.017  1.00  0.00    -0.207 A  
HETATM   14  C   UNL     1      -9.635   9.016  67.826  1.00  0.00    -0.178 A  
HETATM   15  C   UNL     1      -9.685  10.318  67.323  1.00  0.00    -0.166 A  
HETATM   16  C   UNL     1     -10.359  11.360  67.979  1.00  0.00    -0.184 A  
HETATM   17  F   UNL     1      -9.092  10.537  66.136  1.00  0.00    -0.158 F  
HETATM   18  C   UNL     1     -10.984   9.695  69.675  1.00  0.00    -0.253 A  
HETATM   19  C   UNL     1     -11.024  11.006  69.161  1.00  0.00    -0.289 A  
BRANCH  16  20
HETATM   20  N   UNL     1     -10.349  12.670  67.540  1.00  0.00    -0.216 NA 
HETATM   21  C   UNL     1     -10.917  13.061  66.240  1.00  0.00    -0.284 C  
HETATM   22  C   UNL     1     -12.110  14.003  66.440  1.00  0.00    -0.455 C  
HETATM   23  O   UNL     1     -11.726  15.155  67.212  1.00  0.00    -0.295 OA 
HETATM   24  C   UNL     1     -11.268  14.749  68.513  1.00  0.00    -0.276 C  
HETATM   25  C   UNL     1     -10.056  13.797  68.437  1.00  0.00    -0.241 C  
ENDBRANCH  16  20
ENDBRANCH   9  13
ENDBRANCH   6   7
ENDBRANCH   3   6
TORSDOF 4
ENDMDL
MODEL      134
REMARK 921   NORMALIZED FREE ENERGY PREDICTED BY IDOCK:   -3.98 KCAL/MOL
REMARK 922        TOTAL FREE ENERGY PREDICTED BY IDOCK:   -5.31 KCAL/MOL
REMARK 923 INTER-LIGAND FREE ENERGY PREDICTED BY IDOCK:   -4.55 KCAL/MOL
REMARK 924 INTRA-LIGAND FREE ENERGY PREDICTED BY IDOCK:   -0.76 KCAL/MOL
REMARK 927      BINDING AFFINITY PREDICTED BY RF-SCORE:    0.00 PKD
ROOT
HETATM    1  C   UNL     1      -9.351   8.664  65.989  1.00  0.00    -0.284 C  
HETATM    2  C   UNL     1      -8.158   8.709  66.903  1.00  0.00    -0.098 C  
HETATM    3  N   UNL     1      -7.144   9.516  66.444  1.00  0.00    -0.087 N  
HETATM    4  O   UNL     1      -8.111   8.100  67.965  1.00  0.00    -0.124 OA 
HETATM    5  H   UNL     1      -7.278  10.039  65.579  1.00  0.00     0.000 HD 
ENDROOT
BRANCH   3   6
HETATM    6  C   UNL     1      -5.883   9.645  67.160  1.00  0.00    -0.051 C  
BRANCH   6   7
HETATM    7  C   UNL     1      -5.658  11.080  67.609  1.00  0.00    -0.043 C  
HETATM    8  C   UNL     1      -6.742  12.041  67.177  1.00  0.00    -0.136 C  
HETATM    9  N   UNL     1      -6.637  13.042  68.196  1.00  0.00    -0.089 N  
HETATM   10  C   UNL     1      -6.102  12.454  69.338  1.00  0.00    -0.108 C  
HETATM   11  O   UNL     1      -6.003  12.914  70.463  1.00  0.00    -0.163 OA 
HETATM   12  O   UNL     1      -5.683  11.179  69.040  1.00  0.00    -0.040 OA 
BRANCH   9  13
HETATM   13  C   UNL     1      -7.047  14.388  68.042  1.00  0.00    -0.138 A  
HETATM   14  C   UNL     1      -8.396  14.737  68.060  1.00  0.00    -0.143 A  
HETATM   15  C   UNL     1      -8.795  16.069  67.935  1.00  0.00    -0.180 A  
HETATM   16  C   UNL     1      -7.883  17.123  67.769  1.00  0.00    -0.182 A  
HETATM   17  F   UNL     1     -10.112  16.323  68.028  1.00  0.00    -0.229 F  
HETATM   18  C   UNL     1      -6.115  15.423  67.910  1.00  0.00    -0.166 A  
HETATM   19  C   UNL     1      -6.528  16.763  67.780  1.00  0.00    -0.162 A  
BRANCH  16  20
HETATM   20  N   UNL     1      -8.262  18.435  67.560  1.00  0.00    -0.247 NA 
HETATM   21  C   UNL     1      -8.505  18.969  66.209  1.00  0.00    -0.280 C  
HETATM   22  C   UNL     1      -9.973  19.384  66.056  1.00  0.00    -0.367 C  
HETATM   23  O   UNL     1     -10.343  20.335  67.071  1.00  0.00    -0.410 OA 
HETATM   24  C   UNL     1     -10.190  19.751  68.375  1.00  0.00    -0.449 C  
HETATM   25  C   UNL     1      -8.741  19.299  68.649  1.00  0.00    -0.365 C  
ENDBRANCH  16  20
ENDBRANCH   9  13
ENDBRANCH   6   7
ENDBRANCH   3   6
TORSDOF 4
ENDMDL
MODEL      135
REMARK 921   NORMALIZED FREE ENERGY PREDICTED BY IDOCK:   -3.97 KCAL/MOL
REMARK 922        TOTAL FREE ENERGY PREDICTED BY IDOCK:   -5.30 KCAL/MOL
REMARK 923 INTER-LIGAND FREE ENERGY PREDICTED BY IDOCK:   -5.46 KCAL/MOL
REMARK 924 INTRA-LIGAND FREE ENERGY PREDICTED BY IDOCK:    0.16 KCAL/MOL
REMARK 927      BINDING AFFINITY PREDICTED BY RF-SCORE:    0.00 PKD
ROOT
HETATM    1  C   UNL     1      -9.072   4.224  71.348  1.00  0.00    -0.179 C  
HETATM    2  C   UNL     1      -9.895   4.903  72.408  1.00  0.00    -0.161 C  
HETATM    3  N   UNL     1     -10.396   6.123  72.018  1.00  0.00    -0.195 N  
HETATM    4  O   UNL     1     -10.112   4.400  73.503  1.00  0.00    -0.138 OA 
HETATM    5  H   UNL     1     -10.221   6.451  71.068  1.00  0.00     0.000 HD 
ENDROOT
BRANCH   3   6
HETATM    6  C   UNL     1     -11.170   6.959  72.925  1.00  0.00    -0.217 C  
BRANCH   6   7
HETATM    7  C   UNL     1     -11.128   8.415  72.488  1.00  0.00    -0.326 C  
HETATM    8  C   UNL     1     -10.455   8.643  71.155  1.00  0.00    -0.227 C  
HETATM    9  N   UNL     1     -11.097   9.851  70.731  1.00  0.00    -0.327 N  
HETATM   10  C   UNL     1     -12.345   9.925  71.341  1.00  0.00    -0.404 C  
HETATM   11  O   UNL     1     -13.260  10.701  71.125  1.00  0.00    -0.345 OA 
HETATM   12  O   UNL     1     -12.453   8.924  72.278  1.00  0.00    -0.372 OA 
BRANCH   9  13
HETATM   13  C   UNL     1     -10.537  10.778  69.818  1.00  0.00    -0.140 A  
HETATM   14  C   UNL     1     -11.309  11.797  69.262  1.00  0.00    -0.348 A  
HETATM   15  C   UNL     1     -10.747  12.725  68.383  1.00  0.00    -0.250 A  
HETATM   16  C   UNL     1      -9.397  12.686  67.998  1.00  0.00    -0.209 A  
HETATM   17  F   UNL     1     -11.548  13.712  67.944  1.00  0.00    -0.293 F  
HETATM   18  C   UNL     1      -9.182  10.735  69.476  1.00  0.00     0.103 A  
HETATM   19  C   UNL     1      -8.626  11.674  68.586  1.00  0.00    -0.086 A  
BRANCH  16  20
HETATM   20  N   UNL     1      -8.845  13.544  67.067  1.00  0.00    -0.224 NA 
HETATM   21  C   UNL     1      -9.650  14.153  65.995  1.00  0.00    -0.225 C  
HETATM   22  C   UNL     1      -9.689  15.677  66.158  1.00  0.00    -0.318 C  
HETATM   23  O   UNL     1      -8.357  16.222  66.188  1.00  0.00    -0.320 OA 
HETATM   24  C   UNL     1      -7.628  15.683  67.304  1.00  0.00    -0.214 C  
HETATM   25  C   UNL     1      -7.515  14.146  67.243  1.00  0.00    -0.042 C  
ENDBRANCH  16  20
ENDBRANCH   9  13
ENDBRANCH   6   7
ENDBRANCH   3   6
TORSDOF 4
ENDMDL
MODEL      136
REMARK 921   NORMALIZED FREE ENERGY PREDICTED BY IDOCK:   -3.96 KCAL/MOL
REMARK 922        TOTAL FREE ENERGY PREDICTED BY IDOCK:   -5.29 KCAL/MOL
REMARK 923 INTER-LIGAND FREE ENERGY PREDICTED BY IDOCK:   -4.66 KCAL/MOL
REMARK 924 INTRA-LIGAND FREE ENERGY PREDICTED BY IDOCK:   -0.63 KCAL/MOL
REMARK 927      BINDING AFFINITY PREDICTED BY RF-SCORE:    0.00 PKD
ROOT
HETATM    1  C   UNL     1     -11.782  15.650  68.593  1.00  0.00    -0.364 C  
HETATM    2  C   UNL     1     -11.365  14.573  67.629  1.00  0.00    -0.337 C  
HETATM    3  N   UNL     1     -10.134  14.029  67.911  1.00  0.00    -0.232 N  
HETATM    4  O   UNL     1     -12.071  14.207  66.697  1.00  0.00    -0.429 OA 
HETATM    5  H   UNL     1      -9.630  14.345  68.739  1.00  0.00     0.000 HD 
ENDROOT
BRANCH   3   6
HETATM    6  C   UNL     1      -9.532  13.014  67.059  1.00  0.00    -0.237 C  
BRANCH   6   7
HETATM    7  C   UNL     1     -10.023  11.626  67.440  1.00  0.00    -0.183 C  
HETATM    8  C   UNL     1      -9.515  10.522  66.542  1.00  0.00    -0.166 C  
HETATM    9  N   UNL     1      -9.566   9.402  67.435  1.00  0.00    -0.141 N  
HETATM   10  C   UNL     1      -9.457   9.874  68.739  1.00  0.00    -0.157 C  
HETATM   11  O   UNL     1      -9.297   9.246  69.771  1.00  0.00    -0.165 OA 
HETATM   12  O   UNL     1      -9.534  11.247  68.734  1.00  0.00    -0.187 OA 
BRANCH   9  13
HETATM   13  C   UNL     1      -9.678   8.053  67.022  1.00  0.00    -0.211 A  
HETATM   14  C   UNL     1      -8.653   7.429  66.312  1.00  0.00    -0.148 A  
HETATM   15  C   UNL     1      -8.756   6.090  65.931  1.00  0.00    -0.154 A  
HETATM   16  C   UNL     1      -9.882   5.303  66.218  1.00  0.00    -0.182 A  
HETATM   17  F   UNL     1      -7.695   5.551  65.306  1.00  0.00    -0.079 F  
HETATM   18  C   UNL     1     -10.798   7.282  67.349  1.00  0.00    -0.317 A  
HETATM   19  C   UNL     1     -10.894   5.933  66.955  1.00  0.00    -0.379 A  
BRANCH  16  20
HETATM   20  N   UNL     1     -10.037   4.003  65.776  1.00  0.00    -0.148 NA 
HETATM   21  C   UNL     1     -10.641   3.691  64.470  1.00  0.00    -0.097 C  
HETATM   22  C   UNL     1      -9.616   3.007  63.558  1.00  0.00    -0.101 C  
HETATM   23  O   UNL     1      -9.082   1.826  64.185  1.00  0.00    -0.099 OA 
HETATM   24  C   UNL     1      -8.413   2.175  65.408  1.00  0.00    -0.100 C  
HETATM   25  C   UNL     1      -9.354   2.869  66.415  1.00  0.00    -0.040 C  
ENDBRANCH  16  20
ENDBRANCH   9  13
ENDBRANCH   6   7
ENDBRANCH   3   6
TORSDOF 4
ENDMDL
MODEL      137
REMARK 921   NORMALIZED FREE ENERGY PREDICTED BY IDOCK:   -3.92 KCAL/MOL
REMARK 922        TOTAL FREE ENERGY PREDICTED BY IDOCK:   -5.23 KCAL/MOL
REMARK 923 INTER-LIGAND FREE ENERGY PREDICTED BY IDOCK:   -5.16 KCAL/MOL
REMARK 924 INTRA-LIGAND FREE ENERGY PREDICTED BY IDOCK:   -0.08 KCAL/MOL
REMARK 927      BINDING AFFINITY PREDICTED BY RF-SCORE:    0.00 PKD
ROOT
HETATM    1  C   UNL     1     -11.479  16.123  68.868  1.00  0.00    -0.331 C  
HETATM    2  C   UNL     1     -11.301  15.024  67.857  1.00  0.00    -0.333 C  
HETATM    3  N   UNL     1     -11.720  13.793  68.303  1.00  0.00    -0.339 N  
HETATM    4  O   UNL     1     -10.846  15.220  66.737  1.00  0.00    -0.308 OA 
HETATM    5  H   UNL     1     -12.143  13.718  69.228  1.00  0.00     0.000 HD 
ENDROOT
BRANCH   3   6
HETATM    6  C   UNL     1     -11.576  12.594  67.490  1.00  0.00    -0.359 C  
BRANCH   6   7
HETATM    7  C   UNL     1     -11.821  11.344  68.321  1.00  0.00    -0.249 C  
HETATM    8  C   UNL     1     -10.575  10.540  68.613  1.00  0.00    -0.200 C  
HETATM    9  N   UNL     1     -10.953   9.889  69.832  1.00  0.00    -0.264 N  
HETATM   10  C   UNL     1     -11.913  10.670  70.469  1.00  0.00    -0.352 C  
HETATM   11  O   UNL     1     -12.370  10.557  71.593  1.00  0.00    -0.362 OA 
HETATM   12  O   UNL     1     -12.306  11.684  69.627  1.00  0.00    -0.216 OA 
BRANCH   9  13
HETATM   13  C   UNL     1     -10.399   8.672  70.295  1.00  0.00    -0.198 A  
HETATM   14  C   UNL     1      -9.020   8.509  70.419  1.00  0.00    -0.161 A  
HETATM   15  C   UNL     1      -8.478   7.315  70.901  1.00  0.00    -0.128 A  
HETATM   16  C   UNL     1      -9.270   6.217  71.272  1.00  0.00    -0.150 A  
HETATM   17  F   UNL     1      -7.143   7.267  71.049  1.00  0.00    -0.060 F  
HETATM   18  C   UNL     1     -11.213   7.604  70.687  1.00  0.00    -0.280 A  
HETATM   19  C   UNL     1     -10.656   6.403  71.168  1.00  0.00    -0.282 A  
BRANCH  16  20
HETATM   20  N   UNL     1      -8.750   5.001  71.671  1.00  0.00    -0.130 NA 
HETATM   21  C   UNL     1      -9.612   3.885  72.094  1.00  0.00    -0.147 C  
HETATM   22  C   UNL     1      -9.462   2.701  71.132  1.00  0.00    -0.153 C  
HETATM   23  O   UNL     1      -8.085   2.293  71.036  1.00  0.00    -0.049 OA 
HETATM   24  C   UNL     1      -7.284   3.372  70.526  1.00  0.00    -0.037 C  
HETATM   25  C   UNL     1      -7.350   4.626  71.423  1.00  0.00    -0.068 C  
ENDBRANCH  16  20
ENDBRANCH   9  13
ENDBRANCH   6   7
ENDBRANCH   3   6
TORSDOF 4
ENDMDL
MODEL      138
REMARK 921   NORMALIZED FREE ENERGY PREDICTED BY IDOCK:   -3.91 KCAL/MOL
REMARK 922        TOTAL FREE ENERGY PREDICTED BY IDOCK:   -5.22 KCAL/MOL
REMARK 923 INTER-LIGAND FREE ENERGY PREDICTED BY IDOCK:   -4.53 KCAL/MOL
REMARK 924 INTRA-LIGAND FREE ENERGY PREDICTED BY IDOCK:   -0.69 KCAL/MOL
REMARK 927      BINDING AFFINITY PREDICTED BY RF-SCORE:    0.00 PKD
ROOT
HETATM    1  C   UNL     1     -12.523  12.498  63.232  1.00  0.00    -0.411 C  
HETATM    2  C   UNL     1     -11.160  12.314  63.841  1.00  0.00    -0.412 C  
HETATM    3  N   UNL     1     -10.778  10.998  63.947  1.00  0.00    -0.510 N  
HETATM    4  O   UNL     1     -10.456  13.255  64.186  1.00  0.00    -0.414 OA 
HETATM    5  H   UNL     1     -11.394  10.271  63.584  1.00  0.00     0.000 HD 
ENDROOT
BRANCH   3   6
HETATM    6  C   UNL     1      -9.516  10.614  64.563  1.00  0.00    -0.264 C  
BRANCH   6   7
HETATM    7  C   UNL     1      -9.747  10.012  65.941  1.00  0.00    -0.247 C  
HETATM    8  C   UNL     1      -9.090   8.667  66.147  1.00  0.00    -0.201 C  
HETATM    9  N   UNL     1      -8.916   8.667  67.569  1.00  0.00    -0.134 N  
HETATM   10  C   UNL     1      -8.844   9.986  68.004  1.00  0.00    -0.125 C  
HETATM   11  O   UNL     1      -8.541  10.416  69.104  1.00  0.00    -0.149 OA 
HETATM   12  O   UNL     1      -9.155  10.827  66.961  1.00  0.00    -0.144 OA 
BRANCH   9  13
HETATM   13  C   UNL     1      -8.809   7.499  68.363  1.00  0.00    -0.126 A  
HETATM   14  C   UNL     1      -9.849   7.099  69.199  1.00  0.00    -0.160 A  
HETATM   15  C   UNL     1      -9.751   5.932  69.960  1.00  0.00    -0.167 A  
HETATM   16  C   UNL     1      -8.613   5.110  69.945  1.00  0.00    -0.100 A  
HETATM   17  F   UNL     1     -10.826   5.587  70.689  1.00  0.00    -0.325 F  
HETATM   18  C   UNL     1      -7.676   6.681  68.305  1.00  0.00    -0.105 A  
HETATM   19  C   UNL     1      -7.585   5.509  69.080  1.00  0.00    -0.087 A  
BRANCH  16  20
HETATM   20  N   UNL     1      -8.465   3.999  70.753  1.00  0.00    -0.070 NA 
HETATM   21  C   UNL     1      -7.862   4.086  72.094  1.00  0.00    -0.080 C  
HETATM   22  C   UNL     1      -8.890   3.708  73.166  1.00  0.00    -0.093 C  
HETATM   23  O   UNL     1      -9.429   2.397  72.917  1.00  0.00    -0.083 OA 
HETATM   24  C   UNL     1     -10.097   2.370  71.645  1.00  0.00    -0.007 C  
HETATM   25  C   UNL     1      -9.152   2.729  70.479  1.00  0.00    -0.120 C  
ENDBRANCH  16  20
ENDBRANCH   9  13
ENDBRANCH   6   7
ENDBRANCH   3   6
TORSDOF 4
ENDMDL
MODEL      139
REMARK 921   NORMALIZED FREE ENERGY PREDICTED BY IDOCK:   -3.88 KCAL/MOL
REMARK 922        TOTAL FREE ENERGY PREDICTED BY IDOCK:   -5.19 KCAL/MOL
REMARK 923 INTER-LIGAND FREE ENERGY PREDICTED BY IDOCK:   -4.59 KCAL/MOL
REMARK 924 INTRA-LIGAND FREE ENERGY PREDICTED BY IDOCK:   -0.59 KCAL/MOL
REMARK 927      BINDING AFFINITY PREDICTED BY RF-SCORE:    0.00 PKD
ROOT
HETATM    1  C   UNL     1     -12.502  15.332  64.354  1.00  0.00    -0.044 C  
HETATM    2  C   UNL     1     -12.235  13.865  64.544  1.00  0.00    -0.417 C  
HETATM    3  N   UNL     1     -11.104  13.424  63.898  1.00  0.00    -0.562 N  
HETATM    4  O   UNL     1     -12.949  13.143  65.228  1.00  0.00    -0.661 OA 
HETATM    5  H   UNL     1     -10.526  14.096  63.394  1.00  0.00     0.000 HD 
ENDROOT
BRANCH   3   6
HETATM    6  C   UNL     1     -10.709  12.023  63.914  1.00  0.00    -0.397 C  
BRANCH   6   7
HETATM    7  C   UNL     1      -9.972  11.682  65.200  1.00  0.00    -0.259 C  
HETATM    8  C   UNL     1     -10.334  10.336  65.783  1.00  0.00    -0.165 C  
HETATM    9  N   UNL     1      -9.137  10.024  66.507  1.00  0.00    -0.146 N  
HETATM   10  C   UNL     1      -8.075  10.697  65.912  1.00  0.00    -0.159 C  
HETATM   11  O   UNL     1      -6.880  10.578  66.118  1.00  0.00    -0.116 OA 
HETATM   12  O   UNL     1      -8.561  11.570  64.967  1.00  0.00     0.201 OA 
BRANCH   9  13
HETATM   13  C   UNL     1      -9.078   9.150  67.619  1.00  0.00    -0.122 A  
HETATM   14  C   UNL     1      -8.985   9.643  68.919  1.00  0.00    -0.144 A  
HETATM   15  C   UNL     1      -8.954   8.778  70.015  1.00  0.00    -0.158 A  
HETATM   16  C   UNL     1      -8.999   7.381  69.881  1.00  0.00    -0.141 A  
HETATM   17  F   UNL     1      -8.929   9.341  71.235  1.00  0.00    -0.275 F  
HETATM   18  C   UNL     1      -9.156   7.762  67.459  1.00  0.00    -0.136 A  
HETATM   19  C   UNL     1      -9.120   6.899  68.571  1.00  0.00    -0.127 A  
BRANCH  16  20
HETATM   20  N   UNL     1      -8.885   6.509  70.946  1.00  0.00    -0.146 NA 
HETATM   21  C   UNL     1      -9.991   5.626  71.352  1.00  0.00    -0.186 C  
HETATM   22  C   UNL     1      -9.594   4.157  71.171  1.00  0.00    -0.179 C  
HETATM   23  O   UNL     1      -8.391   3.859  71.902  1.00  0.00    -0.086 OA 
HETATM   24  C   UNL     1      -7.305   4.666  71.416  1.00  0.00    -0.068 C  
HETATM   25  C   UNL     1      -7.589   6.176  71.555  1.00  0.00    -0.099 C  
ENDBRANCH  16  20
ENDBRANCH   9  13
ENDBRANCH   6   7
ENDBRANCH   3   6
TORSDOF 4
ENDMDL
MODEL      140
REMARK 921   NORMALIZED FREE ENERGY PREDICTED BY IDOCK:   -3.87 KCAL/MOL
REMARK 922        TOTAL FREE ENERGY PREDICTED BY IDOCK:   -5.17 KCAL/MOL
REMARK 923 INTER-LIGAND FREE ENERGY PREDICTED BY IDOCK:   -4.49 KCAL/MOL
REMARK 924 INTRA-LIGAND FREE ENERGY PREDICTED BY IDOCK:   -0.68 KCAL/MOL
REMARK 927      BINDING AFFINITY PREDICTED BY RF-SCORE:    0.00 PKD
ROOT
HETATM    1  C   UNL     1      -6.233   2.865  71.582  1.00  0.00    -0.014 C  
HETATM    2  C   UNL     1      -7.296   3.411  72.495  1.00  0.00    -0.049 C  
HETATM    3  N   UNL     1      -8.562   3.358  71.959  1.00  0.00    -0.081 N  
HETATM    4  O   UNL     1      -7.053   3.838  73.617  1.00  0.00    -0.048 OA 
HETATM    5  H   UNL     1      -8.694   2.934  71.041  1.00  0.00     0.000 HD 
ENDROOT
BRANCH   3   6
HETATM    6  C   UNL     1      -9.717   3.891  72.666  1.00  0.00    -0.143 C  
BRANCH   6   7
HETATM    7  C   UNL     1     -10.005   5.321  72.234  1.00  0.00    -0.177 C  
HETATM    8  C   UNL     1      -9.597   5.632  70.813  1.00  0.00    -0.169 C  
HETATM    9  N   UNL     1     -10.503   6.697  70.499  1.00  0.00    -0.199 N  
HETATM   10  C   UNL     1     -11.635   6.562  71.297  1.00  0.00    -0.327 C  
HETATM   11  O   UNL     1     -12.696   7.158  71.229  1.00  0.00    -0.371 OA 
HETATM   12  O   UNL     1     -11.415   5.581  72.236  1.00  0.00    -0.242 OA 
BRANCH   9  13
HETATM   13  C   UNL     1     -10.265   7.686  69.515  1.00  0.00    -0.209 A  
HETATM   14  C   UNL     1      -9.516   8.825  69.804  1.00  0.00    -0.168 A  
HETATM   15  C   UNL     1      -9.262   9.786  68.823  1.00  0.00    -0.143 A  
HETATM   16  C   UNL     1      -9.747   9.677  67.510  1.00  0.00    -0.158 A  
HETATM   17  F   UNL     1      -8.477  10.820  69.171  1.00  0.00    -0.142 F  
HETATM   18  C   UNL     1     -10.734   7.537  68.205  1.00  0.00    -0.128 A  
HETATM   19  C   UNL     1     -10.476   8.515  67.225  1.00  0.00    -0.366 A  
BRANCH  16  20
HETATM   20  N   UNL     1      -9.576  10.656  66.551  1.00  0.00    -0.176 NA 
HETATM   21  C   UNL     1      -8.435  10.645  65.620  1.00  0.00    -0.178 C  
HETATM   22  C   UNL     1      -8.927  10.475  64.177  1.00  0.00    -0.218 C  
HETATM   23  O   UNL     1      -9.872  11.504  63.835  1.00  0.00    -0.265 OA 
HETATM   24  C   UNL     1     -11.019  11.428  64.698  1.00  0.00    -0.255 C  
HETATM   25  C   UNL     1     -10.647  11.595  66.185  1.00  0.00    -0.262 C  
ENDBRANCH  16  20
ENDBRANCH   9  13
ENDBRANCH   6   7
ENDBRANCH   3   6
TORSDOF 4
ENDMDL
MODEL      141
REMARK 921   NORMALIZED FREE ENERGY PREDICTED BY IDOCK:   -3.78 KCAL/MOL
REMARK 922        TOTAL FREE ENERGY PREDICTED BY IDOCK:   -5.06 KCAL/MOL
REMARK 923 INTER-LIGAND FREE ENERGY PREDICTED BY IDOCK:   -4.65 KCAL/MOL
REMARK 924 INTRA-LIGAND FREE ENERGY PREDICTED BY IDOCK:   -0.40 KCAL/MOL
REMARK 927      BINDING AFFINITY PREDICTED BY RF-SCORE:    0.00 PKD
ROOT
HETATM    1  C   UNL     1     -10.093  16.380  65.923  1.00  0.00    -0.370 C  
HETATM    2  C   UNL     1     -10.648  14.983  65.944  1.00  0.00    -0.329 C  
HETATM    3  N   UNL     1      -9.803  14.047  65.396  1.00  0.00    -0.551 N  
HETATM    4  O   UNL     1     -11.741  14.710  66.426  1.00  0.00    -0.369 OA 
HETATM    5  H   UNL     1      -8.883  14.340  65.067  1.00  0.00     0.000 HD 
ENDROOT
BRANCH   3   6
HETATM    6  C   UNL     1     -10.186  12.648  65.273  1.00  0.00    -0.284 C  
BRANCH   6   7
HETATM    7  C   UNL     1      -9.975  11.910  66.586  1.00  0.00    -0.199 C  
HETATM    8  C   UNL     1      -9.806  10.416  66.436  1.00  0.00    -0.213 C  
HETATM    9  N   UNL     1      -9.031  10.114  67.603  1.00  0.00    -0.131 N  
HETATM   10  C   UNL     1      -8.321  11.253  67.968  1.00  0.00    -0.136 C  
HETATM   11  O   UNL     1      -7.434  11.372  68.796  1.00  0.00    -0.111 OA 
HETATM   12  O   UNL     1      -8.750  12.318  67.211  1.00  0.00    -0.172 OA 
BRANCH   9  13
HETATM   13  C   UNL     1      -8.995   8.847  68.234  1.00  0.00    -0.137 A  
HETATM   14  C   UNL     1     -10.164   8.225  68.668  1.00  0.00    -0.223 A  
HETATM   15  C   UNL     1     -10.127   6.964  69.266  1.00  0.00    -0.170 A  
HETATM   16  C   UNL     1      -8.932   6.259  69.480  1.00  0.00    -0.134 A  
HETATM   17  F   UNL     1     -11.307   6.410  69.596  1.00  0.00    -0.364 F  
HETATM   18  C   UNL     1      -7.793   8.153  68.407  1.00  0.00    -0.118 A  
HETATM   19  C   UNL     1      -7.766   6.884  69.015  1.00  0.00    -0.110 A  
BRANCH  16  20
HETATM   20  N   UNL     1      -8.868   5.050  70.145  1.00  0.00    -0.108 NA 
HETATM   21  C   UNL     1      -9.489   3.830  69.604  1.00  0.00    -0.188 C  
HETATM   22  C   UNL     1      -8.418   2.779  69.293  1.00  0.00    -0.063 C  
HETATM   23  O   UNL     1      -7.629   2.491  70.463  1.00  0.00    -0.042 OA 
HETATM   24  C   UNL     1      -6.956   3.681  70.909  1.00  0.00    -0.033 C  
HETATM   25  C   UNL     1      -7.941   4.815  71.261  1.00  0.00    -0.096 C  
ENDBRANCH  16  20
ENDBRANCH   9  13
ENDBRANCH   6   7
ENDBRANCH   3   6
TORSDOF 4
ENDMDL
MODEL      142
REMARK 921   NORMALIZED FREE ENERGY PREDICTED BY IDOCK:   -3.77 KCAL/MOL
REMARK 922        TOTAL FREE ENERGY PREDICTED BY IDOCK:   -5.05 KCAL/MOL
REMARK 923 INTER-LIGAND FREE ENERGY PREDICTED BY IDOCK:   -5.03 KCAL/MOL
REMARK 924 INTRA-LIGAND FREE ENERGY PREDICTED BY IDOCK:   -0.02 KCAL/MOL
REMARK 927      BINDING AFFINITY PREDICTED BY RF-SCORE:    0.00 PKD
ROOT
HETATM    1  C   UNL     1      -6.373  14.710  70.273  1.00  0.00    -0.171 C  
HETATM    2  C   UNL     1      -7.063  15.172  69.020  1.00  0.00    -0.140 C  
HETATM    3  N   UNL     1      -8.408  14.890  68.996  1.00  0.00    -0.202 N  
HETATM    4  O   UNL     1      -6.478  15.763  68.120  1.00  0.00    -0.114 OA 
HETATM    5  H   UNL     1      -8.837  14.447  69.809  1.00  0.00     0.000 HD 
ENDROOT
BRANCH   3   6
HETATM    6  C   UNL     1      -9.238  15.208  67.843  1.00  0.00    -0.184 C  
BRANCH   6   7
HETATM    7  C   UNL     1      -9.507  13.964  67.010  1.00  0.00    -0.254 C  
HETATM    8  C   UNL     1      -8.976  12.686  67.616  1.00  0.00    -0.186 C  
HETATM    9  N   UNL     1      -9.865  11.723  67.039  1.00  0.00    -0.196 N  
HETATM   10  C   UNL     1     -11.064  12.359  66.730  1.00  0.00    -0.285 C  
HETATM   11  O   UNL     1     -12.123  11.870  66.379  1.00  0.00    -0.552 OA 
HETATM   12  O   UNL     1     -10.916  13.715  66.903  1.00  0.00    -0.285 OA 
BRANCH   9  13
HETATM   13  C   UNL     1      -9.555  10.354  66.856  1.00  0.00    -0.172 A  
HETATM   14  C   UNL     1     -10.528   9.367  67.009  1.00  0.00    -0.302 A  
HETATM   15  C   UNL     1     -10.223   8.020  66.801  1.00  0.00    -0.297 A  
HETATM   16  C   UNL     1      -8.939   7.578  66.446  1.00  0.00    -0.167 A  
HETATM   17  F   UNL     1     -11.236   7.143  66.908  1.00  0.00    -0.449 F  
HETATM   18  C   UNL     1      -8.274   9.943  66.471  1.00  0.00    -0.121 A  
HETATM   19  C   UNL     1      -7.977   8.581  66.269  1.00  0.00    -0.102 A  
BRANCH  16  20
HETATM   20  N   UNL     1      -8.601   6.245  66.318  1.00  0.00    -0.132 NA 
HETATM   21  C   UNL     1      -9.145   5.213  67.217  1.00  0.00    -0.113 C  
HETATM   22  C   UNL     1     -10.006   4.220  66.429  1.00  0.00    -0.203 C  
HETATM   23  O   UNL     1      -9.252   3.632  65.352  1.00  0.00    -0.140 OA 
HETATM   24  C   UNL     1      -8.818   4.654  64.439  1.00  0.00    -0.152 C  
HETATM   25  C   UNL     1      -7.931   5.714  65.122  1.00  0.00    -0.113 C  
ENDBRANCH  16  20
ENDBRANCH   9  13
ENDBRANCH   6   7
ENDBRANCH   3   6
TORSDOF 4
ENDMDL
MODEL      143
REMARK 921   NORMALIZED FREE ENERGY PREDICTED BY IDOCK:   -3.74 KCAL/MOL
REMARK 922        TOTAL FREE ENERGY PREDICTED BY IDOCK:   -5.01 KCAL/MOL
REMARK 923 INTER-LIGAND FREE ENERGY PREDICTED BY IDOCK:   -4.30 KCAL/MOL
REMARK 924 INTRA-LIGAND FREE ENERGY PREDICTED BY IDOCK:   -0.71 KCAL/MOL
REMARK 927      BINDING AFFINITY PREDICTED BY RF-SCORE:    0.00 PKD
ROOT
HETATM    1  C   UNL     1     -12.524  12.499  63.231  1.00  0.00    -0.411 C  
HETATM    2  C   UNL     1     -11.168  12.297  63.849  1.00  0.00    -0.421 C  
HETATM    3  N   UNL     1     -10.799  10.976  63.949  1.00  0.00    -0.512 N  
HETATM    4  O   UNL     1     -10.456  13.228  64.206  1.00  0.00    -0.424 OA 
HETATM    5  H   UNL     1     -11.420  10.258  63.576  1.00  0.00     0.000 HD 
ENDROOT
BRANCH   3   6
HETATM    6  C   UNL     1      -9.547  10.575  64.572  1.00  0.00    -0.302 C  
BRANCH   6   7
HETATM    7  C   UNL     1      -9.794   9.960  65.941  1.00  0.00    -0.274 C  
HETATM    8  C   UNL     1      -8.568   9.351  66.578  1.00  0.00    -0.134 C  
HETATM    9  N   UNL     1      -8.903   9.458  67.967  1.00  0.00    -0.124 N  
HETATM   10  C   UNL     1      -9.795  10.514  68.124  1.00  0.00    -0.153 C  
HETATM   11  O   UNL     1     -10.193  11.034  69.152  1.00  0.00    -0.210 OA 
HETATM   12  O   UNL     1     -10.193  10.962  66.887  1.00  0.00    -0.211 OA 
BRANCH   9  13
HETATM   13  C   UNL     1      -8.372   8.630  68.985  1.00  0.00    -0.119 A  
HETATM   14  C   UNL     1      -9.154   7.651  69.597  1.00  0.00    -0.147 A  
HETATM   15  C   UNL     1      -8.619   6.818  70.582  1.00  0.00    -0.142 A  
HETATM   16  C   UNL     1      -7.290   6.918  71.023  1.00  0.00    -0.078 A  
HETATM   17  F   UNL     1      -9.425   5.859  71.073  1.00  0.00    -0.164 F  
HETATM   18  C   UNL     1      -7.035   8.730  69.383  1.00  0.00    -0.053 A  
HETATM   19  C   UNL     1      -6.508   7.888  70.381  1.00  0.00    -0.037 A  
BRANCH  16  20
HETATM   20  N   UNL     1      -6.769   6.160  72.053  1.00  0.00    -0.062 NA 
HETATM   21  C   UNL     1      -6.822   6.608  73.455  1.00  0.00    -0.076 C  
HETATM   22  C   UNL     1      -7.685   5.654  74.288  1.00  0.00    -0.095 C  
HETATM   23  O   UNL     1      -7.195   4.304  74.187  1.00  0.00    -0.068 OA 
HETATM   24  C   UNL     1      -7.249   3.859  72.822  1.00  0.00    -0.062 C  
HETATM   25  C   UNL     1      -6.405   4.746  71.883  1.00  0.00    -0.026 C  
ENDBRANCH  16  20
ENDBRANCH   9  13
ENDBRANCH   6   7
ENDBRANCH   3   6
TORSDOF 4
ENDMDL
MODEL      144
REMARK 921   NORMALIZED FREE ENERGY PREDICTED BY IDOCK:   -3.74 KCAL/MOL
REMARK 922        TOTAL FREE ENERGY PREDICTED BY IDOCK:   -5.01 KCAL/MOL
REMARK 923 INTER-LIGAND FREE ENERGY PREDICTED BY IDOCK:   -4.64 KCAL/MOL
REMARK 924 INTRA-LIGAND FREE ENERGY PREDICTED BY IDOCK:   -0.37 KCAL/MOL
REMARK 927      BINDING AFFINITY PREDICTED BY RF-SCORE:    0.00 PKD
ROOT
HETATM    1  C   UNL     1     -12.770   8.588  72.488  1.00  0.00    -0.329 C  
HETATM    2  C   UNL     1     -13.235   9.719  71.613  1.00  0.00    -0.420 C  
HETATM    3  N   UNL     1     -12.480  10.860  71.741  1.00  0.00    -0.232 N  
HETATM    4  O   UNL     1     -14.184   9.617  70.845  1.00  0.00     0.060 OA 
HETATM    5  H   UNL     1     -11.668  10.851  72.359  1.00  0.00     0.000 HD 
ENDROOT
BRANCH   3   6
HETATM    6  C   UNL     1     -12.808  12.082  71.020  1.00  0.00    -0.187 C  
BRANCH   6   7
HETATM    7  C   UNL     1     -11.766  12.377  69.953  1.00  0.00    -0.266 C  
HETATM    8  C   UNL     1     -11.487  11.221  69.022  1.00  0.00    -0.302 C  
HETATM    9  N   UNL     1     -11.043  11.917  67.851  1.00  0.00    -0.226 N  
HETATM   10  C   UNL     1     -11.600  13.192  67.859  1.00  0.00    -0.336 C  
HETATM   11  O   UNL     1     -11.604  14.032  66.976  1.00  0.00    -0.331 OA 
HETATM   12  O   UNL     1     -12.219  13.410  69.067  1.00  0.00    -0.295 OA 
BRANCH   9  13
HETATM   13  C   UNL     1     -10.202  11.359  66.858  1.00  0.00    -0.219 A  
HETATM   14  C   UNL     1      -8.815  11.475  66.941  1.00  0.00    -0.182 A  
HETATM   15  C   UNL     1      -7.988  10.900  65.974  1.00  0.00    -0.132 A  
HETATM   16  C   UNL     1      -8.488  10.194  64.868  1.00  0.00    -0.172 A  
HETATM   17  F   UNL     1      -6.661  11.005  66.165  1.00  0.00    -0.123 F  
HETATM   18  C   UNL     1     -10.726  10.633  65.784  1.00  0.00    -0.097 A  
HETATM   19  C   UNL     1      -9.882  10.061  64.812  1.00  0.00    -0.325 A  
BRANCH  16  20
HETATM   20  N   UNL     1      -7.690   9.692  63.859  1.00  0.00    -0.125 NA 
HETATM   21  C   UNL     1      -6.552  10.451  63.314  1.00  0.00    -0.068 C  
HETATM   22  C   UNL     1      -5.237   9.718  63.598  1.00  0.00    -0.075 C  
HETATM   23  O   UNL     1      -5.274   8.379  63.070  1.00  0.00    -0.061 OA 
HETATM   24  C   UNL     1      -6.332   7.632  63.693  1.00  0.00    -0.054 C  
HETATM   25  C   UNL     1      -7.716   8.275  63.467  1.00  0.00    -0.142 C  
ENDBRANCH  16  20
ENDBRANCH   9  13
ENDBRANCH   6   7
ENDBRANCH   3   6
TORSDOF 4
ENDMDL
MODEL      145
REMARK 921   NORMALIZED FREE ENERGY PREDICTED BY IDOCK:   -3.53 KCAL/MOL
REMARK 922        TOTAL FREE ENERGY PREDICTED BY IDOCK:   -4.76 KCAL/MOL
REMARK 923 INTER-LIGAND FREE ENERGY PREDICTED BY IDOCK:   -4.04 KCAL/MOL
REMARK 924 INTRA-LIGAND FREE ENERGY PREDICTED BY IDOCK:   -0.71 KCAL/MOL
REMARK 927      BINDING AFFINITY PREDICTED BY RF-SCORE:    0.00 PKD
ROOT
HETATM    1  C   UNL     1      -7.919  15.701  69.338  1.00  0.00    -0.226 C  
HETATM    2  C   UNL     1      -8.264  15.066  68.019  1.00  0.00    -0.137 C  
HETATM    3  N   UNL     1      -9.567  14.633  67.941  1.00  0.00    -0.209 N  
HETATM    4  O   UNL     1      -7.461  14.967  67.100  1.00  0.00    -0.200 OA 
HETATM    5  H   UNL     1     -10.194  14.802  68.727  1.00  0.00     0.000 HD 
ENDROOT
BRANCH   3   6
HETATM    6  C   UNL     1     -10.075  13.940  66.766  1.00  0.00    -0.265 C  
BRANCH   6   7
HETATM    7  C   UNL     1     -10.571  12.549  67.130  1.00  0.00    -0.228 C  
HETATM    8  C   UNL     1      -9.537  11.460  66.967  1.00  0.00    -0.176 C  
HETATM    9  N   UNL     1     -10.007  10.497  67.918  1.00  0.00    -0.166 N  
HETATM   10  C   UNL     1     -10.732  11.164  68.899  1.00  0.00    -0.207 C  
HETATM   11  O   UNL     1     -11.158  10.740  69.960  1.00  0.00    -0.279 OA 
HETATM   12  O   UNL     1     -10.911  12.474  68.521  1.00  0.00    -0.227 OA 
BRANCH   9  13
HETATM   13  C   UNL     1      -9.734   9.109  67.853  1.00  0.00    -0.154 A  
HETATM   14  C   UNL     1     -10.742   8.190  67.564  1.00  0.00    -0.227 A  
HETATM   15  C   UNL     1     -10.463   6.824  67.476  1.00  0.00    -0.239 A  
HETATM   16  C   UNL     1      -9.179   6.296  67.682  1.00  0.00    -0.111 A  
HETATM   17  F   UNL     1     -11.480   6.016  67.129  1.00  0.00    -0.262 F  
HETATM   18  C   UNL     1      -8.439   8.612  68.032  1.00  0.00    -0.127 A  
HETATM   19  C   UNL     1      -8.171   7.232  67.945  1.00  0.00    -0.119 A  
BRANCH  16  20
HETATM   20  N   UNL     1      -8.903   4.942  67.681  1.00  0.00    -0.103 NA 
HETATM   21  C   UNL     1      -8.069   4.318  66.639  1.00  0.00    -0.102 C  
HETATM   22  C   UNL     1      -6.789   3.742  67.256  1.00  0.00    -0.051 C  
HETATM   23  O   UNL     1      -7.103   2.809  68.305  1.00  0.00    -0.048 OA 
HETATM   24  C   UNL     1      -7.831   3.470  69.353  1.00  0.00    -0.050 C  
HETATM   25  C   UNL     1      -9.152   4.087  68.850  1.00  0.00    -0.133 C  
ENDBRANCH  16  20
ENDBRANCH   9  13
ENDBRANCH   6   7
ENDBRANCH   3   6
TORSDOF 4
ENDMDL
MODEL      146
REMARK 921   NORMALIZED FREE ENERGY PREDICTED BY IDOCK:   -3.49 KCAL/MOL
REMARK 922        TOTAL FREE ENERGY PREDICTED BY IDOCK:   -4.70 KCAL/MOL
REMARK 923 INTER-LIGAND FREE ENERGY PREDICTED BY IDOCK:   -4.29 KCAL/MOL
REMARK 924 INTRA-LIGAND FREE ENERGY PREDICTED BY IDOCK:   -0.41 KCAL/MOL
REMARK 927      BINDING AFFINITY PREDICTED BY RF-SCORE:    0.00 PKD
ROOT
HETATM    1  C   UNL     1     -11.827  13.276  64.293  1.00  0.00    -0.469 C  
HETATM    2  C   UNL     1     -11.360  14.020  65.513  1.00  0.00    -0.313 C  
HETATM    3  N   UNL     1      -9.999  13.961  65.707  1.00  0.00    -0.389 N  
HETATM    4  O   UNL     1     -12.122  14.637  66.247  1.00  0.00    -0.319 OA 
HETATM    5  H   UNL     1      -9.421  13.476  65.021  1.00  0.00     0.000 HD 
ENDROOT
BRANCH   3   6
HETATM    6  C   UNL     1      -9.363  14.571  66.865  1.00  0.00    -0.245 C  
BRANCH   6   7
HETATM    7  C   UNL     1      -8.917  13.511  67.860  1.00  0.00    -0.200 C  
HETATM    8  C   UNL     1      -9.449  12.127  67.570  1.00  0.00    -0.180 C  
HETATM    9  N   UNL     1      -8.439  11.315  68.180  1.00  0.00    -0.138 N  
HETATM   10  C   UNL     1      -7.249  12.035  68.203  1.00  0.00    -0.090 C  
HETATM   11  O   UNL     1      -6.127  11.653  68.485  1.00  0.00    -0.049 OA 
HETATM   12  O   UNL     1      -7.495  13.331  67.814  1.00  0.00    -0.122 OA 
BRANCH   9  13
HETATM   13  C   UNL     1      -8.645   9.994  68.645  1.00  0.00    -0.123 A  
HETATM   14  C   UNL     1      -8.027   9.533  69.806  1.00  0.00    -0.134 A  
HETATM   15  C   UNL     1      -8.254   8.238  70.276  1.00  0.00    -0.121 A  
HETATM   16  C   UNL     1      -9.092   7.326  69.614  1.00  0.00    -0.140 A  
HETATM   17  F   UNL     1      -7.668   7.899  71.437  1.00  0.00    -0.073 F  
HETATM   18  C   UNL     1      -9.511   9.116  67.983  1.00  0.00    -0.157 A  
HETATM   19  C   UNL     1      -9.729   7.810  68.463  1.00  0.00    -0.165 A  
BRANCH  16  20
HETATM   20  N   UNL     1      -9.262   6.016  70.018  1.00  0.00    -0.148 NA 
HETATM   21  C   UNL     1      -8.171   5.030  69.944  1.00  0.00    -0.074 C  
HETATM   22  C   UNL     1      -7.793   4.549  71.350  1.00  0.00    -0.086 C  
HETATM   23  O   UNL     1      -8.940   4.011  72.032  1.00  0.00    -0.113 OA 
HETATM   24  C   UNL     1      -9.949   5.024  72.176  1.00  0.00    -0.183 C  
HETATM   25  C   UNL     1     -10.418   5.583  70.816  1.00  0.00    -0.260 C  
ENDBRANCH  16  20
ENDBRANCH   9  13
ENDBRANCH   6   7
ENDBRANCH   3   6
TORSDOF 4
ENDMDL
MODEL      147
REMARK 921   NORMALIZED FREE ENERGY PREDICTED BY IDOCK:   -3.42 KCAL/MOL
REMARK 922        TOTAL FREE ENERGY PREDICTED BY IDOCK:   -4.62 KCAL/MOL
REMARK 923 INTER-LIGAND FREE ENERGY PREDICTED BY IDOCK:   -3.91 KCAL/MOL
REMARK 924 INTRA-LIGAND FREE ENERGY PREDICTED BY IDOCK:   -0.72 KCAL/MOL
REMARK 927      BINDING AFFINITY PREDICTED BY RF-SCORE:    0.00 PKD
ROOT
HETATM    1  C   UNL     1      -8.966   1.597  66.724  1.00  0.00    -0.117 C  
HETATM    2  C   UNL     1      -8.057   2.724  66.319  1.00  0.00    -0.083 C  
HETATM    3  N   UNL     1      -7.872   3.664  67.305  1.00  0.00    -0.079 N  
HETATM    4  O   UNL     1      -7.520   2.781  65.220  1.00  0.00    -0.069 OA 
HETATM    5  H   UNL     1      -8.306   3.519  68.217  1.00  0.00     0.000 HD 
ENDROOT
BRANCH   3   6
HETATM    6  C   UNL     1      -7.071   4.860  67.084  1.00  0.00    -0.066 C  
BRANCH   6   7
HETATM    7  C   UNL     1      -7.940   6.012  66.606  1.00  0.00    -0.102 C  
HETATM    8  C   UNL     1      -7.682   7.319  67.318  1.00  0.00    -0.109 C  
HETATM    9  N   UNL     1      -8.092   8.258  66.317  1.00  0.00    -0.106 N  
HETATM   10  C   UNL     1      -7.956   7.659  65.069  1.00  0.00    -0.131 C  
HETATM   11  O   UNL     1      -8.043   8.164  63.962  1.00  0.00    -0.157 OA 
HETATM   12  O   UNL     1      -7.663   6.326  65.233  1.00  0.00    -0.085 OA 
BRANCH   9  13
HETATM   13  C   UNL     1      -8.530   9.577  66.587  1.00  0.00    -0.133 A  
HETATM   14  C   UNL     1      -9.804   9.824  67.096  1.00  0.00    -0.238 A  
HETATM   15  C   UNL     1     -10.222  11.124  67.386  1.00  0.00    -0.190 A  
HETATM   16  C   UNL     1      -9.408  12.248  67.175  1.00  0.00    -0.196 A  
HETATM   17  F   UNL     1     -11.442  11.265  67.934  1.00  0.00    -0.298 F  
HETATM   18  C   UNL     1      -7.687  10.678  66.397  1.00  0.00    -0.141 A  
HETATM   19  C   UNL     1      -8.120  11.985  66.689  1.00  0.00    -0.023 A  
BRANCH  16  20
HETATM   20  N   UNL     1      -9.835  13.547  67.378  1.00  0.00    -0.224 NA 
HETATM   21  C   UNL     1     -10.828  14.187  66.499  1.00  0.00    -0.298 C  
HETATM   22  C   UNL     1     -12.100  14.519  67.287  1.00  0.00    -0.264 C  
HETATM   23  O   UNL     1     -11.795  15.347  68.424  1.00  0.00    -0.347 OA 
HETATM   24  C   UNL     1     -10.901  14.657  69.313  1.00  0.00    -0.258 C  
HETATM   25  C   UNL     1      -9.572  14.275  68.627  1.00  0.00    -0.192 C  
ENDBRANCH  16  20
ENDBRANCH   9  13
ENDBRANCH   6   7
ENDBRANCH   3   6
TORSDOF 4
ENDMDL
MODEL      148
REMARK 921   NORMALIZED FREE ENERGY PREDICTED BY IDOCK:   -3.40 KCAL/MOL
REMARK 922        TOTAL FREE ENERGY PREDICTED BY IDOCK:   -4.60 KCAL/MOL
REMARK 923 INTER-LIGAND FREE ENERGY PREDICTED BY IDOCK:   -3.86 KCAL/MOL
REMARK 924 INTRA-LIGAND FREE ENERGY PREDICTED BY IDOCK:   -0.74 KCAL/MOL
REMARK 927      BINDING AFFINITY PREDICTED BY RF-SCORE:    0.00 PKD
ROOT
HETATM    1  C   UNL     1      -6.955  10.482  62.469  1.00  0.00    -0.130 C  
HETATM    2  C   UNL     1      -8.395  10.189  62.789  1.00  0.00    -0.165 C  
HETATM    3  N   UNL     1      -8.980  11.130  63.604  1.00  0.00    -0.401 N  
HETATM    4  O   UNL     1      -8.989   9.216  62.343  1.00  0.00    -0.237 OA 
HETATM    5  H   UNL     1      -8.438  11.946  63.889  1.00  0.00     0.000 HD 
ENDROOT
BRANCH   3   6
HETATM    6  C   UNL     1     -10.352  10.992  64.072  1.00  0.00    -0.371 C  
BRANCH   6   7
HETATM    7  C   UNL     1     -10.399  10.884  65.588  1.00  0.00    -0.242 C  
HETATM    8  C   UNL     1      -9.544   9.776  66.156  1.00  0.00    -0.227 C  
HETATM    9  N   UNL     1      -9.274  10.288  67.467  1.00  0.00    -0.141 N  
HETATM   10  C   UNL     1      -9.361  11.676  67.424  1.00  0.00    -0.168 C  
HETATM   11  O   UNL     1      -9.048  12.491  68.275  1.00  0.00    -0.199 OA 
HETATM   12  O   UNL     1      -9.860  12.063  66.202  1.00  0.00    -0.224 OA 
BRANCH   9  13
HETATM   13  C   UNL     1      -8.947   9.488  68.588  1.00  0.00    -0.132 A  
HETATM   14  C   UNL     1      -7.772   8.739  68.620  1.00  0.00    -0.098 A  
HETATM   15  C   UNL     1      -7.440   7.972  69.739  1.00  0.00    -0.089 A  
HETATM   16  C   UNL     1      -8.259   7.894  70.877  1.00  0.00    -0.103 A  
HETATM   17  F   UNL     1      -6.258   7.332  69.711  1.00  0.00    -0.028 F  
HETATM   18  C   UNL     1      -9.766   9.453  69.722  1.00  0.00    -0.215 A  
HETATM   19  C   UNL     1      -9.423   8.673  70.843  1.00  0.00    -0.242 A  
BRANCH  16  20
HETATM   20  N   UNL     1      -7.988   7.077  71.957  1.00  0.00    -0.094 NA 
HETATM   21  C   UNL     1      -8.149   5.615  71.887  1.00  0.00    -0.115 C  
HETATM   22  C   UNL     1      -6.795   4.920  72.071  1.00  0.00    -0.056 C  
HETATM   23  O   UNL     1      -6.179   5.321  73.308  1.00  0.00    -0.047 OA 
HETATM   24  C   UNL     1      -5.944   6.739  73.306  1.00  0.00    -0.057 C  
HETATM   25  C   UNL     1      -7.245   7.549  73.134  1.00  0.00    -0.077 C  
ENDBRANCH  16  20
ENDBRANCH   9  13
ENDBRANCH   6   7
ENDBRANCH   3   6
TORSDOF 4
ENDMDL
MODEL      149
REMARK 921   NORMALIZED FREE ENERGY PREDICTED BY IDOCK:   -3.40 KCAL/MOL
REMARK 922        TOTAL FREE ENERGY PREDICTED BY IDOCK:   -4.60 KCAL/MOL
REMARK 923 INTER-LIGAND FREE ENERGY PREDICTED BY IDOCK:   -4.13 KCAL/MOL
REMARK 924 INTRA-LIGAND FREE ENERGY PREDICTED BY IDOCK:   -0.47 KCAL/MOL
REMARK 927      BINDING AFFINITY PREDICTED BY RF-SCORE:    0.00 PKD
ROOT
HETATM    1  C   UNL     1      -6.432   2.152  72.482  1.00  0.00    -0.014 C  
HETATM    2  C   UNL     1      -7.493   2.720  73.384  1.00  0.00    -0.046 C  
HETATM    3  N   UNL     1      -8.754   2.689  72.838  1.00  0.00    -0.071 N  
HETATM    4  O   UNL     1      -7.251   3.146  74.507  1.00  0.00    -0.045 OA 
HETATM    5  H   UNL     1      -8.887   2.265  71.920  1.00  0.00     0.000 HD 
ENDROOT
BRANCH   3   6
HETATM    6  C   UNL     1      -9.905   3.247  73.534  1.00  0.00    -0.110 C  
BRANCH   6   7
HETATM    7  C   UNL     1     -10.154   4.684  73.106  1.00  0.00    -0.158 C  
HETATM    8  C   UNL     1      -9.714   4.995  71.694  1.00  0.00    -0.170 C  
HETATM    9  N   UNL     1     -10.590   6.081  71.371  1.00  0.00    -0.237 N  
HETATM   10  C   UNL     1     -11.739   5.967  72.147  1.00  0.00    -0.227 C  
HETATM   11  O   UNL     1     -12.785   6.586  72.064  1.00  0.00    -0.303 OA 
HETATM   12  O   UNL     1     -11.558   4.976  73.083  1.00  0.00    -0.328 OA 
BRANCH   9  13
HETATM   13  C   UNL     1     -10.313   7.071  70.397  1.00  0.00    -0.202 A  
HETATM   14  C   UNL     1      -9.675   6.746  69.201  1.00  0.00    -0.147 A  
HETATM   15  C   UNL     1      -9.428   7.720  68.231  1.00  0.00    -0.147 A  
HETATM   16  C   UNL     1      -9.786   9.067  68.399  1.00  0.00    -0.156 A  
HETATM   17  F   UNL     1      -8.866   7.307  67.081  1.00  0.00    -0.120 F  
HETATM   18  C   UNL     1     -10.709   8.400  70.576  1.00  0.00    -0.247 A  
HETATM   19  C   UNL     1     -10.451   9.375  69.594  1.00  0.00    -0.236 A  
BRANCH  16  20
HETATM   20  N   UNL     1      -9.475  10.058  67.488  1.00  0.00    -0.147 NA 
HETATM   21  C   UNL     1     -10.402  10.446  66.412  1.00  0.00    -0.213 C  
HETATM   22  C   UNL     1     -10.853  11.899  66.595  1.00  0.00    -0.276 C  
HETATM   23  O   UNL     1      -9.718  12.783  66.654  1.00  0.00    -0.238 OA 
HETATM   24  C   UNL     1      -8.883  12.442  67.773  1.00  0.00    -0.176 C  
HETATM   25  C   UNL     1      -8.359  10.993  67.693  1.00  0.00    -0.117 C  
ENDBRANCH  16  20
ENDBRANCH   9  13
ENDBRANCH   6   7
ENDBRANCH   3   6
TORSDOF 4
ENDMDL
MODEL      150
REMARK 921   NORMALIZED FREE ENERGY PREDICTED BY IDOCK:   -3.38 KCAL/MOL
REMARK 922        TOTAL FREE ENERGY PREDICTED BY IDOCK:   -4.57 KCAL/MOL
REMARK 923 INTER-LIGAND FREE ENERGY PREDICTED BY IDOCK:   -4.99 KCAL/MOL
REMARK 924 INTRA-LIGAND FREE ENERGY PREDICTED BY IDOCK:    0.42 KCAL/MOL
REMARK 927      BINDING AFFINITY PREDICTED BY RF-SCORE:    0.00 PKD
ROOT
HETATM    1  C   UNL     1     -12.523  11.828  63.019  1.00  0.00    -0.074 C  
HETATM    2  C   UNL     1     -11.977  11.578  64.398  1.00  0.00     0.078 C  
HETATM    3  N   UNL     1     -10.886  10.741  64.415  1.00  0.00    -0.249 N  
HETATM    4  O   UNL     1     -12.451  12.093  65.403  1.00  0.00    -0.523 OA 
HETATM    5  H   UNL     1     -10.511  10.397  63.531  1.00  0.00     0.000 HD 
ENDROOT
BRANCH   3   6
HETATM    6  C   UNL     1     -10.251  10.334  65.660  1.00  0.00    -0.231 C  
BRANCH   6   7
HETATM    7  C   UNL     1      -9.156  11.312  66.056  1.00  0.00    -0.209 C  
HETATM    8  C   UNL     1      -9.646  12.718  66.314  1.00  0.00    -0.242 C  
HETATM    9  N   UNL     1      -8.644  13.190  67.223  1.00  0.00    -0.203 N  
HETATM   10  C   UNL     1      -8.098  12.095  67.884  1.00  0.00    -0.153 C  
HETATM   11  O   UNL     1      -7.342  12.075  68.841  1.00  0.00    -0.110 OA 
HETATM   12  O   UNL     1      -8.562  10.936  67.307  1.00  0.00    -0.127 OA 
BRANCH   9  13
HETATM   13  C   UNL     1      -8.313  14.553  67.413  1.00  0.00    -0.200 A  
HETATM   14  C   UNL     1      -7.550  14.964  68.505  1.00  0.00    -0.121 A  
HETATM   15  C   UNL     1      -7.203  16.306  68.675  1.00  0.00    -0.166 A  
HETATM   16  C   UNL     1      -7.604  17.313  67.782  1.00  0.00    -0.181 A  
HETATM   17  F   UNL     1      -6.412  16.604  69.720  1.00  0.00    -0.210 F  
HETATM   18  C   UNL     1      -8.700  15.532  66.492  1.00  0.00    -0.340 A  
HETATM   19  C   UNL     1      -8.348  16.883  66.675  1.00  0.00    -0.289 A  
BRANCH  16  20
HETATM   20  N   UNL     1      -7.342  18.655  67.979  1.00  0.00    -0.243 NA 
HETATM   21  C   UNL     1      -5.969  19.187  67.990  1.00  0.00    -0.211 C  
HETATM   22  C   UNL     1      -5.765  20.161  66.825  1.00  0.00    -0.173 C  
HETATM   23  O   UNL     1      -6.738  21.221  66.869  1.00  0.00    -0.412 OA 
HETATM   24  C   UNL     1      -8.065  20.679  66.757  1.00  0.00    -0.091 C  
HETATM   25  C   UNL     1      -8.389  19.682  67.889  1.00  0.00    -0.313 C  
ENDBRANCH  16  20
ENDBRANCH   9  13
ENDBRANCH   6   7
ENDBRANCH   3   6
TORSDOF 4
ENDMDL
MODEL      151
REMARK 921   NORMALIZED FREE ENERGY PREDICTED BY IDOCK:   -3.37 KCAL/MOL
REMARK 922        TOTAL FREE ENERGY PREDICTED BY IDOCK:   -4.56 KCAL/MOL
REMARK 923 INTER-LIGAND FREE ENERGY PREDICTED BY IDOCK:   -4.04 KCAL/MOL
REMARK 924 INTRA-LIGAND FREE ENERGY PREDICTED BY IDOCK:   -0.52 KCAL/MOL
REMARK 927      BINDING AFFINITY PREDICTED BY RF-SCORE:    0.00 PKD
ROOT
HETATM    1  C   UNL     1     -12.869  13.890  65.263  1.00  0.00    -0.437 C  
HETATM    2  C   UNL     1     -11.764  14.337  66.179  1.00  0.00    -0.390 C  
HETATM    3  N   UNL     1     -10.507  14.168  65.648  1.00  0.00    -0.307 N  
HETATM    4  O   UNL     1     -11.973  14.826  67.282  1.00  0.00    -0.362 OA 
HETATM    5  H   UNL     1     -10.413  13.808  64.698  1.00  0.00     0.000 HD 
ENDROOT
BRANCH   3   6
HETATM    6  C   UNL     1      -9.306  14.488  66.405  1.00  0.00    -0.273 C  
BRANCH   6   7
HETATM    7  C   UNL     1      -8.795  13.266  67.154  1.00  0.00    -0.222 C  
HETATM    8  C   UNL     1      -8.966  11.965  66.405  1.00  0.00    -0.180 C  
HETATM    9  N   UNL     1      -7.907  11.186  66.974  1.00  0.00    -0.135 N  
HETATM   10  C   UNL     1      -6.918  12.052  67.430  1.00  0.00    -0.139 C  
HETATM   11  O   UNL     1      -5.795  11.792  67.827  1.00  0.00    -0.047 OA 
HETATM   12  O   UNL     1      -7.377  13.346  67.356  1.00  0.00    -0.163 OA 
BRANCH   9  13
HETATM   13  C   UNL     1      -7.889   9.771  67.019  1.00  0.00    -0.102 A  
HETATM   14  C   UNL     1      -6.799   9.048  66.537  1.00  0.00    -0.079 A  
HETATM   15  C   UNL     1      -6.774   7.653  66.609  1.00  0.00    -0.062 A  
HETATM   16  C   UNL     1      -7.830   6.901  67.146  1.00  0.00    -0.109 A  
HETATM   17  F   UNL     1      -5.656   7.041  66.180  1.00  0.00    -0.023 F  
HETATM   18  C   UNL     1      -8.942   9.047  67.588  1.00  0.00    -0.130 A  
HETATM   19  C   UNL     1      -8.909   7.641  67.651  1.00  0.00    -0.125 A  
BRANCH  16  20
HETATM   20  N   UNL     1      -7.859   5.520  67.148  1.00  0.00    -0.101 NA 
HETATM   21  C   UNL     1      -7.572   4.737  68.361  1.00  0.00    -0.077 C  
HETATM   22  C   UNL     1      -8.812   3.943  68.788  1.00  0.00    -0.108 C  
HETATM   23  O   UNL     1      -9.273   3.100  67.717  1.00  0.00    -0.162 OA 
HETATM   24  C   UNL     1      -9.639   3.901  66.581  1.00  0.00    -0.193 C  
HETATM   25  C   UNL     1      -8.460   4.744  66.053  1.00  0.00    -0.116 C  
ENDBRANCH  16  20
ENDBRANCH   9  13
ENDBRANCH   6   7
ENDBRANCH   3   6
TORSDOF 4
ENDMDL
MODEL      152
REMARK 921   NORMALIZED FREE ENERGY PREDICTED BY IDOCK:   -3.33 KCAL/MOL
REMARK 922        TOTAL FREE ENERGY PREDICTED BY IDOCK:   -4.51 KCAL/MOL
REMARK 923 INTER-LIGAND FREE ENERGY PREDICTED BY IDOCK:   -4.01 KCAL/MOL
REMARK 924 INTRA-LIGAND FREE ENERGY PREDICTED BY IDOCK:   -0.50 KCAL/MOL
REMARK 927      BINDING AFFINITY PREDICTED BY RF-SCORE:    0.00 PKD
ROOT
HETATM    1  C   UNL     1      -9.199  17.256  68.286  1.00  0.00    -0.265 C  
HETATM    2  C   UNL     1      -8.624  16.145  67.452  1.00  0.00    -0.180 C  
HETATM    3  N   UNL     1      -9.286  14.948  67.598  1.00  0.00    -0.190 N  
HETATM    4  O   UNL     1      -7.672  16.304  66.699  1.00  0.00    -0.234 OA 
HETATM    5  H   UNL     1     -10.109  14.907  68.200  1.00  0.00     0.000 HD 
ENDROOT
BRANCH   3   6
HETATM    6  C   UNL     1      -8.845  13.740  66.917  1.00  0.00    -0.188 C  
BRANCH   6   7
HETATM    7  C   UNL     1      -9.741  12.563  67.267  1.00  0.00    -0.202 C  
HETATM    8  C   UNL     1      -9.003  11.363  67.814  1.00  0.00    -0.147 C  
HETATM    9  N   UNL     1     -10.031  10.750  68.603  1.00  0.00    -0.174 N  
HETATM   10  C   UNL     1     -10.936  11.734  68.988  1.00  0.00    -0.227 C  
HETATM   11  O   UNL     1     -11.852  11.661  69.789  1.00  0.00    -0.308 OA 
HETATM   12  O   UNL     1     -10.645  12.904  68.328  1.00  0.00    -0.232 OA 
BRANCH   9  13
HETATM   13  C   UNL     1     -10.070   9.376  68.939  1.00  0.00    -0.190 A  
HETATM   14  C   UNL     1      -9.357   8.880  70.030  1.00  0.00    -0.184 A  
HETATM   15  C   UNL     1      -9.420   7.528  70.374  1.00  0.00    -0.161 A  
HETATM   16  C   UNL     1     -10.177   6.594  69.650  1.00  0.00    -0.186 A  
HETATM   17  F   UNL     1      -8.753   7.149  71.478  1.00  0.00    -0.119 F  
HETATM   18  C   UNL     1     -10.858   8.472  68.219  1.00  0.00     0.013 A  
HETATM   19  C   UNL     1     -10.910   7.110  68.572  1.00  0.00    -0.141 A  
BRANCH  16  20
HETATM   20  N   UNL     1     -10.184   5.241  69.925  1.00  0.00    -0.272 NA 
HETATM   21  C   UNL     1      -9.572   4.257  69.016  1.00  0.00    -0.170 C  
HETATM   22  C   UNL     1      -8.397   3.554  69.704  1.00  0.00    -0.052 C  
HETATM   23  O   UNL     1      -8.820   2.938  70.934  1.00  0.00    -0.071 OA 
HETATM   24  C   UNL     1      -9.321   3.936  71.840  1.00  0.00    -0.131 C  
HETATM   25  C   UNL     1     -10.520   4.710  71.254  1.00  0.00     0.000 C  
ENDBRANCH  16  20
ENDBRANCH   9  13
ENDBRANCH   6   7
ENDBRANCH   3   6
TORSDOF 4
ENDMDL
MODEL      153
REMARK 921   NORMALIZED FREE ENERGY PREDICTED BY IDOCK:   -3.33 KCAL/MOL
REMARK 922        TOTAL FREE ENERGY PREDICTED BY IDOCK:   -4.51 KCAL/MOL
REMARK 923 INTER-LIGAND FREE ENERGY PREDICTED BY IDOCK:   -4.66 KCAL/MOL
REMARK 924 INTRA-LIGAND FREE ENERGY PREDICTED BY IDOCK:    0.15 KCAL/MOL
REMARK 927      BINDING AFFINITY PREDICTED BY RF-SCORE:    0.00 PKD
ROOT
HETATM    1  C   UNL     1      -9.611  10.078  62.354  1.00  0.00    -0.100 C  
HETATM    2  C   UNL     1      -9.803  11.155  63.385  1.00  0.00    -0.361 C  
HETATM    3  N   UNL     1      -9.823  10.684  64.677  1.00  0.00    -0.293 N  
HETATM    4  O   UNL     1      -9.909  12.340  63.095  1.00  0.00    -0.373 OA 
HETATM    5  H   UNL     1      -9.670   9.689  64.845  1.00  0.00     0.000 HD 
ENDROOT
BRANCH   3   6
HETATM    6  C   UNL     1     -10.056  11.566  65.811  1.00  0.00    -0.237 C  
BRANCH   6   7
HETATM    7  C   UNL     1      -8.757  12.206  66.276  1.00  0.00     0.018 C  
HETATM    8  C   UNL     1      -8.939  13.512  67.013  1.00  0.00    -0.231 C  
HETATM    9  N   UNL     1      -7.763  13.528  67.830  1.00  0.00    -0.146 N  
HETATM   10  C   UNL     1      -7.352  12.215  68.037  1.00  0.00    -0.105 C  
HETATM   11  O   UNL     1      -6.501  11.789  68.798  1.00  0.00    -0.056 OA 
HETATM   12  O   UNL     1      -8.093  11.375  67.239  1.00  0.00    -0.135 OA 
BRANCH   9  13
HETATM   13  C   UNL     1      -7.162  14.701  68.346  1.00  0.00    -0.117 A  
HETATM   14  C   UNL     1      -6.641  14.735  69.639  1.00  0.00    -0.161 A  
HETATM   15  C   UNL     1      -6.026  15.886  70.135  1.00  0.00    -0.134 A  
HETATM   16  C   UNL     1      -5.906  17.067  69.386  1.00  0.00    -0.202 A  
HETATM   17  F   UNL     1      -5.494  15.810  71.368  1.00  0.00    -0.096 F  
HETATM   18  C   UNL     1      -7.028  15.855  67.567  1.00  0.00    -0.209 A  
HETATM   19  C   UNL     1      -6.409  17.012  68.079  1.00  0.00    -0.147 A  
BRANCH  16  20
HETATM   20  N   UNL     1      -5.376  18.239  69.889  1.00  0.00    -0.208 NA 
HETATM   21  C   UNL     1      -5.248  19.453  69.066  1.00  0.00    -0.188 C  
HETATM   22  C   UNL     1      -6.127  20.575  69.629  1.00  0.00    -0.275 C  
HETATM   23  O   UNL     1      -5.799  20.838  71.006  1.00  0.00    -0.565 OA 
HETATM   24  C   UNL     1      -6.029  19.664  71.802  1.00  0.00    -0.091 C  
HETATM   25  C   UNL     1      -5.186  18.461  71.330  1.00  0.00    -0.248 C  
ENDBRANCH  16  20
ENDBRANCH   9  13
ENDBRANCH   6   7
ENDBRANCH   3   6
TORSDOF 4
ENDMDL
MODEL      154
REMARK 921   NORMALIZED FREE ENERGY PREDICTED BY IDOCK:   -3.32 KCAL/MOL
REMARK 922        TOTAL FREE ENERGY PREDICTED BY IDOCK:   -4.49 KCAL/MOL
REMARK 923 INTER-LIGAND FREE ENERGY PREDICTED BY IDOCK:   -3.88 KCAL/MOL
REMARK 924 INTRA-LIGAND FREE ENERGY PREDICTED BY IDOCK:   -0.61 KCAL/MOL
REMARK 927      BINDING AFFINITY PREDICTED BY RF-SCORE:    0.00 PKD
ROOT
HETATM    1  C   UNL     1     -10.337  15.783  68.039  1.00  0.00    -0.252 C  
HETATM    2  C   UNL     1     -10.863  14.514  67.427  1.00  0.00    -0.291 C  
HETATM    3  N   UNL     1     -11.478  13.681  68.332  1.00  0.00    -0.288 N  
HETATM    4  O   UNL     1     -10.767  14.264  66.232  1.00  0.00    -0.290 OA 
HETATM    5  H   UNL     1     -11.571  13.983  69.301  1.00  0.00     0.000 HD 
ENDROOT
BRANCH   3   6
HETATM    6  C   UNL     1     -12.000  12.379  67.943  1.00  0.00    -0.196 C  
BRANCH   6   7
HETATM    7  C   UNL     1     -11.115  11.260  68.470  1.00  0.00    -0.235 C  
HETATM    8  C   UNL     1     -11.033  10.055  67.563  1.00  0.00    -0.212 C  
HETATM    9  N   UNL     1      -9.754   9.526  67.931  1.00  0.00    -0.144 N  
HETATM   10  C   UNL     1      -8.972  10.566  68.424  1.00  0.00    -0.141 C  
HETATM   11  O   UNL     1      -7.783  10.571  68.690  1.00  0.00    -0.093 OA 
HETATM   12  O   UNL     1      -9.750  11.691  68.568  1.00  0.00    -0.195 OA 
BRANCH   9  13
HETATM   13  C   UNL     1      -9.373   8.171  67.777  1.00  0.00    -0.134 A  
HETATM   14  C   UNL     1      -9.301   7.314  68.874  1.00  0.00    -0.144 A  
HETATM   15  C   UNL     1      -8.951   5.971  68.714  1.00  0.00    -0.118 A  
HETATM   16  C   UNL     1      -8.640   5.411  67.465  1.00  0.00    -0.108 A  
HETATM   17  F   UNL     1      -8.969   5.201  69.816  1.00  0.00    -0.106 F  
HETATM   18  C   UNL     1      -9.098   7.631  66.516  1.00  0.00    -0.203 A  
HETATM   19  C   UNL     1      -8.742   6.276  66.367  1.00  0.00    -0.137 A  
BRANCH  16  20
HETATM   20  N   UNL     1      -8.211   4.108  67.299  1.00  0.00    -0.099 NA 
HETATM   21  C   UNL     1      -6.912   3.644  67.814  1.00  0.00    -0.051 C  
HETATM   22  C   UNL     1      -7.118   2.570  68.888  1.00  0.00    -0.044 C  
HETATM   23  O   UNL     1      -7.898   1.476  68.373  1.00  0.00    -0.049 OA 
HETATM   24  C   UNL     1      -9.197   1.943  67.970  1.00  0.00    -0.183 C  
HETATM   25  C   UNL     1      -9.116   3.029  66.878  1.00  0.00    -0.167 C  
ENDBRANCH  16  20
ENDBRANCH   9  13
ENDBRANCH   6   7
ENDBRANCH   3   6
TORSDOF 4
ENDMDL
MODEL      155
REMARK 921   NORMALIZED FREE ENERGY PREDICTED BY IDOCK:   -3.30 KCAL/MOL
REMARK 922        TOTAL FREE ENERGY PREDICTED BY IDOCK:   -4.47 KCAL/MOL
REMARK 923 INTER-LIGAND FREE ENERGY PREDICTED BY IDOCK:   -4.37 KCAL/MOL
REMARK 924 INTRA-LIGAND FREE ENERGY PREDICTED BY IDOCK:   -0.11 KCAL/MOL
REMARK 927      BINDING AFFINITY PREDICTED BY RF-SCORE:    0.00 PKD
ROOT
HETATM    1  C   UNL     1      -6.860  15.224  69.852  1.00  0.00    -0.135 C  
HETATM    2  C   UNL     1      -6.569  14.073  68.929  1.00  0.00    -0.101 C  
HETATM    3  N   UNL     1      -7.575  13.823  68.026  1.00  0.00    -0.128 N  
HETATM    4  O   UNL     1      -5.522  13.438  68.970  1.00  0.00    -0.072 OA 
HETATM    5  H   UNL     1      -8.393  14.432  68.013  1.00  0.00     0.000 HD 
ENDROOT
BRANCH   3   6
HETATM    6  C   UNL     1      -7.504  12.714  67.087  1.00  0.00    -0.050 C  
BRANCH   6   7
HETATM    7  C   UNL     1      -8.537  11.650  67.425  1.00  0.00    -0.149 C  
HETATM    8  C   UNL     1      -8.177  10.794  68.616  1.00  0.00    -0.139 C  
HETATM    9  N   UNL     1      -9.477  10.397  69.067  1.00  0.00    -0.188 N  
HETATM   10  C   UNL     1     -10.396  11.360  68.664  1.00  0.00    -0.203 C  
HETATM   11  O   UNL     1     -11.568  11.483  68.980  1.00  0.00    -0.259 OA 
HETATM   12  O   UNL     1      -9.780  12.251  67.816  1.00  0.00    -0.189 OA 
BRANCH   9  13
HETATM   13  C   UNL     1      -9.742   9.228  69.821  1.00  0.00    -0.189 A  
HETATM   14  C   UNL     1     -10.311   9.303  71.091  1.00  0.00    -0.392 A  
HETATM   15  C   UNL     1     -10.595   8.146  71.820  1.00  0.00    -0.250 A  
HETATM   16  C   UNL     1     -10.318   6.857  71.338  1.00  0.00    -0.201 A  
HETATM   17  F   UNL     1     -11.203   8.308  73.008  1.00  0.00    -0.428 F  
HETATM   18  C   UNL     1      -9.484   7.954  69.303  1.00  0.00    -0.152 A  
HETATM   19  C   UNL     1      -9.771   6.794  70.049  1.00  0.00    -0.170 A  
BRANCH  16  20
HETATM   20  N   UNL     1     -10.514   5.708  72.078  1.00  0.00    -0.212 NA 
HETATM   21  C   UNL     1      -9.940   4.413  71.674  1.00  0.00    -0.186 C  
HETATM   22  C   UNL     1      -8.930   3.929  72.721  1.00  0.00    -0.104 C  
HETATM   23  O   UNL     1      -9.541   3.848  74.021  1.00  0.00    -0.095 OA 
HETATM   24  C   UNL     1     -10.003   5.146  74.431  1.00  0.00    -0.221 C  
HETATM   25  C   UNL     1     -11.038   5.736  73.451  1.00  0.00    -0.151 C  
ENDBRANCH  16  20
ENDBRANCH   9  13
ENDBRANCH   6   7
ENDBRANCH   3   6
TORSDOF 4
ENDMDL
MODEL      156
REMARK 921   NORMALIZED FREE ENERGY PREDICTED BY IDOCK:   -3.26 KCAL/MOL
REMARK 922        TOTAL FREE ENERGY PREDICTED BY IDOCK:   -4.42 KCAL/MOL
REMARK 923 INTER-LIGAND FREE ENERGY PREDICTED BY IDOCK:   -4.37 KCAL/MOL
REMARK 924 INTRA-LIGAND FREE ENERGY PREDICTED BY IDOCK:   -0.04 KCAL/MOL
REMARK 927      BINDING AFFINITY PREDICTED BY RF-SCORE:    0.00 PKD
ROOT
HETATM    1  C   UNL     1      -6.238  10.975  62.393  1.00  0.00    -0.022 C  
HETATM    2  C   UNL     1      -7.335  10.059  62.861  1.00  0.00    -0.131 C  
HETATM    3  N   UNL     1      -8.115  10.598  63.856  1.00  0.00    -0.356 N  
HETATM    4  O   UNL     1      -7.522   8.949  62.380  1.00  0.00    -0.103 OA 
HETATM    5  H   UNL     1      -7.934  11.553  64.166  1.00  0.00     0.000 HD 
ENDROOT
BRANCH   3   6
HETATM    6  C   UNL     1      -9.192   9.843  64.480  1.00  0.00    -0.261 C  
BRANCH   6   7
HETATM    7  C   UNL     1      -8.669   9.006  65.636  1.00  0.00    -0.175 C  
HETATM    8  C   UNL     1      -9.684   8.751  66.726  1.00  0.00    -0.221 C  
HETATM    9  N   UNL     1      -9.192   7.521  67.271  1.00  0.00    -0.129 N  
HETATM   10  C   UNL     1      -8.474   6.857  66.282  1.00  0.00    -0.131 C  
HETATM   11  O   UNL     1      -8.035   5.719  66.286  1.00  0.00    -0.099 OA 
HETATM   12  O   UNL     1      -8.321   7.686  65.196  1.00  0.00    -0.138 OA 
BRANCH   9  13
HETATM   13  C   UNL     1      -9.439   7.075  68.592  1.00  0.00    -0.135 A  
HETATM   14  C   UNL     1     -10.740   6.956  69.080  1.00  0.00    -0.262 A  
HETATM   15  C   UNL     1     -10.981   6.490  70.374  1.00  0.00    -0.298 A  
HETATM   16  C   UNL     1      -9.950   6.131  71.257  1.00  0.00    -0.182 A  
HETATM   17  F   UNL     1     -12.266   6.346  70.741  1.00  0.00    -0.404 F  
HETATM   18  C   UNL     1      -8.394   6.694  69.440  1.00  0.00    -0.128 A  
HETATM   19  C   UNL     1      -8.649   6.229  70.745  1.00  0.00    -0.135 A  
BRANCH  16  20
HETATM   20  N   UNL     1     -10.166   5.748  72.566  1.00  0.00    -0.184 NA 
HETATM   21  C   UNL     1     -11.456   5.199  73.015  1.00  0.00    -0.274 C  
HETATM   22  C   UNL     1     -11.283   3.750  73.485  1.00  0.00    -0.204 C  
HETATM   23  O   UNL     1     -10.289   3.664  74.522  1.00  0.00    -0.179 OA 
HETATM   24  C   UNL     1      -9.017   4.115  74.024  1.00  0.00    -0.094 C  
HETATM   25  C   UNL     1      -9.066   5.574  73.526  1.00  0.00    -0.128 C  
ENDBRANCH  16  20
ENDBRANCH   9  13
ENDBRANCH   6   7
ENDBRANCH   3   6
TORSDOF 4
ENDMDL
MODEL      157
REMARK 921   NORMALIZED FREE ENERGY PREDICTED BY IDOCK:   -3.15 KCAL/MOL
REMARK 922        TOTAL FREE ENERGY PREDICTED BY IDOCK:   -4.28 KCAL/MOL
REMARK 923 INTER-LIGAND FREE ENERGY PREDICTED BY IDOCK:   -3.75 KCAL/MOL
REMARK 924 INTRA-LIGAND FREE ENERGY PREDICTED BY IDOCK:   -0.53 KCAL/MOL
REMARK 927      BINDING AFFINITY PREDICTED BY RF-SCORE:    0.00 PKD
ROOT
HETATM    1  C   UNL     1      -5.528  13.456  71.264  1.00  0.00    -0.198 C  
HETATM    2  C   UNL     1      -6.037  13.271  69.861  1.00  0.00    -0.125 C  
HETATM    3  N   UNL     1      -6.877  12.191  69.718  1.00  0.00    -0.343 N  
HETATM    4  O   UNL     1      -5.743  14.027  68.944  1.00  0.00    -0.079 OA 
HETATM    5  H   UNL     1      -7.122  11.641  70.540  1.00  0.00     0.000 HD 
ENDROOT
BRANCH   3   6
HETATM    6  C   UNL     1      -7.426  11.814  68.423  1.00  0.00    -0.105 C  
BRANCH   6   7
HETATM    7  C   UNL     1      -7.881  10.363  68.430  1.00  0.00    -0.104 C  
HETATM    8  C   UNL     1      -8.128   9.798  69.809  1.00  0.00    -0.167 C  
HETATM    9  N   UNL     1      -9.087   8.776  69.515  1.00  0.00    -0.144 N  
HETATM   10  C   UNL     1      -9.764   9.129  68.352  1.00  0.00    -0.152 C  
HETATM   11  O   UNL     1     -10.755   8.620  67.857  1.00  0.00    -0.194 OA 
HETATM   12  O   UNL     1      -9.155  10.224  67.786  1.00  0.00    -0.134 OA 
BRANCH   9  13
HETATM   13  C   UNL     1      -9.304   7.627  70.313  1.00  0.00    -0.157 A  
HETATM   14  C   UNL     1     -10.552   7.367  70.878  1.00  0.00    -0.234 A  
HETATM   15  C   UNL     1     -10.769   6.218  71.642  1.00  0.00    -0.239 A  
HETATM   16  C   UNL     1      -9.761   5.276  71.900  1.00  0.00    -0.159 A  
HETATM   17  F   UNL     1     -12.019   6.014  72.094  1.00  0.00    -0.351 F  
HETATM   18  C   UNL     1      -8.290   6.688  70.528  1.00  0.00    -0.130 A  
HETATM   19  C   UNL     1      -8.519   5.535  71.305  1.00  0.00    -0.127 A  
BRANCH  16  20
HETATM   20  N   UNL     1      -9.935   4.179  72.722  1.00  0.00    -0.145 NA 
HETATM   21  C   UNL     1     -10.098   2.819  72.182  1.00  0.00    -0.140 C  
HETATM   22  C   UNL     1      -8.930   1.928  72.619  1.00  0.00    -0.062 C  
HETATM   23  O   UNL     1      -8.809   1.912  74.053  1.00  0.00    -0.061 OA 
HETATM   24  C   UNL     1      -8.551   3.239  74.542  1.00  0.00    -0.076 C  
HETATM   25  C   UNL     1      -9.672   4.230  74.167  1.00  0.00    -0.121 C  
ENDBRANCH  16  20
ENDBRANCH   9  13
ENDBRANCH   6   7
ENDBRANCH   3   6
TORSDOF 4
ENDMDL
MODEL      158
REMARK 921   NORMALIZED FREE ENERGY PREDICTED BY IDOCK:   -3.13 KCAL/MOL
REMARK 922        TOTAL FREE ENERGY PREDICTED BY IDOCK:   -4.26 KCAL/MOL
REMARK 923 INTER-LIGAND FREE ENERGY PREDICTED BY IDOCK:   -4.49 KCAL/MOL
REMARK 924 INTRA-LIGAND FREE ENERGY PREDICTED BY IDOCK:    0.23 KCAL/MOL
REMARK 927      BINDING AFFINITY PREDICTED BY RF-SCORE:    0.00 PKD
ROOT
HETATM    1  C   UNL     1     -13.020  15.702  73.467  1.00  0.00    -0.679 C  
HETATM    2  C   UNL     1     -13.279  15.595  71.989  1.00  0.00    -0.457 C  
HETATM    3  N   UNL     1     -12.134  15.609  71.228  1.00  0.00    -0.373 N  
HETATM    4  O   UNL     1     -14.404  15.485  71.519  1.00  0.00    -0.497 OA 
HETATM    5  H   UNL     1     -11.228  15.645  71.694  1.00  0.00     0.000 HD 
ENDROOT
BRANCH   3   6
HETATM    6  C   UNL     1     -12.181  15.573  69.773  1.00  0.00    -0.302 C  
BRANCH   6   7
HETATM    7  C   UNL     1     -12.098  14.143  69.264  1.00  0.00    -0.324 C  
HETATM    8  C   UNL     1     -10.720  13.531  69.354  1.00  0.00     0.095 C  
HETATM    9  N   UNL     1     -11.046  12.139  69.444  1.00  0.00    -0.170 N  
HETATM   10  C   UNL     1     -12.322  12.020  69.986  1.00  0.00    -0.108 C  
HETATM   11  O   UNL     1     -12.901  11.020  70.373  1.00  0.00    -0.252 OA 
HETATM   12  O   UNL     1     -12.900  13.266  70.068  1.00  0.00     0.056 OA 
BRANCH   9  13
HETATM   13  C   UNL     1     -10.180  11.087  69.063  1.00  0.00    -0.200 A  
HETATM   14  C   UNL     1      -9.045  11.332  68.291  1.00  0.00    -0.173 A  
HETATM   15  C   UNL     1      -8.178  10.295  67.940  1.00  0.00    -0.109 A  
HETATM   16  C   UNL     1      -8.395   8.961  68.321  1.00  0.00    -0.125 A  
HETATM   17  F   UNL     1      -7.074  10.630  67.250  1.00  0.00    -0.081 F  
HETATM   18  C   UNL     1     -10.403   9.771  69.483  1.00  0.00    -0.247 A  
HETATM   19  C   UNL     1      -9.525   8.733  69.119  1.00  0.00    -0.157 A  
BRANCH  16  20
HETATM   20  N   UNL     1      -7.595   7.912  67.913  1.00  0.00    -0.107 NA 
HETATM   21  C   UNL     1      -8.110   6.822  67.067  1.00  0.00    -0.109 C  
HETATM   22  C   UNL     1      -7.394   6.815  65.712  1.00  0.00    -0.075 C  
HETATM   23  O   UNL     1      -5.969   6.713  65.888  1.00  0.00    -0.028 OA 
HETATM   24  C   UNL     1      -5.481   7.842  66.633  1.00  0.00    -0.028 C  
HETATM   25  C   UNL     1      -6.130   7.949  68.029  1.00  0.00    -0.046 C  
ENDBRANCH  16  20
ENDBRANCH   9  13
ENDBRANCH   6   7
ENDBRANCH   3   6
TORSDOF 4
ENDMDL
MODEL      159
REMARK 921   NORMALIZED FREE ENERGY PREDICTED BY IDOCK:   -3.09 KCAL/MOL
REMARK 922        TOTAL FREE ENERGY PREDICTED BY IDOCK:   -4.21 KCAL/MOL
REMARK 923 INTER-LIGAND FREE ENERGY PREDICTED BY IDOCK:   -3.89 KCAL/MOL
REMARK 924 INTRA-LIGAND FREE ENERGY PREDICTED BY IDOCK:   -0.32 KCAL/MOL
REMARK 927      BINDING AFFINITY PREDICTED BY RF-SCORE:    0.00 PKD
ROOT
HETATM    1  C   UNL     1      -9.182   2.803  66.480  1.00  0.00    -0.102 C  
HETATM    2  C   UNL     1      -8.548   3.752  65.500  1.00  0.00    -0.111 C  
HETATM    3  N   UNL     1      -7.917   4.818  66.095  1.00  0.00    -0.102 N  
HETATM    4  O   UNL     1      -8.577   3.572  64.289  1.00  0.00    -0.093 OA 
HETATM    5  H   UNL     1      -7.885   4.870  67.114  1.00  0.00     0.000 HD 
ENDROOT
BRANCH   3   6
HETATM    6  C   UNL     1      -7.295   5.875  65.312  1.00  0.00    -0.076 C  
BRANCH   6   7
HETATM    7  C   UNL     1      -8.186   7.106  65.256  1.00  0.00    -0.128 C  
HETATM    8  C   UNL     1      -7.618   8.315  65.963  1.00  0.00    -0.078 C  
HETATM    9  N   UNL     1      -8.262   9.374  65.246  1.00  0.00    -0.125 N  
HETATM   10  C   UNL     1      -8.581   8.914  63.972  1.00  0.00    -0.100 C  
HETATM   11  O   UNL     1      -8.984   9.542  63.008  1.00  0.00    -0.241 OA 
HETATM   12  O   UNL     1      -8.347   7.561  63.906  1.00  0.00    -0.005 OA 
BRANCH   9  13
HETATM   13  C   UNL     1      -8.493  10.670  65.767  1.00  0.00    -0.178 A  
HETATM   14  C   UNL     1      -7.678  11.199  66.767  1.00  0.00    -0.153 A  
HETATM   15  C   UNL     1      -7.892  12.489  67.260  1.00  0.00    -0.160 A  
HETATM   16  C   UNL     1      -8.930  13.315  66.801  1.00  0.00    -0.174 A  
HETATM   17  F   UNL     1      -7.021  12.943  68.177  1.00  0.00    -0.071 F  
HETATM   18  C   UNL     1      -9.515  11.484  65.270  1.00  0.00    -0.206 A  
HETATM   19  C   UNL     1      -9.725  12.781  65.777  1.00  0.00    -0.167 A  
BRANCH  16  20
HETATM   20  N   UNL     1      -9.208  14.558  67.335  1.00  0.00    -0.193 NA 
HETATM   21  C   UNL     1      -9.136  15.787  66.527  1.00  0.00    -0.293 C  
HETATM   22  C   UNL     1     -10.521  16.435  66.419  1.00  0.00    -0.286 C  
HETATM   23  O   UNL     1     -11.066  16.698  67.725  1.00  0.00    -0.279 OA 
HETATM   24  C   UNL     1     -11.217  15.468  68.453  1.00  0.00    -0.341 C  
HETATM   25  C   UNL     1      -9.877  14.725  68.634  1.00  0.00    -0.225 C  
ENDBRANCH  16  20
ENDBRANCH   9  13
ENDBRANCH   6   7
ENDBRANCH   3   6
TORSDOF 4
ENDMDL
MODEL      160
REMARK 921   NORMALIZED FREE ENERGY PREDICTED BY IDOCK:   -3.04 KCAL/MOL
REMARK 922        TOTAL FREE ENERGY PREDICTED BY IDOCK:   -4.14 KCAL/MOL
REMARK 923 INTER-LIGAND FREE ENERGY PREDICTED BY IDOCK:   -3.86 KCAL/MOL
REMARK 924 INTRA-LIGAND FREE ENERGY PREDICTED BY IDOCK:   -0.28 KCAL/MOL
REMARK 927      BINDING AFFINITY PREDICTED BY RF-SCORE:    0.00 PKD
ROOT
HETATM    1  C   UNL     1     -11.410   3.413  63.127  1.00  0.00     0.409 C  
HETATM    2  C   UNL     1     -10.068   3.599  63.778  1.00  0.00    -0.204 C  
HETATM    3  N   UNL     1     -10.081   4.493  64.822  1.00  0.00    -0.393 N  
HETATM    4  O   UNL     1      -9.067   2.989  63.420  1.00  0.00    -0.095 OA 
HETATM    5  H   UNL     1     -10.965   4.919  65.100  1.00  0.00     0.000 HD 
ENDROOT
BRANCH   3   6
HETATM    6  C   UNL     1      -8.867   4.850  65.541  1.00  0.00    -0.143 C  
BRANCH   6   7
HETATM    7  C   UNL     1      -8.861   6.329  65.895  1.00  0.00    -0.139 C  
HETATM    8  C   UNL     1      -9.967   6.745  66.836  1.00  0.00    -0.191 C  
HETATM    9  N   UNL     1      -9.374   7.890  67.460  1.00  0.00    -0.141 N  
HETATM   10  C   UNL     1      -7.991   7.755  67.407  1.00  0.00    -0.119 C  
HETATM   11  O   UNL     1      -7.133   8.422  67.959  1.00  0.00    -0.082 OA 
HETATM   12  O   UNL     1      -7.670   6.679  66.613  1.00  0.00    -0.098 OA 
BRANCH   9  13
HETATM   13  C   UNL     1     -10.106   8.950  68.049  1.00  0.00    -0.195 A  
HETATM   14  C   UNL     1     -10.406   8.949  69.410  1.00  0.00    -0.217 A  
HETATM   15  C   UNL     1     -11.104  10.010  69.992  1.00  0.00    -0.295 A  
HETATM   16  C   UNL     1     -11.554  11.117  69.256  1.00  0.00    -0.318 A  
HETATM   17  F   UNL     1     -11.294   9.958  71.322  1.00  0.00    -0.390 F  
HETATM   18  C   UNL     1     -10.516  10.057  67.298  1.00  0.00    -0.313 A  
HETATM   19  C   UNL     1     -11.223  11.119  67.894  1.00  0.00    -0.365 A  
BRANCH  16  20
HETATM   20  N   UNL     1     -12.318  12.133  69.798  1.00  0.00    -0.098 NA 
HETATM   21  C   UNL     1     -13.315  11.881  70.852  1.00  0.00     0.596 C  
HETATM   22  C   UNL     1     -12.919  12.605  72.144  1.00  0.00    -0.228 C  
HETATM   23  O   UNL     1     -12.750  14.015  71.908  1.00  0.00    -0.326 OA 
HETATM   24  C   UNL     1     -11.703  14.233  70.948  1.00  0.00    -0.177 C  
HETATM   25  C   UNL     1     -11.997  13.553  69.595  1.00  0.00    -0.337 C  
ENDBRANCH  16  20
ENDBRANCH   9  13
ENDBRANCH   6   7
ENDBRANCH   3   6
TORSDOF 4
ENDMDL
MODEL      161
REMARK 921   NORMALIZED FREE ENERGY PREDICTED BY IDOCK:   -2.97 KCAL/MOL
REMARK 922        TOTAL FREE ENERGY PREDICTED BY IDOCK:   -4.07 KCAL/MOL
REMARK 923 INTER-LIGAND FREE ENERGY PREDICTED BY IDOCK:   -3.94 KCAL/MOL
REMARK 924 INTRA-LIGAND FREE ENERGY PREDICTED BY IDOCK:   -0.12 KCAL/MOL
REMARK 927      BINDING AFFINITY PREDICTED BY RF-SCORE:    0.00 PKD
ROOT
HETATM    1  C   UNL     1      -6.423  14.702  70.228  1.00  0.00    -0.149 C  
HETATM    2  C   UNL     1      -7.174  15.230  69.037  1.00  0.00    -0.151 C  
HETATM    3  N   UNL     1      -8.509  14.903  69.039  1.00  0.00    -0.227 N  
HETATM    4  O   UNL     1      -6.643  15.906  68.165  1.00  0.00    -0.113 OA 
HETATM    5  H   UNL     1      -8.893  14.386  69.830  1.00  0.00     0.000 HD 
ENDROOT
BRANCH   3   6
HETATM    6  C   UNL     1      -9.391  15.274  67.942  1.00  0.00    -0.189 C  
BRANCH   6   7
HETATM    7  C   UNL     1      -9.583  14.109  66.984  1.00  0.00    -0.262 C  
HETATM    8  C   UNL     1      -8.911  12.829  67.422  1.00  0.00    -0.195 C  
HETATM    9  N   UNL     1      -9.735  11.854  66.770  1.00  0.00    -0.200 N  
HETATM   10  C   UNL     1     -10.998  12.404  66.577  1.00  0.00    -0.272 C  
HETATM   11  O   UNL     1     -12.024  11.857  66.209  1.00  0.00    -0.554 OA 
HETATM   12  O   UNL     1     -10.967  13.741  66.897  1.00  0.00    -0.286 OA 
BRANCH   9  13
HETATM   13  C   UNL     1      -9.309  10.550  66.422  1.00  0.00    -0.168 A  
HETATM   14  C   UNL     1      -8.066  10.331  65.832  1.00  0.00    -0.143 A  
HETATM   15  C   UNL     1      -7.638   9.040  65.515  1.00  0.00    -0.090 A  
HETATM   16  C   UNL     1      -8.424   7.901  65.752  1.00  0.00    -0.140 A  
HETATM   17  F   UNL     1      -6.399   8.915  65.008  1.00  0.00    -0.062 F  
HETATM   18  C   UNL     1     -10.099   9.428  66.698  1.00  0.00    -0.332 A  
HETATM   19  C   UNL     1      -9.660   8.131  66.370  1.00  0.00    -0.286 A  
BRANCH  16  20
HETATM   20  N   UNL     1      -8.053   6.626  65.369  1.00  0.00    -0.124 NA 
HETATM   21  C   UNL     1      -8.897   5.800  64.489  1.00  0.00     0.205 C  
HETATM   22  C   UNL     1      -8.174   5.519  63.167  1.00  0.00    -0.097 C  
HETATM   23  O   UNL     1      -6.898   4.896  63.405  1.00  0.00    -0.037 OA 
HETATM   24  C   UNL     1      -6.060   5.768  64.183  1.00  0.00    -0.025 C  
HETATM   25  C   UNL     1      -6.686   6.117  65.549  1.00  0.00    -0.048 C  
ENDBRANCH  16  20
ENDBRANCH   9  13
ENDBRANCH   6   7
ENDBRANCH   3   6
TORSDOF 4
ENDMDL
MODEL      162
REMARK 921   NORMALIZED FREE ENERGY PREDICTED BY IDOCK:   -2.94 KCAL/MOL
REMARK 922        TOTAL FREE ENERGY PREDICTED BY IDOCK:   -4.03 KCAL/MOL
REMARK 923 INTER-LIGAND FREE ENERGY PREDICTED BY IDOCK:   -3.78 KCAL/MOL
REMARK 924 INTRA-LIGAND FREE ENERGY PREDICTED BY IDOCK:   -0.25 KCAL/MOL
REMARK 927      BINDING AFFINITY PREDICTED BY RF-SCORE:    0.00 PKD
ROOT
HETATM    1  C   UNL     1      -9.401   7.944  65.680  1.00  0.00     0.133 C  
HETATM    2  C   UNL     1      -9.791   8.424  67.050  1.00  0.00    -0.230 C  
HETATM    3  N   UNL     1      -8.812   9.160  67.675  1.00  0.00    -0.120 N  
HETATM    4  O   UNL     1     -10.887   8.195  67.546  1.00  0.00    -0.194 OA 
HETATM    5  H   UNL     1      -7.945   9.359  67.175  1.00  0.00     0.000 HD 
ENDROOT
BRANCH   3   6
HETATM    6  C   UNL     1      -8.979   9.664  69.030  1.00  0.00    -0.148 C  
BRANCH   6   7
HETATM    7  C   UNL     1      -9.163  11.173  69.029  1.00  0.00    -0.031 C  
HETATM    8  C   UNL     1      -7.929  11.947  68.629  1.00  0.00    -0.101 C  
HETATM    9  N   UNL     1      -8.517  13.146  68.110  1.00  0.00    -0.167 N  
HETATM   10  C   UNL     1      -9.801  12.849  67.665  1.00  0.00    -0.211 C  
HETATM   11  O   UNL     1     -10.568  13.542  67.017  1.00  0.00    -0.266 OA 
HETATM   12  O   UNL     1     -10.131  11.570  68.048  1.00  0.00    -0.177 OA 
BRANCH   9  13
HETATM   13  C   UNL     1      -7.861  14.399  68.049  1.00  0.00    -0.140 A  
HETATM   14  C   UNL     1      -8.391  15.454  67.308  1.00  0.00    -0.224 A  
HETATM   15  C   UNL     1      -7.755  16.697  67.272  1.00  0.00    -0.169 A  
HETATM   16  C   UNL     1      -6.556  16.956  67.954  1.00  0.00    -0.141 A  
HETATM   17  F   UNL     1      -8.369  17.676  66.586  1.00  0.00    -0.230 F  
HETATM   18  C   UNL     1      -6.683  14.640  68.764  1.00  0.00    -0.088 A  
HETATM   19  C   UNL     1      -6.048  15.896  68.717  1.00  0.00    -0.105 A  
BRANCH  16  20
HETATM   20  N   UNL     1      -5.870  18.152  67.862  1.00  0.00    -0.158 NA 
HETATM   21  C   UNL     1      -5.299  18.627  66.591  1.00  0.00    -0.142 C  
HETATM   22  C   UNL     1      -5.978  19.931  66.156  1.00  0.00    -0.168 C  
HETATM   23  O   UNL     1      -5.869  20.931  67.186  1.00  0.00    -0.191 OA 
HETATM   24  C   UNL     1      -6.522  20.479  68.384  1.00  0.00    -0.289 C  
HETATM   25  C   UNL     1      -5.914  19.168  68.924  1.00  0.00    -0.221 C  
ENDBRANCH  16  20
ENDBRANCH   9  13
ENDBRANCH   6   7
ENDBRANCH   3   6
TORSDOF 4
ENDMDL
MODEL      163
REMARK 921   NORMALIZED FREE ENERGY PREDICTED BY IDOCK:   -2.93 KCAL/MOL
REMARK 922        TOTAL FREE ENERGY PREDICTED BY IDOCK:   -4.01 KCAL/MOL
REMARK 923 INTER-LIGAND FREE ENERGY PREDICTED BY IDOCK:   -4.17 KCAL/MOL
REMARK 924 INTRA-LIGAND FREE ENERGY PREDICTED BY IDOCK:    0.16 KCAL/MOL
REMARK 927      BINDING AFFINITY PREDICTED BY RF-SCORE:    0.00 PKD
ROOT
HETATM    1  C   UNL     1      -9.968   8.927  66.645  1.00  0.00    -0.346 C  
HETATM    2  C   UNL     1      -8.859   8.888  67.660  1.00  0.00    -0.134 C  
HETATM    3  N   UNL     1      -7.672   9.406  67.200  1.00  0.00    -0.092 N  
HETATM    4  O   UNL     1      -9.015   8.455  68.795  1.00  0.00    -0.140 OA 
HETATM    5  H   UNL     1      -7.635   9.802  66.261  1.00  0.00     0.000 HD 
ENDROOT
BRANCH   3   6
HETATM    6  C   UNL     1      -6.467   9.404  68.016  1.00  0.00    -0.062 C  
BRANCH   6   7
HETATM    7  C   UNL     1      -5.994  10.824  68.288  1.00  0.00    -0.046 C  
HETATM    8  C   UNL     1      -6.994  11.892  67.913  1.00  0.00    -0.085 C  
HETATM    9  N   UNL     1      -6.613  12.945  68.807  1.00  0.00    -0.084 N  
HETATM   10  C   UNL     1      -5.999  12.378  69.919  1.00  0.00    -0.146 C  
HETATM   11  O   UNL     1      -5.679  12.906  70.970  1.00  0.00    -0.274 OA 
HETATM   12  O   UNL     1      -5.797  11.037  69.693  1.00  0.00    -0.049 OA 
BRANCH   9  13
HETATM   13  C   UNL     1      -6.862  14.320  68.577  1.00  0.00    -0.100 A  
HETATM   14  C   UNL     1      -6.026  15.301  69.106  1.00  0.00    -0.101 A  
HETATM   15  C   UNL     1      -6.259  16.655  68.855  1.00  0.00    -0.159 A  
HETATM   16  C   UNL     1      -7.339  17.109  68.082  1.00  0.00    -0.202 A  
HETATM   17  F   UNL     1      -5.367  17.530  69.350  1.00  0.00    -0.158 F  
HETATM   18  C   UNL     1      -7.928  14.743  67.776  1.00  0.00    -0.167 A  
HETATM   19  C   UNL     1      -8.157  16.111  67.534  1.00  0.00    -0.164 A  
BRANCH  16  20
HETATM   20  N   UNL     1      -7.634  18.445  67.893  1.00  0.00    -0.241 NA 
HETATM   21  C   UNL     1      -6.909  19.511  68.604  1.00  0.00    -0.308 C  
HETATM   22  C   UNL     1      -6.139  20.388  67.610  1.00  0.00    -0.228 C  
HETATM   23  O   UNL     1      -7.027  20.932  66.616  1.00  0.00    -0.270 OA 
HETATM   24  C   UNL     1      -7.645  19.869  65.871  1.00  0.00    -0.321 C  
HETATM   25  C   UNL     1      -8.460  18.918  66.773  1.00  0.00    -0.298 C  
ENDBRANCH  16  20
ENDBRANCH   9  13
ENDBRANCH   6   7
ENDBRANCH   3   6
TORSDOF 4
ENDMDL
MODEL      164
REMARK 921   NORMALIZED FREE ENERGY PREDICTED BY IDOCK:   -2.46 KCAL/MOL
REMARK 922        TOTAL FREE ENERGY PREDICTED BY IDOCK:   -3.44 KCAL/MOL
REMARK 923 INTER-LIGAND FREE ENERGY PREDICTED BY IDOCK:   -3.05 KCAL/MOL
REMARK 924 INTRA-LIGAND FREE ENERGY PREDICTED BY IDOCK:   -0.38 KCAL/MOL
REMARK 927      BINDING AFFINITY PREDICTED BY RF-SCORE:    0.00 PKD
ROOT
HETATM    1  C   UNL     1      -5.371  14.502  71.867  1.00  0.00    -0.132 C  
HETATM    2  C   UNL     1      -5.890  14.537  70.457  1.00  0.00    -0.173 C  
HETATM    3  N   UNL     1      -6.632  13.430  70.116  1.00  0.00    -0.371 N  
HETATM    4  O   UNL     1      -5.686  15.475  69.697  1.00  0.00    -0.109 OA 
HETATM    5  H   UNL     1      -6.809  12.714  70.821  1.00  0.00     0.000 HD 
ENDROOT
BRANCH   3   6
HETATM    6  C   UNL     1      -7.173  13.253  68.776  1.00  0.00    -0.088 C  
BRANCH   6   7
HETATM    7  C   UNL     1      -7.634  11.819  68.563  1.00  0.00    -0.131 C  
HETATM    8  C   UNL     1      -7.286  10.882  69.695  1.00  0.00    -0.095 C  
HETATM    9  N   UNL     1      -8.316   9.896  69.557  1.00  0.00    -0.153 N  
HETATM   10  C   UNL     1      -9.413  10.488  68.939  1.00  0.00    -0.193 C  
HETATM   11  O   UNL     1     -10.538  10.046  68.786  1.00  0.00    -0.200 OA 
HETATM   12  O   UNL     1      -9.066  11.746  68.505  1.00  0.00    -0.190 OA 
BRANCH   9  13
HETATM   13  C   UNL     1      -8.211   8.559  70.011  1.00  0.00    -0.121 A  
HETATM   14  C   UNL     1      -6.993   7.882  69.982  1.00  0.00    -0.049 A  
HETATM   15  C   UNL     1      -6.888   6.572  70.456  1.00  0.00    -0.062 A  
HETATM   16  C   UNL     1      -7.984   5.860  70.968  1.00  0.00    -0.116 A  
HETATM   17  F   UNL     1      -5.663   6.018  70.451  1.00  0.00    -0.012 F  
HETATM   18  C   UNL     1      -9.313   7.883  70.545  1.00  0.00    -0.162 A  
HETATM   19  C   UNL     1      -9.197   6.561  71.016  1.00  0.00    -0.161 A  
BRANCH  16  20
HETATM   20  N   UNL     1      -7.917   4.538  71.362  1.00  0.00    -0.085 NA 
HETATM   21  C   UNL     1      -7.619   4.153  72.752  1.00  0.00    -0.075 C  
HETATM   22  C   UNL     1      -8.815   3.420  73.370  1.00  0.00    -0.084 C  
HETATM   23  O   UNL     1      -9.179   2.276  72.576  1.00  0.00    -0.076 OA 
HETATM   24  C   UNL     1      -9.559   2.693  71.255  1.00  0.00    -0.156 C  
HETATM   25  C   UNL     1      -8.424   3.440  70.526  1.00  0.00    -0.061 C  
ENDBRANCH  16  20
ENDBRANCH   9  13
ENDBRANCH   6   7
ENDBRANCH   3   6
TORSDOF 4
ENDMDL
MODEL      165
REMARK 921   NORMALIZED FREE ENERGY PREDICTED BY IDOCK:   -2.11 KCAL/MOL
REMARK 922        TOTAL FREE ENERGY PREDICTED BY IDOCK:   -3.00 KCAL/MOL
REMARK 923 INTER-LIGAND FREE ENERGY PREDICTED BY IDOCK:   -3.28 KCAL/MOL
REMARK 924 INTRA-LIGAND FREE ENERGY PREDICTED BY IDOCK:    0.29 KCAL/MOL
REMARK 927      BINDING AFFINITY PREDICTED BY RF-SCORE:    0.00 PKD
ROOT
HETATM    1  C   UNL     1      -9.845  10.017  64.183  1.00  0.00    -0.090 C  
HETATM    2  C   UNL     1      -9.112   9.460  65.372  1.00  0.00    -0.226 C  
HETATM    3  N   UNL     1      -7.756   9.341  65.177  1.00  0.00    -0.105 N  
HETATM    4  O   UNL     1      -9.675   9.163  66.419  1.00  0.00    -0.218 OA 
HETATM    5  H   UNL     1      -7.351   9.663  64.298  1.00  0.00     0.000 HD 
ENDROOT
BRANCH   3   6
HETATM    6  C   UNL     1      -6.883   8.767  66.191  1.00  0.00    -0.073 C  
BRANCH   6   7
HETATM    7  C   UNL     1      -6.290   9.854  67.073  1.00  0.00    -0.065 C  
HETATM    8  C   UNL     1      -6.811  11.242  66.781  1.00  0.00    -0.140 C  
HETATM    9  N   UNL     1      -6.628  11.873  68.054  1.00  0.00    -0.059 N  
HETATM   10  C   UNL     1      -6.653  10.892  69.040  1.00  0.00    -0.061 C  
HETATM   11  O   UNL     1      -6.694  11.023  70.251  1.00  0.00    -0.230 OA 
HETATM   12  O   UNL     1      -6.650   9.651  68.447  1.00  0.00    -0.052 OA 
BRANCH   9  13
HETATM   13  C   UNL     1      -6.479  13.268  68.243  1.00  0.00    -0.099 A  
HETATM   14  C   UNL     1      -7.049  14.180  67.355  1.00  0.00    -0.101 A  
HETATM   15  C   UNL     1      -6.922  15.556  67.559  1.00  0.00    -0.194 A  
HETATM   16  C   UNL     1      -6.215  16.101  68.642  1.00  0.00    -0.117 A  
HETATM   17  F   UNL     1      -7.557  16.362  66.690  1.00  0.00    -0.214 F  
HETATM   18  C   UNL     1      -5.796  13.785  69.348  1.00  0.00    -0.095 A  
HETATM   19  C   UNL     1      -5.671  15.175  69.542  1.00  0.00    -0.102 A  
BRANCH  16  20
HETATM   20  N   UNL     1      -6.010  17.456  68.814  1.00  0.00    -0.164 NA 
HETATM   21  C   UNL     1      -6.799  18.463  68.084  1.00  0.00    -0.228 C  
HETATM   22  C   UNL     1      -7.629  19.301  69.063  1.00  0.00    -0.319 C  
HETATM   23  O   UNL     1      -6.784  19.915  70.053  1.00  0.00    -0.328 OA 
HETATM   24  C   UNL     1      -6.102  18.904  70.815  1.00  0.00     0.207 C  
HETATM   25  C   UNL     1      -5.222  17.997  69.931  1.00  0.00    -0.209 C  
ENDBRANCH  16  20
ENDBRANCH   9  13
ENDBRANCH   6   7
ENDBRANCH   3   6
TORSDOF 4
ENDMDL
MODEL      166
REMARK 921   NORMALIZED FREE ENERGY PREDICTED BY IDOCK:   -2.10 KCAL/MOL
REMARK 922        TOTAL FREE ENERGY PREDICTED BY IDOCK:   -2.99 KCAL/MOL
REMARK 923 INTER-LIGAND FREE ENERGY PREDICTED BY IDOCK:   -2.82 KCAL/MOL
REMARK 924 INTRA-LIGAND FREE ENERGY PREDICTED BY IDOCK:   -0.17 KCAL/MOL
REMARK 927      BINDING AFFINITY PREDICTED BY RF-SCORE:    0.00 PKD
ROOT
HETATM    1  C   UNL     1      -7.362  14.696  69.949  1.00  0.00     0.052 C  
HETATM    2  C   UNL     1      -7.310  14.300  68.499  1.00  0.00    -0.117 C  
HETATM    3  N   UNL     1      -7.942  13.109  68.231  1.00  0.00    -0.142 N  
HETATM    4  O   UNL     1      -6.772  14.989  67.642  1.00  0.00    -0.158 OA 
HETATM    5  H   UNL     1      -8.419  12.619  68.988  1.00  0.00     0.000 HD 
ENDROOT
BRANCH   3   6
HETATM    6  C   UNL     1      -7.950  12.528  66.896  1.00  0.00    -0.008 C  
BRANCH   6   7
HETATM    7  C   UNL     1      -8.069  11.014  66.964  1.00  0.00    -0.136 C  
HETATM    8  C   UNL     1      -8.354  10.477  68.347  1.00  0.00    -0.126 C  
HETATM    9  N   UNL     1      -9.018   9.248  68.028  1.00  0.00    -0.128 N  
HETATM   10  C   UNL     1      -9.606   9.378  66.774  1.00  0.00    -0.179 C  
HETATM   11  O   UNL     1     -10.390   8.631  66.214  1.00  0.00    -0.214 OA 
HETATM   12  O   UNL     1      -9.190  10.554  66.196  1.00  0.00    -0.162 OA 
BRANCH   9  13
HETATM   13  C   UNL     1      -9.072   8.121  68.884  1.00  0.00    -0.147 A  
HETATM   14  C   UNL     1      -9.066   8.268  70.270  1.00  0.00    -0.150 A  
HETATM   15  C   UNL     1      -9.147   7.156  71.110  1.00  0.00    -0.152 A  
HETATM   16  C   UNL     1      -9.222   5.841  70.624  1.00  0.00    -0.152 A  
HETATM   17  F   UNL     1      -9.200   7.393  72.433  1.00  0.00    -0.146 F  
HETATM   18  C   UNL     1      -9.178   6.823  68.373  1.00  0.00    -0.123 A  
HETATM   19  C   UNL     1      -9.254   5.708  69.229  1.00  0.00    -0.139 A  
BRANCH  16  20
HETATM   20  N   UNL     1      -9.217   4.725  71.439  1.00  0.00    -0.138 NA 
HETATM   21  C   UNL     1      -9.870   3.467  71.041  1.00  0.00    -0.066 C  
HETATM   22  C   UNL     1      -8.830   2.350  70.897  1.00  0.00    -0.070 C  
HETATM   23  O   UNL     1      -8.081   2.189  72.115  1.00  0.00    -0.051 OA 
HETATM   24  C   UNL     1      -7.376   3.403  72.425  1.00  0.00    -0.049 C  
HETATM   25  C   UNL     1      -8.327   4.604  72.602  1.00  0.00    -0.114 C  
ENDBRANCH  16  20
ENDBRANCH   9  13
ENDBRANCH   6   7
ENDBRANCH   3   6
TORSDOF 4
ENDMDL
MODEL      167
REMARK 921   NORMALIZED FREE ENERGY PREDICTED BY IDOCK:   -2.06 KCAL/MOL
REMARK 922        TOTAL FREE ENERGY PREDICTED BY IDOCK:   -2.94 KCAL/MOL
REMARK 923 INTER-LIGAND FREE ENERGY PREDICTED BY IDOCK:   -3.98 KCAL/MOL
REMARK 924 INTRA-LIGAND FREE ENERGY PREDICTED BY IDOCK:    1.05 KCAL/MOL
REMARK 927      BINDING AFFINITY PREDICTED BY RF-SCORE:    0.00 PKD
ROOT
HETATM    1  C   UNL     1     -10.591  17.657  66.712  1.00  0.00    -0.224 C  
HETATM    2  C   UNL     1     -10.412  16.281  67.291  1.00  0.00    -0.300 C  
HETATM    3  N   UNL     1      -9.455  16.218  68.276  1.00  0.00    -0.211 N  
HETATM    4  O   UNL     1     -11.075  15.317  66.929  1.00  0.00    -0.321 OA 
HETATM    5  H   UNL     1      -8.984  17.075  68.566  1.00  0.00     0.000 HD 
ENDROOT
BRANCH   3   6
HETATM    6  C   UNL     1      -9.096  14.962  68.918  1.00  0.00    -0.191 C  
BRANCH   6   7
HETATM    7  C   UNL     1      -9.606  13.777  68.113  1.00  0.00    -0.216 C  
HETATM    8  C   UNL     1      -8.716  12.558  68.173  1.00  0.00    -0.190 C  
HETATM    9  N   UNL     1      -9.667  11.516  67.927  1.00  0.00    -0.178 N  
HETATM   10  C   UNL     1     -10.922  11.962  68.328  1.00  0.00    -0.230 C  
HETATM   11  O   UNL     1     -11.961  11.332  68.437  1.00  0.00    -0.555 OA 
HETATM   12  O   UNL     1     -10.853  13.300  68.637  1.00  0.00    -0.248 OA 
BRANCH   9  13
HETATM   13  C   UNL     1      -9.343  10.246  67.392  1.00  0.00    -0.145 A  
HETATM   14  C   UNL     1      -9.470   9.088  68.158  1.00  0.00    -0.155 A  
HETATM   15  C   UNL     1      -9.175   7.834  67.618  1.00  0.00    -0.136 A  
HETATM   16  C   UNL     1      -8.727   7.662  66.299  1.00  0.00    -0.152 A  
HETATM   17  F   UNL     1      -9.386   6.765  68.406  1.00  0.00    -0.128 F  
HETATM   18  C   UNL     1      -8.928  10.099  66.064  1.00  0.00    -0.174 A  
HETATM   19  C   UNL     1      -8.630   8.830  65.531  1.00  0.00    -0.198 A  
BRANCH  16  20
HETATM   20  N   UNL     1      -8.351   6.440  65.774  1.00  0.00    -0.140 NA 
HETATM   21  C   UNL     1      -9.341   5.428  65.370  1.00  0.00     0.014 C  
HETATM   22  C   UNL     1      -9.257   5.174  63.860  1.00  0.00     0.281 C  
HETATM   23  O   UNL     1      -7.924   4.784  63.482  1.00  0.00    -0.080 OA 
HETATM   24  C   UNL     1      -6.994   5.833  63.799  1.00  0.00    -0.050 C  
HETATM   25  C   UNL     1      -6.984   6.173  65.304  1.00  0.00    -0.056 C  
ENDBRANCH  16  20
ENDBRANCH   9  13
ENDBRANCH   6   7
ENDBRANCH   3   6
TORSDOF 4
ENDMDL
MODEL      168
REMARK 921   NORMALIZED FREE ENERGY PREDICTED BY IDOCK:   -1.94 KCAL/MOL
REMARK 922        TOTAL FREE ENERGY PREDICTED BY IDOCK:   -2.79 KCAL/MOL
REMARK 923 INTER-LIGAND FREE ENERGY PREDICTED BY IDOCK:   -2.85 KCAL/MOL
REMARK 924 INTRA-LIGAND FREE ENERGY PREDICTED BY IDOCK:    0.06 KCAL/MOL
REMARK 927      BINDING AFFINITY PREDICTED BY RF-SCORE:    0.00 PKD
ROOT
HETATM    1  C   UNL     1     -10.818  15.152  68.127  1.00  0.00    -0.266 C  
HETATM    2  C   UNL     1      -9.974  14.014  67.623  1.00  0.00    -0.237 C  
HETATM    3  N   UNL     1      -8.625  14.206  67.805  1.00  0.00    -0.172 N  
HETATM    4  O   UNL     1     -10.453  13.006  67.119  1.00  0.00    -0.241 OA 
HETATM    5  H   UNL     1      -8.304  15.047  68.286  1.00  0.00     0.000 HD 
ENDROOT
BRANCH   3   6
HETATM    6  C   UNL     1      -7.643  13.243  67.331  1.00  0.00    -0.129 C  
BRANCH   6   7
HETATM    7  C   UNL     1      -8.122  11.819  67.566  1.00  0.00    -0.152 C  
HETATM    8  C   UNL     1      -7.402  10.779  66.741  1.00  0.00    -0.129 C  
HETATM    9  N   UNL     1      -7.557   9.621  67.570  1.00  0.00    -0.094 N  
HETATM   10  C   UNL     1      -7.714  10.040  68.887  1.00  0.00    -0.089 C  
HETATM   11  O   UNL     1      -7.713   9.376  69.909  1.00  0.00    -0.085 OA 
HETATM   12  O   UNL     1      -7.860  11.408  68.915  1.00  0.00    -0.138 OA 
BRANCH   9  13
HETATM   13  C   UNL     1      -7.520   8.287  67.098  1.00  0.00    -0.089 A  
HETATM   14  C   UNL     1      -6.364   7.516  67.205  1.00  0.00    -0.053 A  
HETATM   15  C   UNL     1      -6.340   6.192  66.763  1.00  0.00    -0.045 A  
HETATM   16  C   UNL     1      -7.453   5.566  66.179  1.00  0.00    -0.082 A  
HETATM   17  F   UNL     1      -5.204   5.502  66.963  1.00  0.00    -0.004 F  
HETATM   18  C   UNL     1      -8.653   7.678  66.549  1.00  0.00    -0.142 A  
HETATM   19  C   UNL     1      -8.617   6.343  66.102  1.00  0.00    -0.144 A  
BRANCH  16  20
HETATM   20  N   UNL     1      -7.423   4.286  65.660  1.00  0.00    -0.080 NA 
HETATM   21  C   UNL     1      -7.483   3.094  66.523  1.00  0.00    -0.076 C  
HETATM   22  C   UNL     1      -8.759   2.294  66.239  1.00  0.00    -0.120 C  
HETATM   23  O   UNL     1      -8.840   1.938  64.846  1.00  0.00    -0.107 OA 
HETATM   24  C   UNL     1      -8.880   3.124  64.035  1.00  0.00    -0.096 C  
HETATM   25  C   UNL     1      -7.633   4.011  64.231  1.00  0.00    -0.079 C  
ENDBRANCH  16  20
ENDBRANCH   9  13
ENDBRANCH   6   7
ENDBRANCH   3   6
TORSDOF 4
ENDMDL
MODEL      169
REMARK 921   NORMALIZED FREE ENERGY PREDICTED BY IDOCK:   -1.82 KCAL/MOL
REMARK 922        TOTAL FREE ENERGY PREDICTED BY IDOCK:   -2.64 KCAL/MOL
REMARK 923 INTER-LIGAND FREE ENERGY PREDICTED BY IDOCK:   -4.49 KCAL/MOL
REMARK 924 INTRA-LIGAND FREE ENERGY PREDICTED BY IDOCK:    1.85 KCAL/MOL
REMARK 927      BINDING AFFINITY PREDICTED BY RF-SCORE:    0.00 PKD
ROOT
HETATM    1  C   UNL     1     -12.827  15.178  72.949  1.00  0.00    -0.535 C  
HETATM    2  C   UNL     1     -12.355  15.021  71.530  1.00  0.00    -0.335 C  
HETATM    3  N   UNL     1     -13.107  15.725  70.619  1.00  0.00    -0.733 N  
HETATM    4  O   UNL     1     -11.379  14.347  71.226  1.00  0.00    -0.038 OA 
HETATM    5  H   UNL     1     -13.871  16.312  70.954  1.00  0.00     0.000 HD 
ENDROOT
BRANCH   3   6
HETATM    6  C   UNL     1     -12.842  15.655  69.189  1.00  0.00     0.816 C  
BRANCH   6   7
HETATM    7  C   UNL     1     -11.555  14.894  68.914  1.00  0.00    -0.315 C  
HETATM    8  C   UNL     1     -11.761  13.446  68.534  1.00  0.00    -0.357 C  
HETATM    9  N   UNL     1     -10.583  13.200  67.757  1.00  0.00    -0.230 N  
HETATM   10  C   UNL     1     -10.146  14.408  67.223  1.00  0.00    -0.251 C  
HETATM   11  O   UNL     1      -9.285  14.610  66.385  1.00  0.00    -0.274 OA 
HETATM   12  O   UNL     1     -10.872  15.438  67.775  1.00  0.00    -0.285 OA 
BRANCH   9  13
HETATM   13  C   UNL     1     -10.004  11.923  67.562  1.00  0.00    -0.187 A  
HETATM   14  C   UNL     1     -10.797  10.780  67.466  1.00  0.00    -0.342 A  
HETATM   15  C   UNL     1     -10.224   9.525  67.246  1.00  0.00    -0.234 A  
HETATM   16  C   UNL     1      -8.838   9.333  67.126  1.00  0.00    -0.127 A  
HETATM   17  F   UNL     1     -11.066   8.487  67.102  1.00  0.00    -0.266 F  
HETATM   18  C   UNL     1      -8.622  11.764  67.413  1.00  0.00    -0.160 A  
HETATM   19  C   UNL     1      -8.055  10.493  67.197  1.00  0.00    -0.120 A  
BRANCH  16  20
HETATM   20  N   UNL     1      -8.249   8.091  66.992  1.00  0.00    -0.115 NA 
HETATM   21  C   UNL     1      -6.787   7.917  67.003  1.00  0.00    -0.073 C  
HETATM   22  C   UNL     1      -6.359   7.078  68.213  1.00  0.00    -0.035 C  
HETATM   23  O   UNL     1      -7.039   5.809  68.221  1.00  0.00    -0.070 OA 
HETATM   24  C   UNL     1      -8.459   6.010  68.311  1.00  0.00    -0.112 C  
HETATM   25  C   UNL     1      -9.010   6.841  67.133  1.00  0.00    -0.115 C  
ENDBRANCH  16  20
ENDBRANCH   9  13
ENDBRANCH   6   7
ENDBRANCH   3   6
TORSDOF 4
ENDMDL
MODEL      170
REMARK 921   NORMALIZED FREE ENERGY PREDICTED BY IDOCK:   -1.68 KCAL/MOL
REMARK 922        TOTAL FREE ENERGY PREDICTED BY IDOCK:   -2.47 KCAL/MOL
REMARK 923 INTER-LIGAND FREE ENERGY PREDICTED BY IDOCK:   -2.40 KCAL/MOL
REMARK 924 INTRA-LIGAND FREE ENERGY PREDICTED BY IDOCK:   -0.07 KCAL/MOL
REMARK 927      BINDING AFFINITY PREDICTED BY RF-SCORE:    0.00 PKD
ROOT
HETATM    1  C   UNL     1      -6.853  15.226  69.856  1.00  0.00    -0.135 C  
HETATM    2  C   UNL     1      -6.397  14.148  68.911  1.00  0.00    -0.091 C  
HETATM    3  N   UNL     1      -7.330  13.824  67.954  1.00  0.00    -0.134 N  
HETATM    4  O   UNL     1      -5.290  13.630  68.980  1.00  0.00    -0.070 OA 
HETATM    5  H   UNL     1      -8.210  14.340  67.924  1.00  0.00     0.000 HD 
ENDROOT
BRANCH   3   6
HETATM    6  C   UNL     1      -7.097  12.764  66.985  1.00  0.00     0.141 C  
BRANCH   6   7
HETATM    7  C   UNL     1      -7.987  11.564  67.269  1.00  0.00    -0.153 C  
HETATM    8  C   UNL     1      -7.347  10.231  66.959  1.00  0.00    -0.092 C  
HETATM    9  N   UNL     1      -8.058   9.373  67.859  1.00  0.00    -0.103 N  
HETATM   10  C   UNL     1      -8.506  10.136  68.933  1.00  0.00    -0.139 C  
HETATM   11  O   UNL     1      -9.005   9.765  69.982  1.00  0.00    -0.217 OA 
HETATM   12  O   UNL     1      -8.284  11.467  68.669  1.00  0.00    -0.149 OA 
BRANCH   9  13
HETATM   13  C   UNL     1      -8.231   7.981  67.671  1.00  0.00    -0.124 A  
HETATM   14  C   UNL     1      -7.764   7.063  68.611  1.00  0.00    -0.120 A  
HETATM   15  C   UNL     1      -7.961   5.692  68.435  1.00  0.00    -0.100 A  
HETATM   16  C   UNL     1      -8.614   5.156  67.314  1.00  0.00    -0.104 A  
HETATM   17  F   UNL     1      -7.536   4.883  69.421  1.00  0.00    -0.054 F  
HETATM   18  C   UNL     1      -8.913   7.475  66.559  1.00  0.00    -0.189 A  
HETATM   19  C   UNL     1      -9.102   6.090  66.389  1.00  0.00    -0.159 A  
BRANCH  16  20
HETATM   20  N   UNL     1      -8.743   3.800  67.082  1.00  0.00    -0.107 NA 
HETATM   21  C   UNL     1      -9.591   3.272  66.001  1.00  0.00    -0.008 C  
HETATM   22  C   UNL     1      -8.736   2.532  64.966  1.00  0.00    -0.112 C  
HETATM   23  O   UNL     1      -7.970   1.485  65.591  1.00  0.00    -0.070 OA 
HETATM   24  C   UNL     1      -7.080   2.043  66.572  1.00  0.00    -0.048 C  
HETATM   25  C   UNL     1      -7.834   2.811  67.678  1.00  0.00    -0.068 C  
ENDBRANCH  16  20
ENDBRANCH   9  13
ENDBRANCH   6   7
ENDBRANCH   3   6
TORSDOF 4
ENDMDL
MODEL      171
REMARK 921   NORMALIZED FREE ENERGY PREDICTED BY IDOCK:   -1.49 KCAL/MOL
REMARK 922        TOTAL FREE ENERGY PREDICTED BY IDOCK:   -2.24 KCAL/MOL
REMARK 923 INTER-LIGAND FREE ENERGY PREDICTED BY IDOCK:   -1.65 KCAL/MOL
REMARK 924 INTRA-LIGAND FREE ENERGY PREDICTED BY IDOCK:   -0.59 KCAL/MOL
REMARK 927      BINDING AFFINITY PREDICTED BY RF-SCORE:    0.00 PKD
ROOT
HETATM    1  C   UNL     1      -6.040  13.729  73.624  1.00  0.00     0.682 C  
HETATM    2  C   UNL     1      -5.763  14.321  72.270  1.00  0.00    -0.017 C  
HETATM    3  N   UNL     1      -6.310  13.604  71.232  1.00  0.00    -0.156 N  
HETATM    4  O   UNL     1      -5.128  15.358  72.116  1.00  0.00    -0.150 OA 
HETATM    5  H   UNL     1      -6.876  12.781  71.442  1.00  0.00     0.000 HD 
ENDROOT
BRANCH   3   6
HETATM    6  C   UNL     1      -6.103  13.985  69.843  1.00  0.00    -0.140 C  
BRANCH   6   7
HETATM    7  C   UNL     1      -6.191  12.773  68.929  1.00  0.00    -0.085 C  
HETATM    8  C   UNL     1      -6.639  11.507  69.621  1.00  0.00    -0.112 C  
HETATM    9  N   UNL     1      -7.223  10.793  68.525  1.00  0.00    -0.083 N  
HETATM   10  C   UNL     1      -7.646  11.716  67.573  1.00  0.00    -0.128 C  
HETATM   11  O   UNL     1      -8.330  11.535  66.580  1.00  0.00    -0.168 OA 
HETATM   12  O   UNL     1      -7.189  12.966  67.917  1.00  0.00    -0.097 OA 
BRANCH   9  13
HETATM   13  C   UNL     1      -7.359   9.385  68.467  1.00  0.00    -0.079 A  
HETATM   14  C   UNL     1      -7.850   8.664  69.554  1.00  0.00    -0.095 A  
HETATM   15  C   UNL     1      -8.008   7.278  69.484  1.00  0.00    -0.127 A  
HETATM   16  C   UNL     1      -7.674   6.532  68.343  1.00  0.00    -0.105 A  
HETATM   17  F   UNL     1      -8.549   6.671  70.555  1.00  0.00    -0.134 F  
HETATM   18  C   UNL     1      -7.048   8.670  67.306  1.00  0.00    -0.079 A  
HETATM   19  C   UNL     1      -7.207   7.272  67.248  1.00  0.00    -0.093 A  
BRANCH  16  20
HETATM   20  N   UNL     1      -7.744   5.154  68.285  1.00  0.00    -0.083 NA 
HETATM   21  C   UNL     1      -6.735   4.295  68.927  1.00  0.00    -0.046 C  
HETATM   22  C   UNL     1      -7.378   3.459  70.040  1.00  0.00    -0.041 C  
HETATM   23  O   UNL     1      -8.476   2.683  69.527  1.00  0.00    -0.056 OA 
HETATM   24  C   UNL     1      -9.490   3.554  68.996  1.00  0.00    -0.143 C  
HETATM   25  C   UNL     1      -8.958   4.445  67.855  1.00  0.00    -0.119 C  
ENDBRANCH  16  20
ENDBRANCH   9  13
ENDBRANCH   6   7
ENDBRANCH   3   6
TORSDOF 4
ENDMDL
MODEL      172
REMARK 921   NORMALIZED FREE ENERGY PREDICTED BY IDOCK:   -1.24 KCAL/MOL
REMARK 922        TOTAL FREE ENERGY PREDICTED BY IDOCK:   -1.93 KCAL/MOL
REMARK 923 INTER-LIGAND FREE ENERGY PREDICTED BY IDOCK:   -1.63 KCAL/MOL
REMARK 924 INTRA-LIGAND FREE ENERGY PREDICTED BY IDOCK:   -0.29 KCAL/MOL
REMARK 927      BINDING AFFINITY PREDICTED BY RF-SCORE:    0.00 PKD
ROOT
HETATM    1  C   UNL     1      -6.043  13.728  73.625  1.00  0.00     0.682 C  
HETATM    2  C   UNL     1      -5.770  14.320  72.269  1.00  0.00    -0.017 C  
HETATM    3  N   UNL     1      -6.312  13.596  71.234  1.00  0.00    -0.156 N  
HETATM    4  O   UNL     1      -5.143  15.360  72.114  1.00  0.00    -0.150 OA 
HETATM    5  H   UNL     1      -6.872  12.770  71.445  1.00  0.00     0.000 HD 
ENDROOT
BRANCH   3   6
HETATM    6  C   UNL     1      -6.108  13.976  69.843  1.00  0.00    -0.140 C  
BRANCH   6   7
HETATM    7  C   UNL     1      -6.178  12.760  68.933  1.00  0.00    -0.085 C  
HETATM    8  C   UNL     1      -6.608  11.490  69.628  1.00  0.00    -0.112 C  
HETATM    9  N   UNL     1      -7.183  10.764  68.535  1.00  0.00    -0.083 N  
HETATM   10  C   UNL     1      -7.619  11.678  67.581  1.00  0.00    -0.128 C  
HETATM   11  O   UNL     1      -8.300  11.484  66.589  1.00  0.00    -0.168 OA 
HETATM   12  O   UNL     1      -7.180  12.936  67.921  1.00  0.00    -0.097 OA 
BRANCH   9  13
HETATM   13  C   UNL     1      -7.298   9.354  68.482  1.00  0.00    -0.079 A  
HETATM   14  C   UNL     1      -7.946   8.724  67.420  1.00  0.00    -0.098 A  
HETATM   15  C   UNL     1      -8.034   7.332  67.358  1.00  0.00    -0.112 A  
HETATM   16  C   UNL     1      -7.500   6.491  68.347  1.00  0.00    -0.088 A  
HETATM   17  F   UNL     1      -8.620   6.806  66.267  1.00  0.00    -0.116 F  
HETATM   18  C   UNL     1      -6.729   8.539  69.465  1.00  0.00    -0.041 A  
HETATM   19  C   UNL     1      -6.827   7.136  69.395  1.00  0.00    -0.050 A  
BRANCH  16  20
HETATM   20  N   UNL     1      -7.650   5.118  68.344  1.00  0.00    -0.078 NA 
HETATM   21  C   UNL     1      -8.917   4.472  68.727  1.00  0.00    -0.111 C  
HETATM   22  C   UNL     1      -9.511   3.715  67.534  1.00  0.00    -0.191 C  
HETATM   23  O   UNL     1      -8.569   2.757  67.018  1.00  0.00    -0.094 OA 
HETATM   24  C   UNL     1      -7.383   3.427  66.561  1.00  0.00    -0.075 C  
HETATM   25  C   UNL     1      -6.689   4.223  67.685  1.00  0.00    -0.047 C  
ENDBRANCH  16  20
ENDBRANCH   9  13
ENDBRANCH   6   7
ENDBRANCH   3   6
TORSDOF 4
ENDMDL
MODEL      173
REMARK 921   NORMALIZED FREE ENERGY PREDICTED BY IDOCK:   -0.92 KCAL/MOL
REMARK 922        TOTAL FREE ENERGY PREDICTED BY IDOCK:   -1.54 KCAL/MOL
REMARK 923 INTER-LIGAND FREE ENERGY PREDICTED BY IDOCK:   -0.92 KCAL/MOL
REMARK 924 INTRA-LIGAND FREE ENERGY PREDICTED BY IDOCK:   -0.62 KCAL/MOL
REMARK 927      BINDING AFFINITY PREDICTED BY RF-SCORE:    0.00 PKD
ROOT
HETATM    1  C   UNL     1      -8.469  15.066  70.498  1.00  0.00     1.412 C  
HETATM    2  C   UNL     1      -7.613  14.908  69.272  1.00  0.00    -0.170 C  
HETATM    3  N   UNL     1      -7.676  13.652  68.716  1.00  0.00    -0.258 N  
HETATM    4  O   UNL     1      -6.944  15.822  68.808  1.00  0.00    -0.114 OA 
HETATM    5  H   UNL     1      -8.302  12.958  69.125  1.00  0.00     0.000 HD 
ENDROOT
BRANCH   3   6
HETATM    6  C   UNL     1      -6.874  13.286  67.558  1.00  0.00    -0.146 C  
BRANCH   6   7
HETATM    7  C   UNL     1      -6.539  11.802  67.577  1.00  0.00    -0.097 C  
HETATM    8  C   UNL     1      -7.126  11.050  68.749  1.00  0.00    -0.086 C  
HETATM    9  N   UNL     1      -7.218   9.729  68.203  1.00  0.00    -0.079 N  
HETATM   10  C   UNL     1      -7.321   9.830  66.819  1.00  0.00    -0.091 C  
HETATM   11  O   UNL     1      -7.578   8.961  66.004  1.00  0.00    -0.092 OA 
HETATM   12  O   UNL     1      -7.106  11.135  66.441  1.00  0.00    -0.135 OA 
BRANCH   9  13
HETATM   13  C   UNL     1      -7.230   8.543  68.975  1.00  0.00    -0.073 A  
HETATM   14  C   UNL     1      -8.379   7.760  69.076  1.00  0.00    -0.131 A  
HETATM   15  C   UNL     1      -8.379   6.576  69.817  1.00  0.00    -0.127 A  
HETATM   16  C   UNL     1      -7.248   6.113  70.508  1.00  0.00    -0.083 A  
HETATM   17  F   UNL     1      -9.510   5.851  69.808  1.00  0.00    -0.145 F  
HETATM   18  C   UNL     1      -6.079   8.087  69.628  1.00  0.00    -0.030 A  
HETATM   19  C   UNL     1      -6.092   6.894  70.376  1.00  0.00    -0.024 A  
BRANCH  16  20
HETATM   20  N   UNL     1      -7.253   4.990  71.312  1.00  0.00    -0.065 NA 
HETATM   21  C   UNL     1      -7.387   5.081  72.776  1.00  0.00    -0.090 C  
HETATM   22  C   UNL     1      -8.684   4.407  73.235  1.00  0.00    -0.100 C  
HETATM   23  O   UNL     1      -8.736   3.040  72.788  1.00  0.00    -0.082 OA 
HETATM   24  C   UNL     1      -8.704   2.988  71.352  1.00  0.00    -0.073 C  
HETATM   25  C   UNL     1      -7.429   3.635  70.771  1.00  0.00    -0.040 C  
ENDBRANCH  16  20
ENDBRANCH   9  13
ENDBRANCH   6   7
ENDBRANCH   3   6
TORSDOF 4
ENDMDL
MODEL      174
REMARK 921   NORMALIZED FREE ENERGY PREDICTED BY IDOCK:    1.72 KCAL/MOL
REMARK 922        TOTAL FREE ENERGY PREDICTED BY IDOCK:    1.72 KCAL/MOL
REMARK 923 INTER-LIGAND FREE ENERGY PREDICTED BY IDOCK:   -0.32 KCAL/MOL
REMARK 924 INTRA-LIGAND FREE ENERGY PREDICTED BY IDOCK:    2.04 KCAL/MOL
REMARK 927      BINDING AFFINITY PREDICTED BY RF-SCORE:    0.00 PKD
ROOT
HETATM    1  C   UNL     1     -12.872  15.213  72.911  1.00  0.00    -0.535 C  
HETATM    2  C   UNL     1     -12.678  15.208  71.419  1.00  0.00    -0.372 C  
HETATM    3  N   UNL     1     -13.622  15.941  70.740  1.00  0.00    -0.570 N  
HETATM    4  O   UNL     1     -11.752  14.623  70.872  1.00  0.00    -0.298 OA 
HETATM    5  H   UNL     1     -14.331  16.450  71.269  1.00  0.00     0.000 HD 
ENDROOT
BRANCH   3   6
HETATM    6  C   UNL     1     -13.638  16.011  69.286  1.00  0.00     3.505 C  
BRANCH   6   7
HETATM    7  C   UNL     1     -12.253  15.749  68.716  1.00  0.00     0.109 C  
HETATM    8  C   UNL     1     -11.995  14.304  68.356  1.00  0.00    -0.309 C  
HETATM    9  N   UNL     1     -11.003  14.453  67.334  1.00  0.00    -0.292 N  
HETATM   10  C   UNL     1     -11.160  15.704  66.746  1.00  0.00    -0.169 C  
HETATM   11  O   UNL     1     -10.631  16.153  65.744  1.00  0.00    -0.340 OA 
HETATM   12  O   UNL     1     -12.075  16.434  67.468  1.00  0.00     0.723 OA 
BRANCH   9  13
HETATM   13  C   UNL     1     -10.056  13.460  66.986  1.00  0.00    -0.247 A  
HETATM   14  C   UNL     1     -10.262  12.619  65.893  1.00  0.00    -0.290 A  
HETATM   15  C   UNL     1      -9.313  11.659  65.538  1.00  0.00    -0.156 A  
HETATM   16  C   UNL     1      -8.118  11.470  66.251  1.00  0.00    -0.014 A  
HETATM   17  F   UNL     1      -9.562  10.934  64.432  1.00  0.00    -0.219 F  
HETATM   18  C   UNL     1      -8.859  13.314  67.696  1.00  0.00    -0.200 A  
HETATM   19  C   UNL     1      -7.911  12.339  67.331  1.00  0.00    -0.171 A  
BRANCH  16  20
HETATM   20  N   UNL     1      -7.209  10.471  65.964  1.00  0.00    -0.133 NA 
HETATM   21  C   UNL     1      -6.034  10.218  66.816  1.00  0.00    -0.060 C  
HETATM   22  C   UNL     1      -6.123   8.823  67.446  1.00  0.00    -0.051 C  
HETATM   23  O   UNL     1      -6.261   7.813  66.430  1.00  0.00    -0.044 OA 
HETATM   24  C   UNL     1      -7.467   8.029  65.679  1.00  0.00    -0.081 C  
HETATM   25  C   UNL     1      -7.489   9.408  64.989  1.00  0.00    -0.106 C  
ENDBRANCH  16  20
ENDBRANCH   9  13
ENDBRANCH   6   7
ENDBRANCH   3   6
TORSDOF 4
ENDMDL
MODEL      175
REMARK 921   NORMALIZED FREE ENERGY PREDICTED BY IDOCK:    3.07 KCAL/MOL
REMARK 922        TOTAL FREE ENERGY PREDICTED BY IDOCK:    3.39 KCAL/MOL
REMARK 923 INTER-LIGAND FREE ENERGY PREDICTED BY IDOCK:   -0.25 KCAL/MOL
REMARK 924 INTRA-LIGAND FREE ENERGY PREDICTED BY IDOCK:    3.64 KCAL/MOL
REMARK 927      BINDING AFFINITY PREDICTED BY RF-SCORE:    0.00 PKD
ROOT
HETATM    1  C   UNL     1      -7.331   8.965  64.138  1.00  0.00    -0.104 C  
HETATM    2  C   UNL     1      -8.317  10.065  64.421  1.00  0.00    -0.168 C  
HETATM    3  N   UNL     1      -9.628   9.651  64.388  1.00  0.00    -0.416 N  
HETATM    4  O   UNL     1      -7.975  11.212  64.679  1.00  0.00     0.318 OA 
HETATM    5  H   UNL     1      -9.833   8.665  64.224  1.00  0.00     0.000 HD 
ENDROOT
BRANCH   3   6
HETATM    6  C   UNL     1     -10.730  10.581  64.580  1.00  0.00     0.263 C  
BRANCH   6   7
HETATM    7  C   UNL     1     -10.515  11.427  65.825  1.00  0.00    -0.262 C  
HETATM    8  C   UNL     1      -9.167  12.106  65.888  1.00  0.00    -0.067 C  
HETATM    9  N   UNL     1      -9.472  13.237  66.713  1.00  0.00    -0.251 N  
HETATM   10  C   UNL     1     -10.826  13.527  66.580  1.00  0.00    -0.283 C  
HETATM   11  O   UNL     1     -11.446  14.497  66.981  1.00  0.00    -0.343 OA 
HETATM   12  O   UNL     1     -11.438  12.524  65.865  1.00  0.00    -0.334 OA 
BRANCH   9  13
HETATM   13  C   UNL     1      -8.522  13.936  67.496  1.00  0.00    -0.196 A  
HETATM   14  C   UNL     1      -8.692  14.082  68.872  1.00  0.00     0.063 A  
HETATM   15  C   UNL     1      -7.739  14.749  69.646  1.00  0.00    -0.011 A  
HETATM   16  C   UNL     1      -6.579  15.319  69.097  1.00  0.00    -0.130 A  
HETATM   17  F   UNL     1      -7.950  14.788  70.973  1.00  0.00     0.927 F  
HETATM   18  C   UNL     1      -7.359  14.467  66.929  1.00  0.00     0.593 A  
HETATM   19  C   UNL     1      -6.408  15.141  67.718  1.00  0.00    -0.181 A  
BRANCH  16  20
HETATM   20  N   UNL     1      -5.669  16.054  69.833  1.00  0.00    -0.153 NA 
HETATM   21  C   UNL     1      -5.311  17.435  69.472  1.00  0.00    -0.178 C  
HETATM   22  C   UNL     1      -5.742  18.404  70.579  1.00  0.00    -0.136 C  
HETATM   23  O   UNL     1      -5.166  18.026  71.842  1.00  0.00    -0.518 OA 
HETATM   24  C   UNL     1      -5.613  16.712  72.215  1.00  0.00     1.411 C  
HETATM   25  C   UNL     1      -5.226  15.643  71.173  1.00  0.00    -0.097 C  
ENDBRANCH  16  20
ENDBRANCH   9  13
ENDBRANCH   6   7
ENDBRANCH   3   6
TORSDOF 4
ENDMDL
MODEL      176
REMARK 921   NORMALIZED FREE ENERGY PREDICTED BY IDOCK:   28.86 KCAL/MOL
REMARK 922        TOTAL FREE ENERGY PREDICTED BY IDOCK:   35.21 KCAL/MOL
REMARK 923 INTER-LIGAND FREE ENERGY PREDICTED BY IDOCK:   31.91 KCAL/MOL
REMARK 924 INTRA-LIGAND FREE ENERGY PREDICTED BY IDOCK:    3.30 KCAL/MOL
REMARK 927      BINDING AFFINITY PREDICTED BY RF-SCORE:    0.00 PKD
ROOT
HETATM    1  C   UNL     1     -14.100   9.442  73.227  1.00  0.00     1.097 C  
HETATM    2  C   UNL     1     -13.887  10.918  73.036  1.00  0.00     2.439 C  
HETATM    3  N   UNL     1     -13.329  11.540  74.128  1.00  0.00    11.183 N  
HETATM    4  O   UNL     1     -14.165  11.500  71.995  1.00  0.00     0.596 OA 
HETATM    5  H   UNL     1     -13.070  10.979  74.940  1.00  0.00     0.000 HD 
ENDROOT
BRANCH   3   6
HETATM    6  C   UNL     1     -13.099  12.977  74.158  1.00  0.00     8.464 C  
BRANCH   6   7
HETATM    7  C   UNL     1     -12.267  13.417  72.964  1.00  0.00     1.774 C  
HETATM    8  C   UNL     1     -12.182  12.393  71.857  1.00  0.00     0.911 C  
HETATM    9  N   UNL     1     -11.951  13.237  70.723  1.00  0.00    -0.216 N  
HETATM   10  C   UNL     1     -12.479  14.495  70.997  1.00  0.00    -0.341 C  
HETATM   11  O   UNL     1     -12.634  15.442  70.245  1.00  0.00    -0.377 OA 
HETATM   12  O   UNL     1     -12.862  14.551  72.316  1.00  0.00    -0.321 OA 
BRANCH   9  13
HETATM   13  C   UNL     1     -11.315  12.820  69.529  1.00  0.00    -0.154 A  
HETATM   14  C   UNL     1     -12.058  12.467  68.403  1.00  0.00    -0.114 A  
HETATM   15  C   UNL     1     -11.426  12.082  67.219  1.00  0.00    -0.335 A  
HETATM   16  C   UNL     1     -10.030  12.011  67.091  1.00  0.00    -0.195 A  
HETATM   17  F   UNL     1     -12.217  11.820  66.163  1.00  0.00    -0.191 F  
HETATM   18  C   UNL     1      -9.921  12.789  69.419  1.00  0.00     0.792 A  
HETATM   19  C   UNL     1      -9.295  12.395  68.221  1.00  0.00    -0.199 A  
BRANCH  16  20
HETATM   20  N   UNL     1      -9.391  11.552  65.955  1.00  0.00    -0.220 NA 
HETATM   21  C   UNL     1     -10.138  11.066  64.783  1.00  0.00    -0.308 C  
HETATM   22  C   UNL     1      -9.873  11.965  63.571  1.00  0.00    -0.336 C  
HETATM   23  O   UNL     1      -8.463  12.050  63.296  1.00  0.00     0.660 OA 
HETATM   24  C   UNL     1      -7.773  12.620  64.420  1.00  0.00     6.667 C  
HETATM   25  C   UNL     1      -7.962  11.790  65.707  1.00  0.00     0.633 C  
ENDBRANCH  16  20
ENDBRANCH   9  13
ENDBRANCH   6   7
ENDBRANCH   3   6
TORSDOF 4
ENDMDL
MODEL      177
REMARK 921   NORMALIZED FREE ENERGY PREDICTED BY IDOCK:   50.96 KCAL/MOL
REMARK 922        TOTAL FREE ENERGY PREDICTED BY IDOCK:   62.48 KCAL/MOL
REMARK 923 INTER-LIGAND FREE ENERGY PREDICTED BY IDOCK:   60.69 KCAL/MOL
REMARK 924 INTRA-LIGAND FREE ENERGY PREDICTED BY IDOCK:    1.80 KCAL/MOL
REMARK 927      BINDING AFFINITY PREDICTED BY RF-SCORE:    0.00 PKD
ROOT
HETATM    1  C   UNL     1     -13.671   8.853  64.007  1.00  0.00    18.900 C  
HETATM    2  C   UNL     1     -12.617   8.902  65.078  1.00  0.00    18.047 C  
HETATM    3  N   UNL     1     -11.587   8.013  64.878  1.00  0.00    10.519 N  
HETATM    4  O   UNL     1     -12.667   9.679  66.024  1.00  0.00     9.394 OA 
HETATM    5  H   UNL     1     -11.584   7.438  64.035  1.00  0.00     0.000 HD 
ENDROOT
BRANCH   3   6
HETATM    6  C   UNL     1     -10.500   7.871  65.836  1.00  0.00     1.613 C  
BRANCH   6   7
HETATM    7  C   UNL     1      -9.719   9.169  65.967  1.00  0.00    -0.287 C  
HETATM    8  C   UNL     1     -10.436  10.247  66.745  1.00  0.00    -0.214 C  
HETATM    9  N   UNL     1      -9.327  11.008  67.238  1.00  0.00    -0.156 N  
HETATM   10  C   UNL     1      -8.219  10.170  67.316  1.00  0.00    -0.117 C  
HETATM   11  O   UNL     1      -7.134  10.380  67.831  1.00  0.00    -0.081 OA 
HETATM   12  O   UNL     1      -8.514   8.968  66.719  1.00  0.00    -0.117 OA 
BRANCH   9  13
HETATM   13  C   UNL     1      -9.391  12.374  67.604  1.00  0.00    -0.188 A  
HETATM   14  C   UNL     1      -9.605  13.366  66.647  1.00  0.00    -0.272 A  
HETATM   15  C   UNL     1      -9.695  14.710  67.015  1.00  0.00    -0.243 A  
HETATM   16  C   UNL     1      -9.564  15.144  68.344  1.00  0.00    -0.212 A  
HETATM   17  F   UNL     1      -9.967  15.593  66.038  1.00  0.00    -0.264 F  
HETATM   18  C   UNL     1      -9.288  12.776  68.939  1.00  0.00     0.281 A  
HETATM   19  C   UNL     1      -9.376  14.135  69.298  1.00  0.00     0.309 A  
BRANCH  16  20
HETATM   20  N   UNL     1      -9.566  16.475  68.715  1.00  0.00    -0.240 NA 
HETATM   21  C   UNL     1      -9.437  16.892  70.121  1.00  0.00     1.546 C  
HETATM   22  C   UNL     1      -8.143  17.689  70.324  1.00  0.00     2.977 C  
HETATM   23  O   UNL     1      -8.096  18.821  69.435  1.00  0.00     0.024 OA 
HETATM   24  C   UNL     1      -8.124  18.376  68.068  1.00  0.00    -0.274 C  
HETATM   25  C   UNL     1      -9.394  17.563  67.742  1.00  0.00    -0.257 C  
ENDBRANCH  16  20
ENDBRANCH   9  13
ENDBRANCH   6   7
ENDBRANCH   3   6
TORSDOF 4
ENDMDL
MODEL      178
REMARK 921   NORMALIZED FREE ENERGY PREDICTED BY IDOCK:   58.10 KCAL/MOL
REMARK 922        TOTAL FREE ENERGY PREDICTED BY IDOCK:   71.28 KCAL/MOL
REMARK 923 INTER-LIGAND FREE ENERGY PREDICTED BY IDOCK:   69.66 KCAL/MOL
REMARK 924 INTRA-LIGAND FREE ENERGY PREDICTED BY IDOCK:    1.62 KCAL/MOL
REMARK 927      BINDING AFFINITY PREDICTED BY RF-SCORE:    0.00 PKD
ROOT
HETATM    1  C   UNL     1     -13.947   8.692  63.870  1.00  0.00    17.995 C  
HETATM    2  C   UNL     1     -13.050   8.939  65.052  1.00  0.00    22.057 C  
HETATM    3  N   UNL     1     -11.949   8.116  65.089  1.00  0.00    11.158 N  
HETATM    4  O   UNL     1     -13.275   9.808  65.885  1.00  0.00    13.241 OA 
HETATM    5  H   UNL     1     -11.798   7.455  64.328  1.00  0.00     0.000 HD 
ENDROOT
BRANCH   3   6
HETATM    6  C   UNL     1     -10.994   8.164  66.187  1.00  0.00     2.154 C  
BRANCH   6   7
HETATM    7  C   UNL     1     -10.191   9.454  66.151  1.00  0.00    -0.194 C  
HETATM    8  C   UNL     1     -11.025  10.707  66.279  1.00  0.00     0.053 C  
HETATM    9  N   UNL     1     -10.068  11.613  66.840  1.00  0.00    -0.208 N  
HETATM   10  C   UNL     1      -9.112  10.873  67.529  1.00  0.00    -0.140 C  
HETATM   11  O   UNL     1      -8.230  11.264  68.273  1.00  0.00    -0.128 OA 
HETATM   12  O   UNL     1      -9.302   9.535  67.274  1.00  0.00    -0.132 OA 
BRANCH   9  13
HETATM   13  C   UNL     1     -10.133  13.022  66.720  1.00  0.00    -0.247 A  
HETATM   14  C   UNL     1      -9.930  13.650  65.492  1.00  0.00    -0.244 A  
HETATM   15  C   UNL     1     -10.021  15.039  65.372  1.00  0.00    -0.330 A  
HETATM   16  C   UNL     1     -10.302  15.878  66.462  1.00  0.00    -0.300 A  
HETATM   17  F   UNL     1      -9.876  15.555  64.139  1.00  0.00     0.913 F  
HETATM   18  C   UNL     1     -10.445  13.833  67.816  1.00  0.00    -0.240 A  
HETATM   19  C   UNL     1     -10.530  15.233  67.685  1.00  0.00    -0.263 A  
BRANCH  16  20
HETATM   20  N   UNL     1     -10.313  17.257  66.379  1.00  0.00    -0.333 NA 
HETATM   21  C   UNL     1      -9.655  18.104  67.388  1.00  0.00    -0.275 C  
HETATM   22  C   UNL     1      -8.508  18.897  66.752  1.00  0.00    -0.298 C  
HETATM   23  O   UNL     1      -8.981  19.678  65.640  1.00  0.00    -0.325 OA 
HETATM   24  C   UNL     1      -9.528  18.816  64.628  1.00  0.00     5.150 C  
HETATM   25  C   UNL     1     -10.705  17.968  65.153  1.00  0.00     0.600 C  
ENDBRANCH  16  20
ENDBRANCH   9  13
ENDBRANCH   6   7
ENDBRANCH   3   6
TORSDOF 4
ENDMDL
