MODEL        1
REMARK 921   NORMALIZED FREE ENERGY PREDICTED BY IDOCK:   -5.00 KCAL/MOL
REMARK 922        TOTAL FREE ENERGY PREDICTED BY IDOCK:  -10.55 KCAL/MOL
REMARK 923 INTER-LIGAND FREE ENERGY PREDICTED BY IDOCK:   -8.80 KCAL/MOL
REMARK 924 INTRA-LIGAND FREE ENERGY PREDICTED BY IDOCK:   -1.75 KCAL/MOL
REMARK 927      BINDING AFFINITY PREDICTED BY RF-SCORE:    0.00 PKD
ROOT
HETATM    1  C   UNL     1     -12.256  15.351  73.905  1.00  0.00    -0.741 C  
HETATM    2  C   UNL     1     -13.467  15.840  73.130  1.00  0.00    -0.652 C  
ENDROOT
BRANCH   2   3
HETATM    3  C   UNL     1     -13.881  14.832  72.066  1.00  0.00    -0.548 C  
BRANCH   3   4
HETATM    4  C   UNL     1     -12.753  14.591  71.064  1.00  0.00    -0.413 C  
BRANCH   4   5
HETATM    5  C   UNL     1     -12.424  13.105  71.011  1.00  0.00    -0.406 C  
BRANCH   5   6
HETATM    6  C   UNL     1     -13.242  12.280  71.958  1.00  0.00    -0.508 C  
HETATM    7  C   UNL     1     -13.237  10.938  71.935  1.00  0.00    -0.508 C  
BRANCH   7   8
HETATM    8  C   UNL     1     -12.449  10.111  70.962  1.00  0.00    -0.474 C  
BRANCH   8   9
HETATM    9  C   UNL     1     -11.193   9.570  71.578  1.00  0.00    -0.437 C  
HETATM   10  C   UNL     1     -10.068   9.311  70.893  1.00  0.00    -0.373 C  
BRANCH  10  11
HETATM   11  C   UNL     1      -9.963   9.514  69.412  1.00  0.00    -0.199 C  
BRANCH  11  12
HETATM   12  C   UNL     1      -8.760  10.350  69.006  1.00  0.00    -0.170 C  
BRANCH  12  13
HETATM   13  C   UNL     1      -9.155  11.304  67.882  1.00  0.00    -0.150 C  
BRANCH  13  14
HETATM   14  C   UNL     1     -10.285  12.220  68.330  1.00  0.00    -0.220 C  
BRANCH  14  15
HETATM   15  C   UNL     1     -11.460  12.169  67.358  1.00  0.00    -0.415 C  
BRANCH  15  16
HETATM   16  C   UNL     1     -11.841  13.579  66.917  1.00  0.00    -0.452 C  
BRANCH  16  17
HETATM   17  C   UNL     1     -12.700  13.564  65.658  1.00  0.00    -0.478 C  
HETATM   18  C   UNL     1     -11.864  13.764  64.417  1.00  0.00    -0.427 C  
HETATM   19  O   UNL     1     -10.654  13.920  64.391  1.00  0.00    -0.400 OA 
HETATM   20  O   UNL     1     -12.613  13.756  63.288  1.00  0.00    -0.830 OA 
ENDBRANCH  16  17
ENDBRANCH  15  16
ENDBRANCH  14  15
ENDBRANCH  13  14
ENDBRANCH  12  13
ENDBRANCH  11  12
ENDBRANCH  10  11
ENDBRANCH   8   9
ENDBRANCH   7   8
ENDBRANCH   5   6
ENDBRANCH   4   5
ENDBRANCH   3   4
ENDBRANCH   2   3
TORSDOF 13
ENDMDL
MODEL        2
REMARK 921   NORMALIZED FREE ENERGY PREDICTED BY IDOCK:   -5.00 KCAL/MOL
REMARK 922        TOTAL FREE ENERGY PREDICTED BY IDOCK:  -10.54 KCAL/MOL
REMARK 923 INTER-LIGAND FREE ENERGY PREDICTED BY IDOCK:   -8.78 KCAL/MOL
REMARK 924 INTRA-LIGAND FREE ENERGY PREDICTED BY IDOCK:   -1.76 KCAL/MOL
REMARK 927      BINDING AFFINITY PREDICTED BY RF-SCORE:    0.00 PKD
ROOT
HETATM    1  C   UNL     1      -9.041  18.494  67.325  1.00  0.00    -0.282 C  
HETATM    2  C   UNL     1     -10.499  18.397  67.737  1.00  0.00    -0.433 C  
ENDROOT
BRANCH   2   3
HETATM    3  C   UNL     1     -10.903  16.950  67.988  1.00  0.00    -0.338 C  
BRANCH   3   4
HETATM    4  C   UNL     1     -10.266  16.413  69.268  1.00  0.00    -0.278 C  
BRANCH   4   5
HETATM    5  C   UNL     1     -11.273  15.554  70.021  1.00  0.00    -0.325 C  
BRANCH   5   6
HETATM    6  C   UNL     1     -11.566  16.053  71.404  1.00  0.00    -0.520 C  
HETATM    7  C   UNL     1     -12.688  15.729  72.066  1.00  0.00    -0.518 C  
BRANCH   7   8
HETATM    8  C   UNL     1     -13.780  14.865  71.507  1.00  0.00    -0.532 C  
BRANCH   8   9
HETATM    9  C   UNL     1     -13.967  13.613  72.310  1.00  0.00    -0.661 C  
HETATM   10  C   UNL     1     -13.376  12.441  72.030  1.00  0.00    -0.511 C  
BRANCH  10  11
HETATM   11  C   UNL     1     -12.475  12.258  70.846  1.00  0.00    -0.371 C  
BRANCH  11  12
HETATM   12  C   UNL     1     -12.113  10.804  70.589  1.00  0.00    -0.467 C  
BRANCH  12  13
HETATM   13  C   UNL     1     -11.319  10.696  69.289  1.00  0.00    -0.346 C  
BRANCH  13  14
HETATM   14  C   UNL     1     -10.940  12.078  68.778  1.00  0.00    -0.282 C  
BRANCH  14  15
HETATM   15  C   UNL     1     -11.181  12.201  67.277  1.00  0.00    -0.366 C  
BRANCH  15  16
HETATM   16  C   UNL     1     -11.959  13.477  66.970  1.00  0.00    -0.440 C  
BRANCH  16  17
HETATM   17  C   UNL     1     -12.702  13.380  65.642  1.00  0.00    -0.432 C  
HETATM   18  C   UNL     1     -11.951  14.082  64.537  1.00  0.00    -0.448 C  
HETATM   19  O   UNL     1     -10.884  14.662  64.657  1.00  0.00    -0.385 OA 
HETATM   20  O   UNL     1     -12.599  14.008  63.350  1.00  0.00    -0.845 OA 
ENDBRANCH  16  17
ENDBRANCH  15  16
ENDBRANCH  14  15
ENDBRANCH  13  14
ENDBRANCH  12  13
ENDBRANCH  11  12
ENDBRANCH  10  11
ENDBRANCH   8   9
ENDBRANCH   7   8
ENDBRANCH   5   6
ENDBRANCH   4   5
ENDBRANCH   3   4
ENDBRANCH   2   3
TORSDOF 13
ENDMDL
MODEL        3
REMARK 921   NORMALIZED FREE ENERGY PREDICTED BY IDOCK:   -4.99 KCAL/MOL
REMARK 922        TOTAL FREE ENERGY PREDICTED BY IDOCK:  -10.54 KCAL/MOL
REMARK 923 INTER-LIGAND FREE ENERGY PREDICTED BY IDOCK:   -8.73 KCAL/MOL
REMARK 924 INTRA-LIGAND FREE ENERGY PREDICTED BY IDOCK:   -1.80 KCAL/MOL
REMARK 927      BINDING AFFINITY PREDICTED BY RF-SCORE:    0.00 PKD
ROOT
HETATM    1  C   UNL     1     -11.428   8.175  71.959  1.00  0.00    -0.380 C  
HETATM    2  C   UNL     1     -11.265   8.502  70.485  1.00  0.00    -0.262 C  
ENDROOT
BRANCH   2   3
HETATM    3  C   UNL     1     -11.499   9.984  70.223  1.00  0.00    -0.372 C  
BRANCH   3   4
HETATM    4  C   UNL     1     -12.708  10.499  71.002  1.00  0.00    -0.504 C  
BRANCH   4   5
HETATM    5  C   UNL     1     -12.564  11.996  71.240  1.00  0.00    -0.357 C  
BRANCH   5   6
HETATM    6  C   UNL     1     -13.636  12.564  72.121  1.00  0.00    -0.458 C  
HETATM    7  C   UNL     1     -13.623  13.837  72.544  1.00  0.00    -0.680 C  
BRANCH   7   8
HETATM    8  C   UNL     1     -12.542  14.825  72.219  1.00  0.00    -0.414 C  
BRANCH   8   9
HETATM    9  C   UNL     1     -12.861  15.616  70.986  1.00  0.00    -0.521 C  
HETATM   10  C   UNL     1     -12.035  15.742  69.936  1.00  0.00    -0.346 C  
BRANCH  10  11
HETATM   11  C   UNL     1     -10.674  15.116  69.903  1.00  0.00    -0.274 C  
BRANCH  11  12
HETATM   12  C   UNL     1     -10.573  13.953  68.929  1.00  0.00    -0.228 C  
BRANCH  12  13
HETATM   13  C   UNL     1     -11.883  13.818  68.156  1.00  0.00    -0.411 C  
BRANCH  13  14
HETATM   14  C   UNL     1     -11.790  12.688  67.141  1.00  0.00    -0.399 C  
BRANCH  14  15
HETATM   15  C   UNL     1     -10.450  12.705  66.411  1.00  0.00    -0.267 C  
BRANCH  15  16
HETATM   16  C   UNL     1     -10.633  13.217  64.985  1.00  0.00    -0.347 C  
BRANCH  16  17
HETATM   17  C   UNL     1     -10.516  14.735  64.911  1.00  0.00    -0.398 C  
HETATM   18  C   UNL     1     -11.703  15.346  64.207  1.00  0.00    -0.206 C  
HETATM   19  O   UNL     1     -12.651  14.732  63.745  1.00  0.00    -0.806 OA 
HETATM   20  O   UNL     1     -11.613  16.695  64.129  1.00  0.00    -1.102 OA 
ENDBRANCH  16  17
ENDBRANCH  15  16
ENDBRANCH  14  15
ENDBRANCH  13  14
ENDBRANCH  12  13
ENDBRANCH  11  12
ENDBRANCH  10  11
ENDBRANCH   8   9
ENDBRANCH   7   8
ENDBRANCH   5   6
ENDBRANCH   4   5
ENDBRANCH   3   4
ENDBRANCH   2   3
TORSDOF 13
ENDMDL
MODEL        4
REMARK 921   NORMALIZED FREE ENERGY PREDICTED BY IDOCK:   -4.98 KCAL/MOL
REMARK 922        TOTAL FREE ENERGY PREDICTED BY IDOCK:  -10.51 KCAL/MOL
REMARK 923 INTER-LIGAND FREE ENERGY PREDICTED BY IDOCK:   -8.17 KCAL/MOL
REMARK 924 INTRA-LIGAND FREE ENERGY PREDICTED BY IDOCK:   -2.34 KCAL/MOL
REMARK 927      BINDING AFFINITY PREDICTED BY RF-SCORE:    0.00 PKD
ROOT
HETATM    1  C   UNL     1     -11.953   9.937  71.347  1.00  0.00    -0.489 C  
HETATM    2  C   UNL     1     -13.044  10.882  71.819  1.00  0.00    -0.564 C  
ENDROOT
BRANCH   2   3
HETATM    3  C   UNL     1     -12.786  12.304  71.336  1.00  0.00    -0.373 C  
BRANCH   3   4
HETATM    4  C   UNL     1     -13.488  13.325  72.228  1.00  0.00    -0.679 C  
BRANCH   4   5
HETATM    5  C   UNL     1     -13.648  14.639  71.476  1.00  0.00    -0.481 C  
BRANCH   5   6
HETATM    6  C   UNL     1     -12.540  15.615  71.738  1.00  0.00    -0.510 C  
HETATM    7  C   UNL     1     -11.694  16.021  70.778  1.00  0.00    -0.410 C  
BRANCH   7   8
HETATM    8  C   UNL     1     -11.732  15.540  69.358  1.00  0.00    -0.382 C  
BRANCH   8   9
HETATM    9  C   UNL     1     -10.574  14.642  69.041  1.00  0.00    -0.248 C  
HETATM   10  C   UNL     1     -10.680  13.479  68.379  1.00  0.00    -0.273 C  
BRANCH  10  11
HETATM   11  C   UNL     1     -11.996  12.939  67.907  1.00  0.00    -0.333 C  
BRANCH  11  12
HETATM   12  C   UNL     1     -12.008  12.606  66.424  1.00  0.00    -0.425 C  
BRANCH  12  13
HETATM   13  C   UNL     1     -12.836  13.647  65.673  1.00  0.00    -0.425 C  
BRANCH  13  14
HETATM   14  C   UNL     1     -12.044  14.217  64.505  1.00  0.00    -0.499 C  
BRANCH  14  15
HETATM   15  C   UNL     1     -10.669  14.704  64.951  1.00  0.00    -0.447 C  
BRANCH  15  16
HETATM   16  C   UNL     1     -10.761  16.131  65.484  1.00  0.00    -0.355 C  
BRANCH  16  17
HETATM   17  C   UNL     1      -9.455  16.577  66.132  1.00  0.00    -0.347 C  
HETATM   18  C   UNL     1      -9.667  17.768  67.035  1.00  0.00    -0.290 C  
HETATM   19  O   UNL     1     -10.732  18.325  67.242  1.00  0.00    -0.404 OA 
HETATM   20  O   UNL     1      -8.515  18.180  67.617  1.00  0.00    -0.240 OA 
ENDBRANCH  16  17
ENDBRANCH  15  16
ENDBRANCH  14  15
ENDBRANCH  13  14
ENDBRANCH  12  13
ENDBRANCH  11  12
ENDBRANCH  10  11
ENDBRANCH   8   9
ENDBRANCH   7   8
ENDBRANCH   5   6
ENDBRANCH   4   5
ENDBRANCH   3   4
ENDBRANCH   2   3
TORSDOF 13
ENDMDL
MODEL        5
REMARK 921   NORMALIZED FREE ENERGY PREDICTED BY IDOCK:   -4.90 KCAL/MOL
REMARK 922        TOTAL FREE ENERGY PREDICTED BY IDOCK:  -10.37 KCAL/MOL
REMARK 923 INTER-LIGAND FREE ENERGY PREDICTED BY IDOCK:   -8.37 KCAL/MOL
REMARK 924 INTRA-LIGAND FREE ENERGY PREDICTED BY IDOCK:   -2.01 KCAL/MOL
REMARK 927      BINDING AFFINITY PREDICTED BY RF-SCORE:    0.00 PKD
ROOT
HETATM    1  C   UNL     1     -12.410  15.802  74.491  1.00  0.00    -0.776 C  
HETATM    2  C   UNL     1     -12.568  15.980  72.991  1.00  0.00    -0.605 C  
ENDROOT
BRANCH   2   3
HETATM    3  C   UNL     1     -13.905  15.431  72.510  1.00  0.00    -0.651 C  
BRANCH   3   4
HETATM    4  C   UNL     1     -13.718  14.137  71.720  1.00  0.00    -0.492 C  
BRANCH   4   5
HETATM    5  C   UNL     1     -12.262  14.000  71.297  1.00  0.00    -0.392 C  
BRANCH   5   6
HETATM    6  C   UNL     1     -12.094  13.652  69.848  1.00  0.00    -0.406 C  
HETATM    7  C   UNL     1     -11.884  14.581  68.902  1.00  0.00    -0.359 C  
BRANCH   7   8
HETATM    8  C   UNL     1     -11.820  16.057  69.165  1.00  0.00    -0.268 C  
BRANCH   8   9
HETATM    9  C   UNL     1     -10.418  16.516  69.430  1.00  0.00    -0.320 C  
HETATM   10  C   UNL     1      -9.798  17.485  68.738  1.00  0.00    -0.326 C  
BRANCH  10  11
HETATM   11  C   UNL     1     -10.449  18.196  67.590  1.00  0.00    -0.432 C  
BRANCH  11  12
HETATM   12  C   UNL     1     -10.059  17.627  66.235  1.00  0.00    -0.344 C  
BRANCH  12  13
HETATM   13  C   UNL     1      -8.889  16.660  66.403  1.00  0.00    -0.337 C  
BRANCH  13  14
HETATM   14  C   UNL     1      -9.300  15.251  66.002  1.00  0.00    -0.346 C  
BRANCH  14  15
HETATM   15  C   UNL     1     -10.501  15.267  65.062  1.00  0.00    -0.411 C  
BRANCH  15  16
HETATM   16  C   UNL     1     -10.891  13.843  64.678  1.00  0.00    -0.420 C  
BRANCH  16  17
HETATM   17  C   UNL     1     -11.733  13.177  65.761  1.00  0.00    -0.415 C  
HETATM   18  C   UNL     1     -11.122  11.871  66.209  1.00  0.00    -0.314 C  
HETATM   19  O   UNL     1     -10.090  11.383  65.780  1.00  0.00    -0.226 OA 
HETATM   20  O   UNL     1     -11.860  11.264  67.169  1.00  0.00    -0.524 OA 
ENDBRANCH  16  17
ENDBRANCH  15  16
ENDBRANCH  14  15
ENDBRANCH  13  14
ENDBRANCH  12  13
ENDBRANCH  11  12
ENDBRANCH  10  11
ENDBRANCH   8   9
ENDBRANCH   7   8
ENDBRANCH   5   6
ENDBRANCH   4   5
ENDBRANCH   3   4
ENDBRANCH   2   3
TORSDOF 13
ENDMDL
MODEL        6
REMARK 921   NORMALIZED FREE ENERGY PREDICTED BY IDOCK:   -4.88 KCAL/MOL
REMARK 922        TOTAL FREE ENERGY PREDICTED BY IDOCK:  -10.34 KCAL/MOL
REMARK 923 INTER-LIGAND FREE ENERGY PREDICTED BY IDOCK:   -8.11 KCAL/MOL
REMARK 924 INTRA-LIGAND FREE ENERGY PREDICTED BY IDOCK:   -2.23 KCAL/MOL
REMARK 927      BINDING AFFINITY PREDICTED BY RF-SCORE:    0.00 PKD
ROOT
HETATM    1  C   UNL     1     -12.800  15.839  73.580  1.00  0.00    -0.702 C  
HETATM    2  C   UNL     1     -13.055  14.635  72.691  1.00  0.00    -0.549 C  
ENDROOT
BRANCH   2   3
HETATM    3  C   UNL     1     -13.284  15.057  71.245  1.00  0.00    -0.502 C  
BRANCH   3   4
HETATM    4  C   UNL     1     -12.034  15.707  70.656  1.00  0.00    -0.438 C  
BRANCH   4   5
HETATM    5  C   UNL     1     -11.267  14.686  69.826  1.00  0.00    -0.296 C  
BRANCH   5   6
HETATM    6  C   UNL     1     -12.118  13.988  68.807  1.00  0.00    -0.338 C  
HETATM    7  C   UNL     1     -11.785  12.798  68.283  1.00  0.00    -0.388 C  
BRANCH   7   8
HETATM    8  C   UNL     1     -10.533  12.044  68.623  1.00  0.00    -0.238 C  
BRANCH   8   9
HETATM    9  C   UNL     1      -9.416  12.362  67.675  1.00  0.00    -0.190 C  
HETATM   10  C   UNL     1      -9.276  11.807  66.461  1.00  0.00    -0.206 C  
BRANCH  10  11
HETATM   11  C   UNL     1     -10.224  10.772  65.935  1.00  0.00    -0.319 C  
BRANCH  11  12
HETATM   12  C   UNL     1     -10.512  10.924  64.450  1.00  0.00    -0.403 C  
BRANCH  12  13
HETATM   13  C   UNL     1     -10.941  12.360  64.155  1.00  0.00    -0.416 C  
BRANCH  13  14
HETATM   14  C   UNL     1     -12.299  12.650  64.777  1.00  0.00    -0.556 C  
BRANCH  14  15
HETATM   15  C   UNL     1     -12.494  14.144  65.015  1.00  0.00    -0.434 C  
BRANCH  15  16
HETATM   16  C   UNL     1     -11.205  14.900  64.707  1.00  0.00    -0.393 C  
BRANCH  16  17
HETATM   17  C   UNL     1     -10.610  15.534  65.959  1.00  0.00    -0.333 C  
HETATM   18  C   UNL     1     -10.569  17.039  65.849  1.00  0.00    -0.216 C  
HETATM   19  O   UNL     1     -10.954  17.695  64.895  1.00  0.00    -0.886 OA 
HETATM   20  O   UNL     1     -10.039  17.619  66.953  1.00  0.00    -0.305 OA 
ENDBRANCH  16  17
ENDBRANCH  15  16
ENDBRANCH  14  15
ENDBRANCH  13  14
ENDBRANCH  12  13
ENDBRANCH  11  12
ENDBRANCH  10  11
ENDBRANCH   8   9
ENDBRANCH   7   8
ENDBRANCH   5   6
ENDBRANCH   4   5
ENDBRANCH   3   4
ENDBRANCH   2   3
TORSDOF 13
ENDMDL
MODEL        7
REMARK 921   NORMALIZED FREE ENERGY PREDICTED BY IDOCK:   -4.84 KCAL/MOL
REMARK 922        TOTAL FREE ENERGY PREDICTED BY IDOCK:  -10.26 KCAL/MOL
REMARK 923 INTER-LIGAND FREE ENERGY PREDICTED BY IDOCK:   -8.22 KCAL/MOL
REMARK 924 INTRA-LIGAND FREE ENERGY PREDICTED BY IDOCK:   -2.04 KCAL/MOL
REMARK 927      BINDING AFFINITY PREDICTED BY RF-SCORE:    0.00 PKD
ROOT
HETATM    1  C   UNL     1      -9.640  11.566  63.162  1.00  0.00    -0.381 C  
HETATM    2  C   UNL     1     -11.045  11.245  63.639  1.00  0.00    -0.300 C  
ENDROOT
BRANCH   2   3
HETATM    3  C   UNL     1     -11.956  12.461  63.522  1.00  0.00    -0.627 C  
BRANCH   3   4
HETATM    4  C   UNL     1     -12.818  12.627  64.772  1.00  0.00    -0.349 C  
BRANCH   4   5
HETATM    5  C   UNL     1     -12.636  14.028  65.338  1.00  0.00    -0.529 C  
BRANCH   5   6
HETATM    6  C   UNL     1     -11.514  14.788  64.697  1.00  0.00    -0.381 C  
HETATM    7  C   UNL     1     -10.338  14.992  65.311  1.00  0.00    -0.424 C  
BRANCH   7   8
HETATM    8  C   UNL     1     -10.013  14.520  66.697  1.00  0.00    -0.276 C  
BRANCH   8   9
HETATM    9  C   UNL     1      -9.497  13.112  66.700  1.00  0.00    -0.260 C  
HETATM   10  C   UNL     1     -10.057  12.105  67.387  1.00  0.00    -0.208 C  
BRANCH  10  11
HETATM   11  C   UNL     1     -11.260  12.297  68.260  1.00  0.00    -0.315 C  
BRANCH  11  12
HETATM   12  C   UNL     1     -11.751  11.006  68.896  1.00  0.00    -0.400 C  
BRANCH  12  13
HETATM   13  C   UNL     1     -11.568  11.079  70.410  1.00  0.00    -0.389 C  
BRANCH  13  14
HETATM   14  C   UNL     1     -12.876  10.765  71.121  1.00  0.00    -0.513 C  
BRANCH  14  15
HETATM   15  C   UNL     1     -13.280  11.893  72.066  1.00  0.00    -0.461 C  
BRANCH  15  16
HETATM   16  C   UNL     1     -12.923  13.246  71.457  1.00  0.00    -0.426 C  
BRANCH  16  17
HETATM   17  C   UNL     1     -13.781  14.368  72.031  1.00  0.00    -0.533 C  
HETATM   18  C   UNL     1     -12.965  15.299  72.894  1.00  0.00    -0.463 C  
HETATM   19  O   UNL     1     -11.772  15.196  73.123  1.00  0.00    -0.389 OA 
HETATM   20  O   UNL     1     -13.714  16.301  73.416  1.00  0.00    -0.597 OA 
ENDBRANCH  16  17
ENDBRANCH  15  16
ENDBRANCH  14  15
ENDBRANCH  13  14
ENDBRANCH  12  13
ENDBRANCH  11  12
ENDBRANCH  10  11
ENDBRANCH   8   9
ENDBRANCH   7   8
ENDBRANCH   5   6
ENDBRANCH   4   5
ENDBRANCH   3   4
ENDBRANCH   2   3
TORSDOF 13
ENDMDL
MODEL        8
REMARK 921   NORMALIZED FREE ENERGY PREDICTED BY IDOCK:   -4.82 KCAL/MOL
REMARK 922        TOTAL FREE ENERGY PREDICTED BY IDOCK:  -10.23 KCAL/MOL
REMARK 923 INTER-LIGAND FREE ENERGY PREDICTED BY IDOCK:   -7.76 KCAL/MOL
REMARK 924 INTRA-LIGAND FREE ENERGY PREDICTED BY IDOCK:   -2.47 KCAL/MOL
REMARK 927      BINDING AFFINITY PREDICTED BY RF-SCORE:    0.00 PKD
ROOT
HETATM    1  C   UNL     1     -10.220  16.867  66.315  1.00  0.00    -0.337 C  
HETATM    2  C   UNL     1      -9.313  15.675  66.063  1.00  0.00    -0.384 C  
ENDROOT
BRANCH   2   3
HETATM    3  C   UNL     1     -10.013  14.369  66.416  1.00  0.00    -0.305 C  
BRANCH   3   4
HETATM    4  C   UNL     1     -11.472  14.610  66.799  1.00  0.00    -0.371 C  
BRANCH   4   5
HETATM    5  C   UNL     1     -12.379  13.748  65.931  1.00  0.00    -0.516 C  
BRANCH   5   6
HETATM    6  C   UNL     1     -12.451  14.208  64.506  1.00  0.00    -0.350 C  
HETATM    7  C   UNL     1     -12.190  13.394  63.471  1.00  0.00    -0.468 C  
BRANCH   7   8
HETATM    8  C   UNL     1     -11.773  11.959  63.607  1.00  0.00    -0.572 C  
BRANCH   8   9
HETATM    9  C   UNL     1     -10.289  11.794  63.476  1.00  0.00    -0.490 C  
HETATM   10  C   UNL     1      -9.548  10.989  64.254  1.00  0.00    -0.303 C  
BRANCH  10  11
HETATM   11  C   UNL     1     -10.138  10.182  65.370  1.00  0.00    -0.342 C  
BRANCH  11  12
HETATM   12  C   UNL     1      -9.755  10.697  66.748  1.00  0.00    -0.222 C  
BRANCH  12  13
HETATM   13  C   UNL     1     -11.006  10.822  67.615  1.00  0.00    -0.365 C  
BRANCH  13  14
HETATM   14  C   UNL     1     -10.679  11.516  68.928  1.00  0.00    -0.245 C  
BRANCH  14  15
HETATM   15  C   UNL     1     -11.937  11.759  69.757  1.00  0.00    -0.392 C  
BRANCH  15  16
HETATM   16  C   UNL     1     -12.115  13.250  70.023  1.00  0.00    -0.385 C  
BRANCH  16  17
HETATM   17  C   UNL     1     -13.050  13.507  71.200  1.00  0.00    -0.285 C  
HETATM   18  C   UNL     1     -13.377  14.974  71.334  1.00  0.00    -0.436 C  
HETATM   19  O   UNL     1     -12.965  15.866  70.611  1.00  0.00    -0.467 OA 
HETATM   20  O   UNL     1     -14.205  15.220  72.378  1.00  0.00    -0.523 OA 
ENDBRANCH  16  17
ENDBRANCH  15  16
ENDBRANCH  14  15
ENDBRANCH  13  14
ENDBRANCH  12  13
ENDBRANCH  11  12
ENDBRANCH  10  11
ENDBRANCH   8   9
ENDBRANCH   7   8
ENDBRANCH   5   6
ENDBRANCH   4   5
ENDBRANCH   3   4
ENDBRANCH   2   3
TORSDOF 13
ENDMDL
MODEL        9
REMARK 921   NORMALIZED FREE ENERGY PREDICTED BY IDOCK:   -4.79 KCAL/MOL
REMARK 922        TOTAL FREE ENERGY PREDICTED BY IDOCK:  -10.18 KCAL/MOL
REMARK 923 INTER-LIGAND FREE ENERGY PREDICTED BY IDOCK:   -8.28 KCAL/MOL
REMARK 924 INTRA-LIGAND FREE ENERGY PREDICTED BY IDOCK:   -1.90 KCAL/MOL
REMARK 927      BINDING AFFINITY PREDICTED BY RF-SCORE:    0.00 PKD
ROOT
HETATM    1  C   UNL     1     -12.446  15.627  74.066  1.00  0.00    -0.785 C  
HETATM    2  C   UNL     1     -12.138  15.894  72.603  1.00  0.00    -0.615 C  
ENDROOT
BRANCH   2   3
HETATM    3  C   UNL     1     -12.337  14.639  71.762  1.00  0.00    -0.415 C  
BRANCH   3   4
HETATM    4  C   UNL     1     -13.726  14.042  71.981  1.00  0.00    -0.569 C  
BRANCH   4   5
HETATM    5  C   UNL     1     -13.604  12.552  72.268  1.00  0.00    -0.443 C  
BRANCH   5   6
HETATM    6  C   UNL     1     -12.904  11.792  71.182  1.00  0.00    -0.365 C  
HETATM    7  C   UNL     1     -12.830  10.451  71.171  1.00  0.00    -0.511 C  
BRANCH   7   8
HETATM    8  C   UNL     1     -13.403   9.564  72.237  1.00  0.00    -0.526 C  
BRANCH   8   9
HETATM    9  C   UNL     1     -14.220   8.450  71.655  1.00  0.00    -0.516 C  
HETATM   10  C   UNL     1     -13.740   7.227  71.380  1.00  0.00    -0.404 C  
BRANCH  10  11
HETATM   11  C   UNL     1     -12.306   6.856  71.606  1.00  0.00    -0.413 C  
BRANCH  11  12
HETATM   12  C   UNL     1     -11.497   6.783  70.321  1.00  0.00    -0.414 C  
BRANCH  12  13
HETATM   13  C   UNL     1     -10.326   7.760  70.396  1.00  0.00    -0.212 C  
BRANCH  13  14
HETATM   14  C   UNL     1     -10.380   8.750  69.242  1.00  0.00    -0.221 C  
BRANCH  14  15
HETATM   15  C   UNL     1      -9.659  10.049  69.589  1.00  0.00    -0.251 C  
BRANCH  15  16
HETATM   16  C   UNL     1      -9.567  10.947  68.359  1.00  0.00    -0.177 C  
BRANCH  16  17
HETATM   17  C   UNL     1     -10.204  12.310  68.606  1.00  0.00    -0.177 C  
HETATM   18  C   UNL     1     -11.555  12.415  67.941  1.00  0.00    -0.356 C  
HETATM   19  O   UNL     1     -12.097  11.541  67.284  1.00  0.00    -0.548 OA 
HETATM   20  O   UNL     1     -12.135  13.622  68.148  1.00  0.00    -0.359 OA 
ENDBRANCH  16  17
ENDBRANCH  15  16
ENDBRANCH  14  15
ENDBRANCH  13  14
ENDBRANCH  12  13
ENDBRANCH  11  12
ENDBRANCH  10  11
ENDBRANCH   8   9
ENDBRANCH   7   8
ENDBRANCH   5   6
ENDBRANCH   4   5
ENDBRANCH   3   4
ENDBRANCH   2   3
TORSDOF 13
ENDMDL
MODEL       10
REMARK 921   NORMALIZED FREE ENERGY PREDICTED BY IDOCK:   -4.79 KCAL/MOL
REMARK 922        TOTAL FREE ENERGY PREDICTED BY IDOCK:  -10.18 KCAL/MOL
REMARK 923 INTER-LIGAND FREE ENERGY PREDICTED BY IDOCK:   -7.80 KCAL/MOL
REMARK 924 INTRA-LIGAND FREE ENERGY PREDICTED BY IDOCK:   -2.38 KCAL/MOL
REMARK 927      BINDING AFFINITY PREDICTED BY RF-SCORE:    0.00 PKD
ROOT
HETATM    1  C   UNL     1     -12.601   9.935  71.406  1.00  0.00    -0.497 C  
HETATM    2  C   UNL     1     -12.427  11.305  70.774  1.00  0.00    -0.471 C  
ENDROOT
BRANCH   2   3
HETATM    3  C   UNL     1     -12.284  11.198  69.262  1.00  0.00    -0.295 C  
BRANCH   3   4
HETATM    4  C   UNL     1     -10.830  10.959  68.860  1.00  0.00    -0.262 C  
BRANCH   4   5
HETATM    5  C   UNL     1     -10.773  10.403  67.444  1.00  0.00    -0.338 C  
BRANCH   5   6
HETATM    6  C   UNL     1      -9.421  10.526  66.809  1.00  0.00    -0.190 C  
HETATM    7  C   UNL     1      -9.255  10.681  65.486  1.00  0.00    -0.228 C  
BRANCH   7   8
HETATM    8  C   UNL     1     -10.378  10.723  64.493  1.00  0.00    -0.401 C  
BRANCH   8   9
HETATM    9  C   UNL     1     -10.464  12.052  63.803  1.00  0.00    -0.469 C  
HETATM   10  C   UNL     1     -11.308  13.033  64.158  1.00  0.00    -0.442 C  
BRANCH  10  11
HETATM   11  C   UNL     1     -12.289  12.883  65.282  1.00  0.00    -0.544 C  
BRANCH  11  12
HETATM   12  C   UNL     1     -12.166  13.976  66.332  1.00  0.00    -0.492 C  
BRANCH  12  13
HETATM   13  C   UNL     1     -10.760  13.957  66.929  1.00  0.00    -0.284 C  
BRANCH  13  14
HETATM   14  C   UNL     1     -10.466  15.268  67.643  1.00  0.00    -0.263 C  
BRANCH  14  15
HETATM   15  C   UNL     1     -11.617  15.671  68.561  1.00  0.00    -0.378 C  
BRANCH  15  16
HETATM   16  C   UNL     1     -11.529  14.912  69.882  1.00  0.00    -0.321 C  
BRANCH  16  17
HETATM   17  C   UNL     1     -12.877  14.857  70.592  1.00  0.00    -0.406 C  
HETATM   18  C   UNL     1     -12.866  15.676  71.860  1.00  0.00    -0.449 C  
HETATM   19  O   UNL     1     -11.918  16.312  72.289  1.00  0.00    -0.511 OA 
HETATM   20  O   UNL     1     -14.057  15.635  72.505  1.00  0.00    -0.558 OA 
ENDBRANCH  16  17
ENDBRANCH  15  16
ENDBRANCH  14  15
ENDBRANCH  13  14
ENDBRANCH  12  13
ENDBRANCH  11  12
ENDBRANCH  10  11
ENDBRANCH   8   9
ENDBRANCH   7   8
ENDBRANCH   5   6
ENDBRANCH   4   5
ENDBRANCH   3   4
ENDBRANCH   2   3
TORSDOF 13
ENDMDL
MODEL       11
REMARK 921   NORMALIZED FREE ENERGY PREDICTED BY IDOCK:   -4.77 KCAL/MOL
REMARK 922        TOTAL FREE ENERGY PREDICTED BY IDOCK:  -10.14 KCAL/MOL
REMARK 923 INTER-LIGAND FREE ENERGY PREDICTED BY IDOCK:   -8.20 KCAL/MOL
REMARK 924 INTRA-LIGAND FREE ENERGY PREDICTED BY IDOCK:   -1.94 KCAL/MOL
REMARK 927      BINDING AFFINITY PREDICTED BY RF-SCORE:    0.00 PKD
ROOT
HETATM    1  C   UNL     1     -12.413   8.392  72.198  1.00  0.00    -0.422 C  
HETATM    2  C   UNL     1     -13.443   9.507  72.213  1.00  0.00    -0.521 C  
ENDROOT
BRANCH   2   3
HETATM    3  C   UNL     1     -12.993  10.681  71.353  1.00  0.00    -0.545 C  
BRANCH   3   4
HETATM    4  C   UNL     1     -11.620  10.420  70.736  1.00  0.00    -0.450 C  
BRANCH   4   5
HETATM    5  C   UNL     1     -11.649  10.770  69.255  1.00  0.00    -0.376 C  
BRANCH   5   6
HETATM    6  C   UNL     1     -10.305  11.145  68.706  1.00  0.00    -0.222 C  
HETATM    7  C   UNL     1     -10.140  11.611  67.458  1.00  0.00    -0.209 C  
BRANCH   7   8
HETATM    8  C   UNL     1     -11.252  11.786  66.466  1.00  0.00    -0.380 C  
BRANCH   8   9
HETATM    9  C   UNL     1     -10.772  12.425  65.197  1.00  0.00    -0.327 C  
HETATM   10  C   UNL     1     -10.858  13.738  64.935  1.00  0.00    -0.398 C  
BRANCH  10  11
HETATM   11  C   UNL     1     -11.480  14.711  65.891  1.00  0.00    -0.338 C  
BRANCH  11  12
HETATM   12  C   UNL     1     -10.464  15.408  66.780  1.00  0.00    -0.299 C  
BRANCH  12  13
HETATM   13  C   UNL     1     -11.142  15.869  68.069  1.00  0.00    -0.334 C  
BRANCH  13  14
HETATM   14  C   UNL     1     -10.827  14.912  69.210  1.00  0.00    -0.272 C  
BRANCH  14  15
HETATM   15  C   UNL     1     -12.102  14.344  69.826  1.00  0.00    -0.386 C  
BRANCH  15  16
HETATM   16  C   UNL     1     -12.801  15.407  70.667  1.00  0.00    -0.484 C  
BRANCH  16  17
HETATM   17  C   UNL     1     -12.134  15.579  72.027  1.00  0.00    -0.502 C  
HETATM   18  C   UNL     1     -12.794  14.721  73.078  1.00  0.00    -0.485 C  
HETATM   19  O   UNL     1     -13.742  13.974  72.896  1.00  0.00    -0.677 OA 
HETATM   20  O   UNL     1     -12.215  14.865  74.295  1.00  0.00    -0.568 OA 
ENDBRANCH  16  17
ENDBRANCH  15  16
ENDBRANCH  14  15
ENDBRANCH  13  14
ENDBRANCH  12  13
ENDBRANCH  11  12
ENDBRANCH  10  11
ENDBRANCH   8   9
ENDBRANCH   7   8
ENDBRANCH   5   6
ENDBRANCH   4   5
ENDBRANCH   3   4
ENDBRANCH   2   3
TORSDOF 13
ENDMDL
MODEL       12
REMARK 921   NORMALIZED FREE ENERGY PREDICTED BY IDOCK:   -4.76 KCAL/MOL
REMARK 922        TOTAL FREE ENERGY PREDICTED BY IDOCK:  -10.12 KCAL/MOL
REMARK 923 INTER-LIGAND FREE ENERGY PREDICTED BY IDOCK:   -7.77 KCAL/MOL
REMARK 924 INTRA-LIGAND FREE ENERGY PREDICTED BY IDOCK:   -2.35 KCAL/MOL
REMARK 927      BINDING AFFINITY PREDICTED BY RF-SCORE:    0.00 PKD
ROOT
HETATM    1  C   UNL     1      -9.294  14.984  66.488  1.00  0.00    -0.309 C  
HETATM    2  C   UNL     1     -10.792  14.809  66.665  1.00  0.00    -0.319 C  
ENDROOT
BRANCH   2   3
HETATM    3  C   UNL     1     -11.484  14.610  65.323  1.00  0.00    -0.361 C  
BRANCH   3   4
HETATM    4  C   UNL     1     -12.756  13.779  65.476  1.00  0.00    -0.530 C  
BRANCH   4   5
HETATM    5  C   UNL     1     -12.618  12.481  64.692  1.00  0.00    -0.507 C  
BRANCH   5   6
HETATM    6  C   UNL     1     -11.578  12.544  63.614  1.00  0.00    -0.580 C  
HETATM    7  C   UNL     1     -10.512  11.729  63.591  1.00  0.00    -0.490 C  
BRANCH   7   8
HETATM    8  C   UNL     1     -10.217  10.692  64.635  1.00  0.00    -0.404 C  
BRANCH   8   9
HETATM    9  C   UNL     1      -9.361  11.238  65.738  1.00  0.00    -0.245 C  
HETATM   10  C   UNL     1      -9.726  11.272  67.029  1.00  0.00    -0.208 C  
BRANCH  10  11
HETATM   11  C   UNL     1     -11.062  10.785  67.501  1.00  0.00    -0.374 C  
BRANCH  11  12
HETATM   12  C   UNL     1     -11.690  11.686  68.552  1.00  0.00    -0.378 C  
BRANCH  12  13
HETATM   13  C   UNL     1     -11.418  11.117  69.943  1.00  0.00    -0.386 C  
BRANCH  13  14
HETATM   14  C   UNL     1     -12.562  11.450  70.889  1.00  0.00    -0.453 C  
BRANCH  14  15
HETATM   15  C   UNL     1     -12.991  10.227  71.695  1.00  0.00    -0.570 C  
BRANCH  15  16
HETATM   16  C   UNL     1     -11.830   9.246  71.823  1.00  0.00    -0.454 C  
BRANCH  16  17
HETATM   17  C   UNL     1     -12.210   7.853  71.332  1.00  0.00    -0.337 C  
HETATM   18  C   UNL     1     -11.199   7.322  70.345  1.00  0.00    -0.276 C  
HETATM   19  O   UNL     1     -10.196   7.905  69.968  1.00  0.00    -0.200 OA 
HETATM   20  O   UNL     1     -11.524   6.086  69.896  1.00  0.00    -0.388 OA 
ENDBRANCH  16  17
ENDBRANCH  15  16
ENDBRANCH  14  15
ENDBRANCH  13  14
ENDBRANCH  12  13
ENDBRANCH  11  12
ENDBRANCH  10  11
ENDBRANCH   8   9
ENDBRANCH   7   8
ENDBRANCH   5   6
ENDBRANCH   4   5
ENDBRANCH   3   4
ENDBRANCH   2   3
TORSDOF 13
ENDMDL
MODEL       13
REMARK 921   NORMALIZED FREE ENERGY PREDICTED BY IDOCK:   -4.76 KCAL/MOL
REMARK 922        TOTAL FREE ENERGY PREDICTED BY IDOCK:  -10.12 KCAL/MOL
REMARK 923 INTER-LIGAND FREE ENERGY PREDICTED BY IDOCK:   -8.74 KCAL/MOL
REMARK 924 INTRA-LIGAND FREE ENERGY PREDICTED BY IDOCK:   -1.37 KCAL/MOL
REMARK 927      BINDING AFFINITY PREDICTED BY RF-SCORE:    0.00 PKD
ROOT
HETATM    1  C   UNL     1     -10.727  12.184  63.615  1.00  0.00    -0.518 C  
HETATM    2  C   UNL     1     -12.211  12.442  63.808  1.00  0.00    -0.626 C  
ENDROOT
BRANCH   2   3
HETATM    3  C   UNL     1     -12.455  13.424  64.946  1.00  0.00    -0.447 C  
BRANCH   3   4
HETATM    4  C   UNL     1     -11.338  13.353  65.985  1.00  0.00    -0.329 C  
BRANCH   4   5
HETATM    5  C   UNL     1     -11.938  13.130  67.367  1.00  0.00    -0.379 C  
BRANCH   5   6
HETATM    6  C   UNL     1     -11.611  11.787  67.948  1.00  0.00    -0.377 C  
HETATM    7  C   UNL     1     -11.684  11.533  69.264  1.00  0.00    -0.397 C  
BRANCH   7   8
HETATM    8  C   UNL     1     -12.067  12.547  70.302  1.00  0.00    -0.373 C  
BRANCH   8   9
HETATM    9  C   UNL     1     -12.804  11.922  71.448  1.00  0.00    -0.411 C  
HETATM   10  C   UNL     1     -13.579  12.602  72.307  1.00  0.00    -0.508 C  
BRANCH  10  11
HETATM   11  C   UNL     1     -13.763  14.087  72.222  1.00  0.00    -0.646 C  
BRANCH  11  12
HETATM   12  C   UNL     1     -12.809  14.860  73.118  1.00  0.00    -0.619 C  
BRANCH  12  13
HETATM   13  C   UNL     1     -12.191  16.015  72.332  1.00  0.00    -0.603 C  
BRANCH  13  14
HETATM   14  C   UNL     1     -12.146  15.687  70.847  1.00  0.00    -0.452 C  
BRANCH  14  15
HETATM   15  C   UNL     1     -10.736  15.846  70.286  1.00  0.00    -0.313 C  
BRANCH  15  16
HETATM   16  C   UNL     1     -10.709  16.950  69.233  1.00  0.00    -0.288 C  
BRANCH  16  17
HETATM   17  C   UNL     1     -10.439  16.395  67.839  1.00  0.00    -0.307 C  
HETATM   18  C   UNL     1     -10.006  17.483  66.887  1.00  0.00    -0.313 C  
HETATM   19  O   UNL     1      -9.878  18.664  67.165  1.00  0.00    -0.295 OA 
HETATM   20  O   UNL     1      -9.764  17.007  65.642  1.00  0.00    -0.543 OA 
ENDBRANCH  16  17
ENDBRANCH  15  16
ENDBRANCH  14  15
ENDBRANCH  13  14
ENDBRANCH  12  13
ENDBRANCH  11  12
ENDBRANCH  10  11
ENDBRANCH   8   9
ENDBRANCH   7   8
ENDBRANCH   5   6
ENDBRANCH   4   5
ENDBRANCH   3   4
ENDBRANCH   2   3
TORSDOF 13
ENDMDL
MODEL       14
REMARK 921   NORMALIZED FREE ENERGY PREDICTED BY IDOCK:   -4.74 KCAL/MOL
REMARK 922        TOTAL FREE ENERGY PREDICTED BY IDOCK:  -10.09 KCAL/MOL
REMARK 923 INTER-LIGAND FREE ENERGY PREDICTED BY IDOCK:   -8.22 KCAL/MOL
REMARK 924 INTRA-LIGAND FREE ENERGY PREDICTED BY IDOCK:   -1.87 KCAL/MOL
REMARK 927      BINDING AFFINITY PREDICTED BY RF-SCORE:    0.00 PKD
ROOT
HETATM    1  C   UNL     1     -11.307  10.226  70.635  1.00  0.00    -0.431 C  
HETATM    2  C   UNL     1     -12.135  11.499  70.589  1.00  0.00    -0.450 C  
ENDROOT
BRANCH   2   3
HETATM    3  C   UNL     1     -13.127  11.551  71.743  1.00  0.00    -0.503 C  
BRANCH   3   4
HETATM    4  C   UNL     1     -13.430  12.992  72.147  1.00  0.00    -0.638 C  
BRANCH   4   5
HETATM    5  C   UNL     1     -12.855  13.946  71.109  1.00  0.00    -0.423 C  
BRANCH   5   6
HETATM    6  C   UNL     1     -12.273  15.193  71.704  1.00  0.00    -0.412 C  
HETATM    7  C   UNL     1     -11.462  16.012  71.015  1.00  0.00    -0.460 C  
BRANCH   7   8
HETATM    8  C   UNL     1     -11.024  15.773  69.600  1.00  0.00    -0.306 C  
BRANCH   8   9
HETATM    9  C   UNL     1      -9.586  15.354  69.525  1.00  0.00    -0.259 C  
HETATM   10  C   UNL     1      -8.594  16.140  69.077  1.00  0.00    -0.251 C  
BRANCH  10  11
HETATM   11  C   UNL     1      -8.834  17.530  68.572  1.00  0.00    -0.282 C  
BRANCH  11  12
HETATM   12  C   UNL     1      -8.801  17.629  67.055  1.00  0.00    -0.256 C  
BRANCH  12  13
HETATM   13  C   UNL     1     -10.219  17.825  66.524  1.00  0.00    -0.358 C  
BRANCH  13  14
HETATM   14  C   UNL     1     -10.593  16.700  65.570  1.00  0.00    -0.273 C  
BRANCH  14  15
HETATM   15  C   UNL     1      -9.576  15.564  65.625  1.00  0.00    -0.328 C  
BRANCH  15  16
HETATM   16  C   UNL     1     -10.283  14.235  65.874  1.00  0.00    -0.338 C  
BRANCH  16  17
HETATM   17  C   UNL     1     -10.671  13.549  64.568  1.00  0.00    -0.431 C  
HETATM   18  C   UNL     1     -12.169  13.527  64.381  1.00  0.00    -0.390 C  
HETATM   19  O   UNL     1     -12.991  13.990  65.155  1.00  0.00    -0.744 OA 
HETATM   20  O   UNL     1     -12.531  12.918  63.227  1.00  0.00    -0.685 OA 
ENDBRANCH  16  17
ENDBRANCH  15  16
ENDBRANCH  14  15
ENDBRANCH  13  14
ENDBRANCH  12  13
ENDBRANCH  11  12
ENDBRANCH  10  11
ENDBRANCH   8   9
ENDBRANCH   7   8
ENDBRANCH   5   6
ENDBRANCH   4   5
ENDBRANCH   3   4
ENDBRANCH   2   3
TORSDOF 13
ENDMDL
MODEL       15
REMARK 921   NORMALIZED FREE ENERGY PREDICTED BY IDOCK:   -4.74 KCAL/MOL
REMARK 922        TOTAL FREE ENERGY PREDICTED BY IDOCK:  -10.09 KCAL/MOL
REMARK 923 INTER-LIGAND FREE ENERGY PREDICTED BY IDOCK:   -7.38 KCAL/MOL
REMARK 924 INTRA-LIGAND FREE ENERGY PREDICTED BY IDOCK:   -2.71 KCAL/MOL
REMARK 927      BINDING AFFINITY PREDICTED BY RF-SCORE:    0.00 PKD
ROOT
HETATM    1  C   UNL     1     -10.175  12.252  63.805  1.00  0.00    -0.427 C  
HETATM    2  C   UNL     1     -11.540  12.825  63.465  1.00  0.00    -0.565 C  
ENDROOT
BRANCH   2   3
HETATM    3  C   UNL     1     -12.524  12.615  64.609  1.00  0.00    -0.538 C  
BRANCH   3   4
HETATM    4  C   UNL     1     -12.624  13.860  65.487  1.00  0.00    -0.560 C  
BRANCH   4   5
HETATM    5  C   UNL     1     -12.402  13.479  66.944  1.00  0.00    -0.289 C  
BRANCH   5   6
HETATM    6  C   UNL     1     -11.759  12.136  67.117  1.00  0.00    -0.372 C  
HETATM    7  C   UNL     1     -10.594  11.971  67.765  1.00  0.00    -0.234 C  
BRANCH   7   8
HETATM    8  C   UNL     1      -9.792  13.090  68.361  1.00  0.00    -0.203 C  
BRANCH   8   9
HETATM    9  C   UNL     1      -8.534  13.348  67.588  1.00  0.00    -0.187 C  
HETATM   10  C   UNL     1      -8.367  14.374  66.739  1.00  0.00    -0.005 C  
BRANCH  10  11
HETATM   11  C   UNL     1      -9.453  15.366  66.452  1.00  0.00    -0.325 C  
BRANCH  11  12
HETATM   12  C   UNL     1      -9.192  16.733  67.063  1.00  0.00    -0.238 C  
BRANCH  12  13
HETATM   13  C   UNL     1     -10.390  17.151  67.913  1.00  0.00    -0.350 C  
BRANCH  13  14
HETATM   14  C   UNL     1     -10.359  16.448  69.262  1.00  0.00    -0.292 C  
BRANCH  14  15
HETATM   15  C   UNL     1     -11.743  15.939  69.656  1.00  0.00    -0.322 C  
BRANCH  15  16
HETATM   16  C   UNL     1     -11.709  15.355  71.064  1.00  0.00    -0.408 C  
BRANCH  16  17
HETATM   17  C   UNL     1     -12.515  14.064  71.159  1.00  0.00    -0.447 C  
HETATM   18  C   UNL     1     -13.300  13.998  72.447  1.00  0.00    -0.518 C  
HETATM   19  O   UNL     1     -13.310  14.850  73.320  1.00  0.00    -0.517 OA 
HETATM   20  O   UNL     1     -14.020  12.855  72.549  1.00  0.00    -0.581 OA 
ENDBRANCH  16  17
ENDBRANCH  15  16
ENDBRANCH  14  15
ENDBRANCH  13  14
ENDBRANCH  12  13
ENDBRANCH  11  12
ENDBRANCH  10  11
ENDBRANCH   8   9
ENDBRANCH   7   8
ENDBRANCH   5   6
ENDBRANCH   4   5
ENDBRANCH   3   4
ENDBRANCH   2   3
TORSDOF 13
ENDMDL
MODEL       16
REMARK 921   NORMALIZED FREE ENERGY PREDICTED BY IDOCK:   -4.74 KCAL/MOL
REMARK 922        TOTAL FREE ENERGY PREDICTED BY IDOCK:  -10.09 KCAL/MOL
REMARK 923 INTER-LIGAND FREE ENERGY PREDICTED BY IDOCK:   -8.29 KCAL/MOL
REMARK 924 INTRA-LIGAND FREE ENERGY PREDICTED BY IDOCK:   -1.79 KCAL/MOL
REMARK 927      BINDING AFFINITY PREDICTED BY RF-SCORE:    0.00 PKD
ROOT
HETATM    1  C   UNL     1     -11.803   7.217  70.802  1.00  0.00    -0.367 C  
HETATM    2  C   UNL     1     -11.627   8.400  71.738  1.00  0.00    -0.372 C  
ENDROOT
BRANCH   2   3
HETATM    3  C   UNL     1     -11.510   9.704  70.959  1.00  0.00    -0.444 C  
BRANCH   3   4
HETATM    4  C   UNL     1     -12.848  10.439  70.908  1.00  0.00    -0.482 C  
BRANCH   4   5
HETATM    5  C   UNL     1     -12.616  11.937  71.053  1.00  0.00    -0.381 C  
BRANCH   5   6
HETATM    6  C   UNL     1     -13.458  12.570  72.119  1.00  0.00    -0.523 C  
HETATM    7  C   UNL     1     -13.281  13.839  72.520  1.00  0.00    -0.599 C  
BRANCH   7   8
HETATM    8  C   UNL     1     -12.223  14.756  71.983  1.00  0.00    -0.408 C  
BRANCH   8   9
HETATM    9  C   UNL     1     -12.672  15.457  70.736  1.00  0.00    -0.516 C  
HETATM   10  C   UNL     1     -11.850  15.834  69.744  1.00  0.00    -0.352 C  
BRANCH  10  11
HETATM   11  C   UNL     1     -10.369  15.613  69.800  1.00  0.00    -0.309 C  
BRANCH  11  12
HETATM   12  C   UNL     1      -9.721  15.551  68.426  1.00  0.00    -0.203 C  
BRANCH  12  13
HETATM   13  C   UNL     1      -9.075  14.182  68.224  1.00  0.00    -0.190 C  
BRANCH  13  14
HETATM   14  C   UNL     1      -9.781  13.417  67.115  1.00  0.00    -0.237 C  
BRANCH  14  15
HETATM   15  C   UNL     1     -10.985  12.647  67.649  1.00  0.00    -0.275 C  
BRANCH  15  16
HETATM   16  C   UNL     1     -12.280  13.276  67.144  1.00  0.00    -0.281 C  
BRANCH  16  17
HETATM   17  C   UNL     1     -12.041  14.157  65.923  1.00  0.00    -0.441 C  
HETATM   18  C   UNL     1     -12.654  13.558  64.681  1.00  0.00    -0.251 C  
HETATM   19  O   UNL     1     -13.268  12.505  64.627  1.00  0.00    -0.848 OA 
HETATM   20  O   UNL     1     -12.448  14.328  63.586  1.00  0.00    -0.816 OA 
ENDBRANCH  16  17
ENDBRANCH  15  16
ENDBRANCH  14  15
ENDBRANCH  13  14
ENDBRANCH  12  13
ENDBRANCH  11  12
ENDBRANCH  10  11
ENDBRANCH   8   9
ENDBRANCH   7   8
ENDBRANCH   5   6
ENDBRANCH   4   5
ENDBRANCH   3   4
ENDBRANCH   2   3
TORSDOF 13
ENDMDL
MODEL       17
REMARK 921   NORMALIZED FREE ENERGY PREDICTED BY IDOCK:   -4.67 KCAL/MOL
REMARK 922        TOTAL FREE ENERGY PREDICTED BY IDOCK:   -9.96 KCAL/MOL
REMARK 923 INTER-LIGAND FREE ENERGY PREDICTED BY IDOCK:   -8.51 KCAL/MOL
REMARK 924 INTRA-LIGAND FREE ENERGY PREDICTED BY IDOCK:   -1.45 KCAL/MOL
REMARK 927      BINDING AFFINITY PREDICTED BY RF-SCORE:    0.00 PKD
ROOT
HETATM    1  C   UNL     1     -12.276  11.888  63.437  1.00  0.00    -0.561 C  
HETATM    2  C   UNL     1     -12.456  12.566  64.784  1.00  0.00    -0.532 C  
ENDROOT
BRANCH   2   3
HETATM    3  C   UNL     1     -11.296  12.250  65.718  1.00  0.00    -0.400 C  
BRANCH   3   4
HETATM    4  C   UNL     1     -11.296  13.176  66.933  1.00  0.00    -0.355 C  
BRANCH   4   5
HETATM    5  C   UNL     1     -11.868  14.532  66.543  1.00  0.00    -0.367 C  
BRANCH   5   6
HETATM    6  C   UNL     1     -10.836  15.483  66.014  1.00  0.00    -0.301 C  
HETATM    7  C   UNL     1     -10.331  16.484  66.752  1.00  0.00    -0.296 C  
BRANCH   7   8
HETATM    8  C   UNL     1     -10.746  16.789  68.161  1.00  0.00    -0.361 C  
BRANCH   8   9
HETATM    9  C   UNL     1      -9.956  15.996  69.160  1.00  0.00    -0.246 C  
HETATM   10  C   UNL     1     -10.460  15.510  70.305  1.00  0.00    -0.282 C  
BRANCH  10  11
HETATM   11  C   UNL     1     -11.881  15.740  70.721  1.00  0.00    -0.438 C  
BRANCH  11  12
HETATM   12  C   UNL     1     -12.034  16.003  72.210  1.00  0.00    -0.633 C  
BRANCH  12  13
HETATM   13  C   UNL     1     -13.439  15.609  72.659  1.00  0.00    -0.655 C  
BRANCH  13  14
HETATM   14  C   UNL     1     -13.983  14.487  71.787  1.00  0.00    -0.556 C  
BRANCH  14  15
HETATM   15  C   UNL     1     -13.647  13.117  72.369  1.00  0.00    -0.667 C  
BRANCH  15  16
HETATM   16  C   UNL     1     -12.831  12.305  71.368  1.00  0.00    -0.373 C  
BRANCH  16  17
HETATM   17  C   UNL     1     -12.975  10.806  71.608  1.00  0.00    -0.581 C  
HETATM   18  C   UNL     1     -11.952  10.021  70.823  1.00  0.00    -0.335 C  
HETATM   19  O   UNL     1     -11.106  10.495  70.082  1.00  0.00    -0.285 OA 
HETATM   20  O   UNL     1     -12.068   8.686  71.022  1.00  0.00    -0.287 OA 
ENDBRANCH  16  17
ENDBRANCH  15  16
ENDBRANCH  14  15
ENDBRANCH  13  14
ENDBRANCH  12  13
ENDBRANCH  11  12
ENDBRANCH  10  11
ENDBRANCH   8   9
ENDBRANCH   7   8
ENDBRANCH   5   6
ENDBRANCH   4   5
ENDBRANCH   3   4
ENDBRANCH   2   3
TORSDOF 13
ENDMDL
MODEL       18
REMARK 921   NORMALIZED FREE ENERGY PREDICTED BY IDOCK:   -4.66 KCAL/MOL
REMARK 922        TOTAL FREE ENERGY PREDICTED BY IDOCK:   -9.95 KCAL/MOL
REMARK 923 INTER-LIGAND FREE ENERGY PREDICTED BY IDOCK:   -8.61 KCAL/MOL
REMARK 924 INTRA-LIGAND FREE ENERGY PREDICTED BY IDOCK:   -1.34 KCAL/MOL
REMARK 927      BINDING AFFINITY PREDICTED BY RF-SCORE:    0.00 PKD
ROOT
HETATM    1  C   UNL     1     -10.492  19.370  66.024  1.00  0.00    -0.596 C  
HETATM    2  C   UNL     1     -10.389  19.765  67.487  1.00  0.00    -0.578 C  
ENDROOT
BRANCH   2   3
HETATM    3  C   UNL     1     -10.226  18.539  68.376  1.00  0.00    -0.409 C  
BRANCH   3   4
HETATM    4  C   UNL     1     -10.328  17.250  67.564  1.00  0.00    -0.346 C  
BRANCH   4   5
HETATM    5  C   UNL     1     -11.131  16.216  68.342  1.00  0.00    -0.359 C  
BRANCH   5   6
HETATM    6  C   UNL     1     -10.341  15.537  69.420  1.00  0.00    -0.258 C  
HETATM    7  C   UNL     1     -10.755  15.490  70.696  1.00  0.00    -0.265 C  
BRANCH   7   8
HETATM    8  C   UNL     1     -12.020  16.121  71.200  1.00  0.00    -0.357 C  
BRANCH   8   9
HETATM    9  C   UNL     1     -12.229  15.861  72.662  1.00  0.00    -0.603 C  
HETATM   10  C   UNL     1     -13.127  14.992  73.152  1.00  0.00    -0.619 C  
BRANCH  10  11
HETATM   11  C   UNL     1     -14.047  14.202  72.271  1.00  0.00    -0.630 C  
BRANCH  11  12
HETATM   12  C   UNL     1     -13.607  12.758  72.090  1.00  0.00    -0.547 C  
BRANCH  12  13
HETATM   13  C   UNL     1     -12.733  12.641  70.843  1.00  0.00    -0.274 C  
BRANCH  13  14
HETATM   14  C   UNL     1     -12.243  11.211  70.666  1.00  0.00    -0.492 C  
BRANCH  14  15
HETATM   15  C   UNL     1     -12.998  10.248  71.578  1.00  0.00    -0.556 C  
BRANCH  15  16
HETATM   16  C   UNL     1     -12.185   8.975  71.788  1.00  0.00    -0.434 C  
BRANCH  16  17
HETATM   17  C   UNL     1     -10.687   9.256  71.795  1.00  0.00    -0.324 C  
HETATM   18  C   UNL     1      -9.967   8.383  72.794  1.00  0.00    -0.215 C  
HETATM   19  O   UNL     1     -10.487   7.550  73.518  1.00  0.00    -0.357 OA 
HETATM   20  O   UNL     1      -8.634   8.622  72.815  1.00  0.00    -0.394 OA 
ENDBRANCH  16  17
ENDBRANCH  15  16
ENDBRANCH  14  15
ENDBRANCH  13  14
ENDBRANCH  12  13
ENDBRANCH  11  12
ENDBRANCH  10  11
ENDBRANCH   8   9
ENDBRANCH   7   8
ENDBRANCH   5   6
ENDBRANCH   4   5
ENDBRANCH   3   4
ENDBRANCH   2   3
TORSDOF 13
ENDMDL
MODEL       19
REMARK 921   NORMALIZED FREE ENERGY PREDICTED BY IDOCK:   -4.63 KCAL/MOL
REMARK 922        TOTAL FREE ENERGY PREDICTED BY IDOCK:   -9.89 KCAL/MOL
REMARK 923 INTER-LIGAND FREE ENERGY PREDICTED BY IDOCK:   -8.09 KCAL/MOL
REMARK 924 INTRA-LIGAND FREE ENERGY PREDICTED BY IDOCK:   -1.80 KCAL/MOL
REMARK 927      BINDING AFFINITY PREDICTED BY RF-SCORE:    0.00 PKD
ROOT
HETATM    1  C   UNL     1      -6.957  18.998  66.961  1.00  0.00    -0.208 C  
HETATM    2  C   UNL     1      -7.566  19.952  67.973  1.00  0.00    -0.332 C  
ENDROOT
BRANCH   2   3
HETATM    3  C   UNL     1      -8.920  20.465  67.500  1.00  0.00    -0.419 C  
BRANCH   3   4
HETATM    4  C   UNL     1      -9.245  19.953  66.098  1.00  0.00    -0.414 C  
BRANCH   4   5
HETATM    5  C   UNL     1     -10.556  19.180  66.125  1.00  0.00    -0.524 C  
BRANCH   5   6
HETATM    6  C   UNL     1     -10.642  18.192  67.249  1.00  0.00    -0.384 C  
HETATM    7  C   UNL     1     -10.261  16.911  67.114  1.00  0.00    -0.297 C  
BRANCH   7   8
HETATM    8  C   UNL     1      -9.739  16.313  65.841  1.00  0.00    -0.354 C  
BRANCH   8   9
HETATM    9  C   UNL     1     -10.820  15.623  65.064  1.00  0.00    -0.468 C  
HETATM   10  C   UNL     1     -11.022  14.296  65.068  1.00  0.00    -0.394 C  
BRANCH  10  11
HETATM   11  C   UNL     1     -10.152  13.352  65.841  1.00  0.00    -0.300 C  
BRANCH  11  12
HETATM   12  C   UNL     1     -10.941  12.394  66.719  1.00  0.00    -0.305 C  
BRANCH  12  13
HETATM   13  C   UNL     1     -11.862  13.186  67.644  1.00  0.00    -0.405 C  
BRANCH  13  14
HETATM   14  C   UNL     1     -11.311  13.199  69.062  1.00  0.00    -0.332 C  
BRANCH  14  15
HETATM   15  C   UNL     1     -11.252  14.617  69.623  1.00  0.00    -0.307 C  
BRANCH  15  16
HETATM   16  C   UNL     1     -12.469  14.887  70.503  1.00  0.00    -0.419 C  
BRANCH  16  17
HETATM   17  C   UNL     1     -12.076  15.524  71.831  1.00  0.00    -0.489 C  
HETATM   18  C   UNL     1     -12.858  14.934  72.978  1.00  0.00    -0.486 C  
HETATM   19  O   UNL     1     -13.704  14.059  72.890  1.00  0.00    -0.677 OA 
HETATM   20  O   UNL     1     -12.523  15.492  74.167  1.00  0.00    -0.580 OA 
ENDBRANCH  16  17
ENDBRANCH  15  16
ENDBRANCH  14  15
ENDBRANCH  13  14
ENDBRANCH  12  13
ENDBRANCH  11  12
ENDBRANCH  10  11
ENDBRANCH   8   9
ENDBRANCH   7   8
ENDBRANCH   5   6
ENDBRANCH   4   5
ENDBRANCH   3   4
ENDBRANCH   2   3
TORSDOF 13
ENDMDL
MODEL       20
REMARK 921   NORMALIZED FREE ENERGY PREDICTED BY IDOCK:   -4.62 KCAL/MOL
REMARK 922        TOTAL FREE ENERGY PREDICTED BY IDOCK:   -9.88 KCAL/MOL
REMARK 923 INTER-LIGAND FREE ENERGY PREDICTED BY IDOCK:   -7.31 KCAL/MOL
REMARK 924 INTRA-LIGAND FREE ENERGY PREDICTED BY IDOCK:   -2.57 KCAL/MOL
REMARK 927      BINDING AFFINITY PREDICTED BY RF-SCORE:    0.00 PKD
ROOT
HETATM    1  C   UNL     1     -10.232  19.752  68.568  1.00  0.00    -0.547 C  
HETATM    2  C   UNL     1     -10.817  19.332  67.230  1.00  0.00    -0.554 C  
ENDROOT
BRANCH   2   3
HETATM    3  C   UNL     1      -9.865  19.662  66.087  1.00  0.00    -0.523 C  
BRANCH   3   4
HETATM    4  C   UNL     1      -8.422  19.753  66.579  1.00  0.00    -0.380 C  
BRANCH   4   5
HETATM    5  C   UNL     1      -7.724  18.415  66.374  1.00  0.00    -0.291 C  
BRANCH   5   6
HETATM    6  C   UNL     1      -7.067  17.890  67.614  1.00  0.00    -0.202 C  
HETATM    7  C   UNL     1      -7.591  16.890  68.340  1.00  0.00    -0.209 C  
BRANCH   7   8
HETATM    8  C   UNL     1      -8.888  16.204  68.024  1.00  0.00    -0.181 C  
BRANCH   8   9
HETATM    9  C   UNL     1      -8.713  15.126  66.997  1.00  0.00    -0.264 C  
HETATM   10  C   UNL     1      -9.421  15.045  65.860  1.00  0.00    -0.313 C  
BRANCH  10  11
HETATM   11  C   UNL     1     -10.499  16.027  65.512  1.00  0.00    -0.426 C  
BRANCH  11  12
HETATM   12  C   UNL     1     -11.572  15.443  64.608  1.00  0.00    -0.311 C  
BRANCH  12  13
HETATM   13  C   UNL     1     -11.457  13.920  64.594  1.00  0.00    -0.386 C  
BRANCH  13  14
HETATM   14  C   UNL     1     -12.408  13.304  65.609  1.00  0.00    -0.521 C  
BRANCH  14  15
HETATM   15  C   UNL     1     -11.744  12.162  66.373  1.00  0.00    -0.394 C  
BRANCH  15  16
HETATM   16  C   UNL     1     -11.909  12.366  67.876  1.00  0.00    -0.370 C  
BRANCH  16  17
HETATM   17  C   UNL     1     -11.973  13.845  68.242  1.00  0.00    -0.392 C  
HETATM   18  C   UNL     1     -12.156  14.037  69.727  1.00  0.00    -0.348 C  
HETATM   19  O   UNL     1     -12.244  13.146  70.556  1.00  0.00    -0.357 OA 
HETATM   20  O   UNL     1     -12.217  15.347  70.070  1.00  0.00    -0.345 OA 
ENDBRANCH  16  17
ENDBRANCH  15  16
ENDBRANCH  14  15
ENDBRANCH  13  14
ENDBRANCH  12  13
ENDBRANCH  11  12
ENDBRANCH  10  11
ENDBRANCH   8   9
ENDBRANCH   7   8
ENDBRANCH   5   6
ENDBRANCH   4   5
ENDBRANCH   3   4
ENDBRANCH   2   3
TORSDOF 13
ENDMDL
MODEL       21
REMARK 921   NORMALIZED FREE ENERGY PREDICTED BY IDOCK:   -4.62 KCAL/MOL
REMARK 922        TOTAL FREE ENERGY PREDICTED BY IDOCK:   -9.88 KCAL/MOL
REMARK 923 INTER-LIGAND FREE ENERGY PREDICTED BY IDOCK:   -7.61 KCAL/MOL
REMARK 924 INTRA-LIGAND FREE ENERGY PREDICTED BY IDOCK:   -2.27 KCAL/MOL
REMARK 927      BINDING AFFINITY PREDICTED BY RF-SCORE:    0.00 PKD
ROOT
HETATM    1  C   UNL     1      -9.814  16.900  66.074  1.00  0.00    -0.281 C  
HETATM    2  C   UNL     1      -8.981  15.641  66.233  1.00  0.00    -0.377 C  
ENDROOT
BRANCH   2   3
HETATM    3  C   UNL     1      -9.866  14.418  66.438  1.00  0.00    -0.309 C  
BRANCH   3   4
HETATM    4  C   UNL     1     -11.281  14.824  66.845  1.00  0.00    -0.347 C  
BRANCH   4   5
HETATM    5  C   UNL     1     -12.296  14.021  66.042  1.00  0.00    -0.504 C  
BRANCH   5   6
HETATM    6  C   UNL     1     -12.253  14.309  64.571  1.00  0.00    -0.476 C  
HETATM    7  C   UNL     1     -12.075  13.347  63.652  1.00  0.00    -0.513 C  
BRANCH   7   8
HETATM    8  C   UNL     1     -11.873  11.895  63.975  1.00  0.00    -0.458 C  
BRANCH   8   9
HETATM    9  C   UNL     1     -10.611  11.360  63.368  1.00  0.00    -0.435 C  
HETATM   10  C   UNL     1      -9.579  10.875  64.077  1.00  0.00    -0.321 C  
BRANCH  10  11
HETATM   11  C   UNL     1      -9.575  10.848  65.575  1.00  0.00    -0.266 C  
BRANCH  11  12
HETATM   12  C   UNL     1      -9.823   9.462  66.149  1.00  0.00    -0.356 C  
BRANCH  12  13
HETATM   13  C   UNL     1     -10.615   9.580  67.449  1.00  0.00    -0.337 C  
BRANCH  13  14
HETATM   14  C   UNL     1     -11.282  10.944  67.546  1.00  0.00    -0.364 C  
BRANCH  14  15
HETATM   15  C   UNL     1     -11.009  11.602  68.896  1.00  0.00    -0.282 C  
BRANCH  15  16
HETATM   16  C   UNL     1     -11.013  10.553  70.004  1.00  0.00    -0.351 C  
BRANCH  16  17
HETATM   17  C   UNL     1     -12.396  10.392  70.625  1.00  0.00    -0.438 C  
HETATM   18  C   UNL     1     -12.358   9.479  71.826  1.00  0.00    -0.394 C  
HETATM   19  O   UNL     1     -11.366   8.925  72.269  1.00  0.00    -0.345 OA 
HETATM   20  O   UNL     1     -13.581   9.323  72.388  1.00  0.00    -0.458 OA 
ENDBRANCH  16  17
ENDBRANCH  15  16
ENDBRANCH  14  15
ENDBRANCH  13  14
ENDBRANCH  12  13
ENDBRANCH  11  12
ENDBRANCH  10  11
ENDBRANCH   8   9
ENDBRANCH   7   8
ENDBRANCH   5   6
ENDBRANCH   4   5
ENDBRANCH   3   4
ENDBRANCH   2   3
TORSDOF 13
ENDMDL
MODEL       22
REMARK 921   NORMALIZED FREE ENERGY PREDICTED BY IDOCK:   -4.62 KCAL/MOL
REMARK 922        TOTAL FREE ENERGY PREDICTED BY IDOCK:   -9.87 KCAL/MOL
REMARK 923 INTER-LIGAND FREE ENERGY PREDICTED BY IDOCK:   -7.89 KCAL/MOL
REMARK 924 INTRA-LIGAND FREE ENERGY PREDICTED BY IDOCK:   -1.99 KCAL/MOL
REMARK 927      BINDING AFFINITY PREDICTED BY RF-SCORE:    0.00 PKD
ROOT
HETATM    1  C   UNL     1     -12.214  14.387  71.241  1.00  0.00    -0.429 C  
HETATM    2  C   UNL     1     -13.308  13.993  72.218  1.00  0.00    -0.574 C  
ENDROOT
BRANCH   2   3
HETATM    3  C   UNL     1     -13.625  12.507  72.118  1.00  0.00    -0.458 C  
BRANCH   3   4
HETATM    4  C   UNL     1     -12.666  11.801  71.162  1.00  0.00    -0.405 C  
BRANCH   4   5
HETATM    5  C   UNL     1     -13.092  10.349  70.986  1.00  0.00    -0.450 C  
BRANCH   5   6
HETATM    6  C   UNL     1     -12.854   9.507  72.203  1.00  0.00    -0.471 C  
HETATM    7  C   UNL     1     -12.618   8.188  72.133  1.00  0.00    -0.349 C  
BRANCH   7   8
HETATM    8  C   UNL     1     -12.589   7.400  70.856  1.00  0.00    -0.187 C  
BRANCH   8   9
HETATM    9  C   UNL     1     -11.292   6.670  70.680  1.00  0.00    -0.401 C  
HETATM   10  C   UNL     1     -10.202   7.196  70.100  1.00  0.00    -0.204 C  
BRANCH  10  11
HETATM   11  C   UNL     1     -10.183   8.584  69.534  1.00  0.00    -0.206 C  
BRANCH  11  12
HETATM   12  C   UNL     1     -10.506   8.630  68.050  1.00  0.00    -0.254 C  
BRANCH  12  13
HETATM   13  C   UNL     1     -10.973  10.033  67.670  1.00  0.00    -0.297 C  
BRANCH  13  14
HETATM   14  C   UNL     1     -10.299  11.077  68.548  1.00  0.00    -0.204 C  
BRANCH  14  15
HETATM   15  C   UNL     1     -10.539  12.488  68.019  1.00  0.00    -0.237 C  
BRANCH  15  16
HETATM   16  C   UNL     1     -11.759  12.508  67.104  1.00  0.00    -0.425 C  
BRANCH  16  17
HETATM   17  C   UNL     1     -11.815  13.779  66.264  1.00  0.00    -0.426 C  
HETATM   18  C   UNL     1     -12.656  13.585  65.027  1.00  0.00    -0.391 C  
HETATM   19  O   UNL     1     -13.232  12.558  64.709  1.00  0.00    -0.839 OA 
HETATM   20  O   UNL     1     -12.713  14.706  64.266  1.00  0.00    -0.679 OA 
ENDBRANCH  16  17
ENDBRANCH  15  16
ENDBRANCH  14  15
ENDBRANCH  13  14
ENDBRANCH  12  13
ENDBRANCH  11  12
ENDBRANCH  10  11
ENDBRANCH   8   9
ENDBRANCH   7   8
ENDBRANCH   5   6
ENDBRANCH   4   5
ENDBRANCH   3   4
ENDBRANCH   2   3
TORSDOF 13
ENDMDL
MODEL       23
REMARK 921   NORMALIZED FREE ENERGY PREDICTED BY IDOCK:   -4.60 KCAL/MOL
REMARK 922        TOTAL FREE ENERGY PREDICTED BY IDOCK:   -9.85 KCAL/MOL
REMARK 923 INTER-LIGAND FREE ENERGY PREDICTED BY IDOCK:   -8.26 KCAL/MOL
REMARK 924 INTRA-LIGAND FREE ENERGY PREDICTED BY IDOCK:   -1.59 KCAL/MOL
REMARK 927      BINDING AFFINITY PREDICTED BY RF-SCORE:    0.00 PKD
ROOT
HETATM    1  C   UNL     1      -9.927   9.690  66.274  1.00  0.00    -0.335 C  
HETATM    2  C   UNL     1     -10.449   9.805  67.695  1.00  0.00    -0.305 C  
ENDROOT
BRANCH   2   3
HETATM    3  C   UNL     1      -9.974   8.638  68.551  1.00  0.00    -0.201 C  
BRANCH   3   4
HETATM    4  C   UNL     1     -10.372   8.827  70.013  1.00  0.00    -0.213 C  
BRANCH   4   5
HETATM    5  C   UNL     1     -11.290  10.035  70.142  1.00  0.00    -0.357 C  
BRANCH   5   6
HETATM    6  C   UNL     1     -12.399   9.837  71.131  1.00  0.00    -0.451 C  
HETATM    7  C   UNL     1     -13.046  10.864  71.705  1.00  0.00    -0.538 C  
BRANCH   7   8
HETATM    8  C   UNL     1     -12.730  12.309  71.455  1.00  0.00    -0.351 C  
BRANCH   8   9
HETATM    9  C   UNL     1     -13.404  13.207  72.448  1.00  0.00    -0.591 C  
HETATM   10  C   UNL     1     -13.792  14.465  72.186  1.00  0.00    -0.572 C  
BRANCH  10  11
HETATM   11  C   UNL     1     -13.558  15.119  70.858  1.00  0.00    -0.397 C  
BRANCH  11  12
HETATM   12  C   UNL     1     -12.142  15.645  70.691  1.00  0.00    -0.443 C  
BRANCH  12  13
HETATM   13  C   UNL     1     -11.663  15.385  69.264  1.00  0.00    -0.367 C  
BRANCH  13  14
HETATM   14  C   UNL     1     -11.130  13.966  69.130  1.00  0.00    -0.284 C  
BRANCH  14  15
HETATM   15  C   UNL     1     -11.906  13.178  68.078  1.00  0.00    -0.398 C  
BRANCH  15  16
HETATM   16  C   UNL     1     -11.888  13.918  66.745  1.00  0.00    -0.452 C  
BRANCH  16  17
HETATM   17  C   UNL     1     -11.436  13.014  65.603  1.00  0.00    -0.365 C  
HETATM   18  C   UNL     1     -11.910  13.534  64.268  1.00  0.00    -0.428 C  
HETATM   19  O   UNL     1     -12.570  14.544  64.089  1.00  0.00    -0.730 OA 
HETATM   20  O   UNL     1     -11.519  12.739  63.242  1.00  0.00    -0.476 OA 
ENDBRANCH  16  17
ENDBRANCH  15  16
ENDBRANCH  14  15
ENDBRANCH  13  14
ENDBRANCH  12  13
ENDBRANCH  11  12
ENDBRANCH  10  11
ENDBRANCH   8   9
ENDBRANCH   7   8
ENDBRANCH   5   6
ENDBRANCH   4   5
ENDBRANCH   3   4
ENDBRANCH   2   3
TORSDOF 13
ENDMDL
MODEL       24
REMARK 921   NORMALIZED FREE ENERGY PREDICTED BY IDOCK:   -4.60 KCAL/MOL
REMARK 922        TOTAL FREE ENERGY PREDICTED BY IDOCK:   -9.84 KCAL/MOL
REMARK 923 INTER-LIGAND FREE ENERGY PREDICTED BY IDOCK:   -7.76 KCAL/MOL
REMARK 924 INTRA-LIGAND FREE ENERGY PREDICTED BY IDOCK:   -2.09 KCAL/MOL
REMARK 927      BINDING AFFINITY PREDICTED BY RF-SCORE:    0.00 PKD
ROOT
HETATM    1  C   UNL     1      -7.615  19.261  68.891  1.00  0.00    -0.384 C  
HETATM    2  C   UNL     1      -8.496  18.411  67.993  1.00  0.00    -0.291 C  
ENDROOT
BRANCH   2   3
HETATM    3  C   UNL     1      -9.212  17.329  68.790  1.00  0.00    -0.238 C  
BRANCH   3   4
HETATM    4  C   UNL     1     -10.697  17.275  68.439  1.00  0.00    -0.332 C  
BRANCH   4   5
HETATM    5  C   UNL     1     -11.328  16.039  69.065  1.00  0.00    -0.363 C  
BRANCH   5   6
HETATM    6  C   UNL     1     -11.221  16.007  70.559  1.00  0.00    -0.397 C  
HETATM    7  C   UNL     1     -11.906  15.134  71.314  1.00  0.00    -0.403 C  
BRANCH   7   8
HETATM    8  C   UNL     1     -12.866  14.118  70.770  1.00  0.00    -0.378 C  
BRANCH   8   9
HETATM    9  C   UNL     1     -12.551  12.735  71.258  1.00  0.00    -0.347 C  
HETATM   10  C   UNL     1     -12.097  11.744  70.475  1.00  0.00    -0.439 C  
BRANCH  10  11
HETATM   11  C   UNL     1     -11.884  11.917  69.001  1.00  0.00    -0.368 C  
BRANCH  11  12
HETATM   12  C   UNL     1     -10.447  11.668  68.572  1.00  0.00    -0.236 C  
BRANCH  12  13
HETATM   13  C   UNL     1      -9.730  13.003  68.382  1.00  0.00    -0.192 C  
BRANCH  13  14
HETATM   14  C   UNL     1      -9.420  13.238  66.911  1.00  0.00    -0.249 C  
BRANCH  14  15
HETATM   15  C   UNL     1      -8.729  14.582  66.697  1.00  0.00    -0.162 C  
BRANCH  15  16
HETATM   16  C   UNL     1      -9.544  15.448  65.741  1.00  0.00    -0.368 C  
BRANCH  16  17
HETATM   17  C   UNL     1     -10.728  14.685  65.158  1.00  0.00    -0.430 C  
HETATM   18  C   UNL     1     -11.624  15.592  64.350  1.00  0.00    -0.258 C  
HETATM   19  O   UNL     1     -11.451  16.785  64.166  1.00  0.00    -1.171 OA 
HETATM   20  O   UNL     1     -12.684  14.930  63.827  1.00  0.00    -0.754 OA 
ENDBRANCH  16  17
ENDBRANCH  15  16
ENDBRANCH  14  15
ENDBRANCH  13  14
ENDBRANCH  12  13
ENDBRANCH  11  12
ENDBRANCH  10  11
ENDBRANCH   8   9
ENDBRANCH   7   8
ENDBRANCH   5   6
ENDBRANCH   4   5
ENDBRANCH   3   4
ENDBRANCH   2   3
TORSDOF 13
ENDMDL
MODEL       25
REMARK 921   NORMALIZED FREE ENERGY PREDICTED BY IDOCK:   -4.60 KCAL/MOL
REMARK 922        TOTAL FREE ENERGY PREDICTED BY IDOCK:   -9.84 KCAL/MOL
REMARK 923 INTER-LIGAND FREE ENERGY PREDICTED BY IDOCK:   -8.19 KCAL/MOL
REMARK 924 INTRA-LIGAND FREE ENERGY PREDICTED BY IDOCK:   -1.65 KCAL/MOL
REMARK 927      BINDING AFFINITY PREDICTED BY RF-SCORE:    0.00 PKD
ROOT
HETATM    1  C   UNL     1     -13.089   8.076  71.610  1.00  0.00    -0.354 C  
HETATM    2  C   UNL     1     -11.684   8.606  71.385  1.00  0.00    -0.355 C  
ENDROOT
BRANCH   2   3
HETATM    3  C   UNL     1     -11.696  10.111  71.149  1.00  0.00    -0.453 C  
BRANCH   3   4
HETATM    4  C   UNL     1     -12.940  10.755  71.758  1.00  0.00    -0.568 C  
BRANCH   4   5
HETATM    5  C   UNL     1     -13.002  12.224  71.362  1.00  0.00    -0.354 C  
BRANCH   5   6
HETATM    6  C   UNL     1     -13.611  13.099  72.416  1.00  0.00    -0.667 C  
HETATM    7  C   UNL     1     -13.102  14.298  72.741  1.00  0.00    -0.589 C  
BRANCH   7   8
HETATM    8  C   UNL     1     -11.869  14.889  72.124  1.00  0.00    -0.394 C  
BRANCH   8   9
HETATM    9  C   UNL     1     -12.201  15.805  70.984  1.00  0.00    -0.466 C  
HETATM   10  C   UNL     1     -11.876  15.563  69.704  1.00  0.00    -0.384 C  
BRANCH  10  11
HETATM   11  C   UNL     1     -11.110  14.345  69.284  1.00  0.00    -0.300 C  
BRANCH  11  12
HETATM   12  C   UNL     1     -11.884  13.452  68.328  1.00  0.00    -0.393 C  
BRANCH  12  13
HETATM   13  C   UNL     1     -11.654  13.918  66.892  1.00  0.00    -0.400 C  
BRANCH  13  14
HETATM   14  C   UNL     1     -10.170  13.909  66.559  1.00  0.00    -0.280 C  
BRANCH  14  15
HETATM   15  C   UNL     1      -9.784  15.117  65.709  1.00  0.00    -0.379 C  
BRANCH  15  16
HETATM   16  C   UNL     1     -10.656  16.316  66.069  1.00  0.00    -0.288 C  
BRANCH  16  17
HETATM   17  C   UNL     1      -9.845  17.427  66.725  1.00  0.00    -0.297 C  
HETATM   18  C   UNL     1     -10.204  18.779  66.159  1.00  0.00    -0.421 C  
HETATM   19  O   UNL     1     -11.031  18.990  65.287  1.00  0.00    -0.511 OA 
HETATM   20  O   UNL     1      -9.489  19.779  66.729  1.00  0.00    -0.337 OA 
ENDBRANCH  16  17
ENDBRANCH  15  16
ENDBRANCH  14  15
ENDBRANCH  13  14
ENDBRANCH  12  13
ENDBRANCH  11  12
ENDBRANCH  10  11
ENDBRANCH   8   9
ENDBRANCH   7   8
ENDBRANCH   5   6
ENDBRANCH   4   5
ENDBRANCH   3   4
ENDBRANCH   2   3
TORSDOF 13
ENDMDL
MODEL       26
REMARK 921   NORMALIZED FREE ENERGY PREDICTED BY IDOCK:   -4.60 KCAL/MOL
REMARK 922        TOTAL FREE ENERGY PREDICTED BY IDOCK:   -9.83 KCAL/MOL
REMARK 923 INTER-LIGAND FREE ENERGY PREDICTED BY IDOCK:   -7.85 KCAL/MOL
REMARK 924 INTRA-LIGAND FREE ENERGY PREDICTED BY IDOCK:   -1.98 KCAL/MOL
REMARK 927      BINDING AFFINITY PREDICTED BY RF-SCORE:    0.00 PKD
ROOT
HETATM    1  C   UNL     1     -10.489   5.441  66.623  1.00  0.00    -0.356 C  
HETATM    2  C   UNL     1     -10.164   6.907  66.846  1.00  0.00    -0.310 C  
ENDROOT
BRANCH   2   3
HETATM    3  C   UNL     1     -10.628   7.370  68.221  1.00  0.00    -0.204 C  
BRANCH   3   4
HETATM    4  C   UNL     1      -9.547   7.137  69.275  1.00  0.00    -0.155 C  
BRANCH   4   5
HETATM    5  C   UNL     1     -10.192   6.980  70.645  1.00  0.00    -0.205 C  
BRANCH   5   6
HETATM    6  C   UNL     1     -11.612   6.503  70.583  1.00  0.00    -0.442 C  
HETATM    7  C   UNL     1     -12.612   7.131  71.221  1.00  0.00    -0.421 C  
BRANCH   7   8
HETATM    8  C   UNL     1     -12.436   8.348  72.080  1.00  0.00    -0.407 C  
BRANCH   8   9
HETATM    9  C   UNL     1     -13.105   9.552  71.486  1.00  0.00    -0.470 C  
HETATM   10  C   UNL     1     -12.477  10.472  70.738  1.00  0.00    -0.472 C  
BRANCH  10  11
HETATM   11  C   UNL     1     -11.010  10.401  70.439  1.00  0.00    -0.320 C  
BRANCH  11  12
HETATM   12  C   UNL     1     -10.642  11.017  69.099  1.00  0.00    -0.253 C  
BRANCH  12  13
HETATM   13  C   UNL     1     -11.859  11.728  68.510  1.00  0.00    -0.365 C  
BRANCH  13  14
HETATM   14  C   UNL     1     -11.581  12.168  67.080  1.00  0.00    -0.405 C  
BRANCH  14  15
HETATM   15  C   UNL     1     -10.579  11.241  66.398  1.00  0.00    -0.316 C  
BRANCH  15  16
HETATM   16  C   UNL     1     -10.655  11.405  64.883  1.00  0.00    -0.368 C  
BRANCH  16  17
HETATM   17  C   UNL     1     -11.050  12.823  64.488  1.00  0.00    -0.365 C  
HETATM   18  C   UNL     1     -12.279  12.830  63.612  1.00  0.00    -0.512 C  
HETATM   19  O   UNL     1     -12.900  11.845  63.248  1.00  0.00    -0.702 OA 
HETATM   20  O   UNL     1     -12.642  14.083  63.249  1.00  0.00    -0.801 OA 
ENDBRANCH  16  17
ENDBRANCH  15  16
ENDBRANCH  14  15
ENDBRANCH  13  14
ENDBRANCH  12  13
ENDBRANCH  11  12
ENDBRANCH  10  11
ENDBRANCH   8   9
ENDBRANCH   7   8
ENDBRANCH   5   6
ENDBRANCH   4   5
ENDBRANCH   3   4
ENDBRANCH   2   3
TORSDOF 13
ENDMDL
MODEL       27
REMARK 921   NORMALIZED FREE ENERGY PREDICTED BY IDOCK:   -4.58 KCAL/MOL
REMARK 922        TOTAL FREE ENERGY PREDICTED BY IDOCK:   -9.80 KCAL/MOL
REMARK 923 INTER-LIGAND FREE ENERGY PREDICTED BY IDOCK:   -8.57 KCAL/MOL
REMARK 924 INTRA-LIGAND FREE ENERGY PREDICTED BY IDOCK:   -1.23 KCAL/MOL
REMARK 927      BINDING AFFINITY PREDICTED BY RF-SCORE:    0.00 PKD
ROOT
HETATM    1  C   UNL     1     -12.467  15.432  74.207  1.00  0.00    -0.761 C  
HETATM    2  C   UNL     1     -13.015  15.816  72.844  1.00  0.00    -0.600 C  
ENDROOT
BRANCH   2   3
HETATM    3  C   UNL     1     -14.034  14.796  72.354  1.00  0.00    -0.575 C  
BRANCH   3   4
HETATM    4  C   UNL     1     -13.421  13.399  72.270  1.00  0.00    -0.683 C  
BRANCH   4   5
HETATM    5  C   UNL     1     -12.564  13.290  71.016  1.00  0.00    -0.408 C  
BRANCH   5   6
HETATM    6  C   UNL     1     -12.154  11.884  70.697  1.00  0.00    -0.389 C  
HETATM    7  C   UNL     1     -11.848  11.486  69.452  1.00  0.00    -0.417 C  
BRANCH   7   8
HETATM    8  C   UNL     1     -11.904  12.373  68.243  1.00  0.00    -0.364 C  
BRANCH   8   9
HETATM    9  C   UNL     1     -10.994  11.890  67.154  1.00  0.00    -0.319 C  
HETATM   10  C   UNL     1     -11.227  12.063  65.843  1.00  0.00    -0.385 C  
BRANCH  10  11
HETATM   11  C   UNL     1     -12.459  12.744  65.329  1.00  0.00    -0.528 C  
BRANCH  11  12
HETATM   12  C   UNL     1     -12.469  14.241  65.590  1.00  0.00    -0.432 C  
BRANCH  12  13
HETATM   13  C   UNL     1     -11.528  14.939  64.611  1.00  0.00    -0.380 C  
BRANCH  13  14
HETATM   14  C   UNL     1     -10.518  15.796  65.359  1.00  0.00    -0.438 C  
BRANCH  14  15
HETATM   15  C   UNL     1     -10.589  15.554  66.864  1.00  0.00    -0.307 C  
BRANCH  15  16
HETATM   16  C   UNL     1     -10.589  16.883  67.613  1.00  0.00    -0.325 C  
BRANCH  16  17
HETATM   17  C   UNL     1     -10.346  18.060  66.674  1.00  0.00    -0.375 C  
HETATM   18  C   UNL     1      -8.977  18.659  66.884  1.00  0.00    -0.294 C  
HETATM   19  O   UNL     1      -8.147  18.275  67.692  1.00  0.00    -0.240 OA 
HETATM   20  O   UNL     1      -8.746  19.709  66.060  1.00  0.00    -0.351 OA 
ENDBRANCH  16  17
ENDBRANCH  15  16
ENDBRANCH  14  15
ENDBRANCH  13  14
ENDBRANCH  12  13
ENDBRANCH  11  12
ENDBRANCH  10  11
ENDBRANCH   8   9
ENDBRANCH   7   8
ENDBRANCH   5   6
ENDBRANCH   4   5
ENDBRANCH   3   4
ENDBRANCH   2   3
TORSDOF 13
ENDMDL
MODEL       28
REMARK 921   NORMALIZED FREE ENERGY PREDICTED BY IDOCK:   -4.57 KCAL/MOL
REMARK 922        TOTAL FREE ENERGY PREDICTED BY IDOCK:   -9.79 KCAL/MOL
REMARK 923 INTER-LIGAND FREE ENERGY PREDICTED BY IDOCK:   -8.31 KCAL/MOL
REMARK 924 INTRA-LIGAND FREE ENERGY PREDICTED BY IDOCK:   -1.48 KCAL/MOL
REMARK 927      BINDING AFFINITY PREDICTED BY RF-SCORE:    0.00 PKD
ROOT
HETATM    1  C   UNL     1     -12.383  12.570  63.617  1.00  0.00    -0.618 C  
HETATM    2  C   UNL     1     -10.891  12.703  63.866  1.00  0.00    -0.468 C  
ENDROOT
BRANCH   2   3
HETATM    3  C   UNL     1     -10.599  12.915  65.346  1.00  0.00    -0.308 C  
BRANCH   3   4
HETATM    4  C   UNL     1     -11.888  13.106  66.142  1.00  0.00    -0.453 C  
BRANCH   4   5
HETATM    5  C   UNL     1     -11.734  12.487  67.525  1.00  0.00    -0.439 C  
BRANCH   5   6
HETATM    6  C   UNL     1     -11.370  11.034  67.489  1.00  0.00    -0.332 C  
HETATM    7  C   UNL     1     -11.024  10.349  68.591  1.00  0.00    -0.288 C  
BRANCH   7   8
HETATM    8  C   UNL     1     -10.934  10.946  69.964  1.00  0.00    -0.221 C  
BRANCH   8   9
HETATM    9  C   UNL     1     -12.048  10.476  70.851  1.00  0.00    -0.487 C  
HETATM   10  C   UNL     1     -12.905  11.294  71.483  1.00  0.00    -0.519 C  
BRANCH  10  11
HETATM   11  C   UNL     1     -12.813  12.786  71.385  1.00  0.00    -0.371 C  
BRANCH  11  12
HETATM   12  C   UNL     1     -13.546  13.505  72.506  1.00  0.00    -0.674 C  
BRANCH  12  13
HETATM   13  C   UNL     1     -13.743  14.972  72.131  1.00  0.00    -0.559 C  
BRANCH  13  14
HETATM   14  C   UNL     1     -12.972  15.308  70.864  1.00  0.00    -0.522 C  
BRANCH  14  15
HETATM   15  C   UNL     1     -11.509  15.619  71.168  1.00  0.00    -0.463 C  
BRANCH  15  16
HETATM   16  C   UNL     1     -10.646  15.349  69.940  1.00  0.00    -0.315 C  
BRANCH  16  17
HETATM   17  C   UNL     1     -11.181  16.064  68.705  1.00  0.00    -0.366 C  
HETATM   18  C   UNL     1     -10.273  17.194  68.285  1.00  0.00    -0.334 C  
HETATM   19  O   UNL     1      -9.236  17.519  68.840  1.00  0.00    -0.245 OA 
HETATM   20  O   UNL     1     -10.736  17.843  67.189  1.00  0.00    -0.331 OA 
ENDBRANCH  16  17
ENDBRANCH  15  16
ENDBRANCH  14  15
ENDBRANCH  13  14
ENDBRANCH  12  13
ENDBRANCH  11  12
ENDBRANCH  10  11
ENDBRANCH   8   9
ENDBRANCH   7   8
ENDBRANCH   5   6
ENDBRANCH   4   5
ENDBRANCH   3   4
ENDBRANCH   2   3
TORSDOF 13
ENDMDL
MODEL       29
REMARK 921   NORMALIZED FREE ENERGY PREDICTED BY IDOCK:   -4.57 KCAL/MOL
REMARK 922        TOTAL FREE ENERGY PREDICTED BY IDOCK:   -9.78 KCAL/MOL
REMARK 923 INTER-LIGAND FREE ENERGY PREDICTED BY IDOCK:   -7.91 KCAL/MOL
REMARK 924 INTRA-LIGAND FREE ENERGY PREDICTED BY IDOCK:   -1.87 KCAL/MOL
REMARK 927      BINDING AFFINITY PREDICTED BY RF-SCORE:    0.00 PKD
ROOT
HETATM    1  C   UNL     1     -10.440   8.409  68.665  1.00  0.00    -0.197 C  
HETATM    2  C   UNL     1     -10.562   6.903  68.512  1.00  0.00    -0.247 C  
ENDROOT
BRANCH   2   3
HETATM    3  C   UNL     1     -11.391   6.301  69.640  1.00  0.00    -0.492 C  
BRANCH   3   4
HETATM    4  C   UNL     1     -10.761   6.588  71.001  1.00  0.00    -0.289 C  
BRANCH   4   5
HETATM    5  C   UNL     1     -11.852   6.900  72.016  1.00  0.00    -0.345 C  
BRANCH   5   6
HETATM    6  C   UNL     1     -13.200   7.111  71.394  1.00  0.00    -0.391 C  
HETATM    7  C   UNL     1     -13.853   8.282  71.467  1.00  0.00    -0.382 C  
BRANCH   7   8
HETATM    8  C   UNL     1     -13.340   9.493  72.188  1.00  0.00    -0.545 C  
BRANCH   8   9
HETATM    9  C   UNL     1     -12.620  10.429  71.264  1.00  0.00    -0.525 C  
HETATM   10  C   UNL     1     -12.646  11.766  71.373  1.00  0.00    -0.367 C  
BRANCH  10  11
HETATM   11  C   UNL     1     -13.438  12.471  72.432  1.00  0.00    -0.372 C  
BRANCH  11  12
HETATM   12  C   UNL     1     -13.655  13.946  72.135  1.00  0.00    -0.599 C  
BRANCH  12  13
HETATM   13  C   UNL     1     -12.588  14.775  72.847  1.00  0.00    -0.482 C  
BRANCH  13  14
HETATM   14  C   UNL     1     -11.851  15.663  71.855  1.00  0.00    -0.536 C  
BRANCH  14  15
HETATM   15  C   UNL     1     -12.334  15.421  70.427  1.00  0.00    -0.443 C  
BRANCH  15  16
HETATM   16  C   UNL     1     -11.274  14.665  69.633  1.00  0.00    -0.307 C  
BRANCH  16  17
HETATM   17  C   UNL     1     -11.884  13.897  68.465  1.00  0.00    -0.401 C  
HETATM   18  C   UNL     1     -11.142  12.608  68.206  1.00  0.00    -0.261 C  
HETATM   19  O   UNL     1     -10.175  12.204  68.830  1.00  0.00    -0.201 OA 
HETATM   20  O   UNL     1     -11.670  11.914  67.169  1.00  0.00    -0.528 OA 
ENDBRANCH  16  17
ENDBRANCH  15  16
ENDBRANCH  14  15
ENDBRANCH  13  14
ENDBRANCH  12  13
ENDBRANCH  11  12
ENDBRANCH  10  11
ENDBRANCH   8   9
ENDBRANCH   7   8
ENDBRANCH   5   6
ENDBRANCH   4   5
ENDBRANCH   3   4
ENDBRANCH   2   3
TORSDOF 13
ENDMDL
MODEL       30
REMARK 921   NORMALIZED FREE ENERGY PREDICTED BY IDOCK:   -4.57 KCAL/MOL
REMARK 922        TOTAL FREE ENERGY PREDICTED BY IDOCK:   -9.78 KCAL/MOL
REMARK 923 INTER-LIGAND FREE ENERGY PREDICTED BY IDOCK:   -7.59 KCAL/MOL
REMARK 924 INTRA-LIGAND FREE ENERGY PREDICTED BY IDOCK:   -2.19 KCAL/MOL
REMARK 927      BINDING AFFINITY PREDICTED BY RF-SCORE:    0.00 PKD
ROOT
HETATM    1  C   UNL     1     -12.370  15.359  73.521  1.00  0.00    -0.659 C  
HETATM    2  C   UNL     1     -12.189  15.988  72.150  1.00  0.00    -0.597 C  
ENDROOT
BRANCH   2   3
HETATM    3  C   UNL     1     -13.073  15.307  71.113  1.00  0.00    -0.546 C  
BRANCH   3   4
HETATM    4  C   UNL     1     -12.473  13.975  70.666  1.00  0.00    -0.435 C  
BRANCH   4   5
HETATM    5  C   UNL     1     -12.080  14.057  69.197  1.00  0.00    -0.375 C  
BRANCH   5   6
HETATM    6  C   UNL     1     -10.597  14.102  68.980  1.00  0.00    -0.227 C  
HETATM    7  C   UNL     1     -10.023  14.921  68.084  1.00  0.00    -0.222 C  
BRANCH   7   8
HETATM    8  C   UNL     1     -10.779  15.856  67.187  1.00  0.00    -0.301 C  
BRANCH   8   9
HETATM    9  C   UNL     1     -10.431  15.647  65.743  1.00  0.00    -0.383 C  
HETATM   10  C   UNL     1     -11.153  14.900  64.894  1.00  0.00    -0.424 C  
BRANCH  10  11
HETATM   11  C   UNL     1     -12.386  14.161  65.320  1.00  0.00    -0.469 C  
BRANCH  11  12
HETATM   12  C   UNL     1     -12.305  12.665  65.066  1.00  0.00    -0.561 C  
BRANCH  12  13
HETATM   13  C   UNL     1     -10.872  12.284  64.701  1.00  0.00    -0.349 C  
BRANCH  13  14
HETATM   14  C   UNL     1     -10.313  11.286  65.705  1.00  0.00    -0.310 C  
BRANCH  14  15
HETATM   15  C   UNL     1     -11.172  11.224  66.964  1.00  0.00    -0.324 C  
BRANCH  15  16
HETATM   16  C   UNL     1     -10.796  10.003  67.799  1.00  0.00    -0.337 C  
BRANCH  16  17
HETATM   17  C   UNL     1     -10.724  10.336  69.285  1.00  0.00    -0.265 C  
HETATM   18  C   UNL     1     -10.687   9.086  70.129  1.00  0.00    -0.233 C  
HETATM   19  O   UNL     1     -10.710   7.941  69.708  1.00  0.00    -0.244 OA 
HETATM   20  O   UNL     1     -10.626   9.364  71.454  1.00  0.00    -0.331 OA 
ENDBRANCH  16  17
ENDBRANCH  15  16
ENDBRANCH  14  15
ENDBRANCH  13  14
ENDBRANCH  12  13
ENDBRANCH  11  12
ENDBRANCH  10  11
ENDBRANCH   8   9
ENDBRANCH   7   8
ENDBRANCH   5   6
ENDBRANCH   4   5
ENDBRANCH   3   4
ENDBRANCH   2   3
TORSDOF 13
ENDMDL
MODEL       31
REMARK 921   NORMALIZED FREE ENERGY PREDICTED BY IDOCK:   -4.56 KCAL/MOL
REMARK 922        TOTAL FREE ENERGY PREDICTED BY IDOCK:   -9.78 KCAL/MOL
REMARK 923 INTER-LIGAND FREE ENERGY PREDICTED BY IDOCK:   -7.91 KCAL/MOL
REMARK 924 INTRA-LIGAND FREE ENERGY PREDICTED BY IDOCK:   -1.87 KCAL/MOL
REMARK 927      BINDING AFFINITY PREDICTED BY RF-SCORE:    0.00 PKD
ROOT
HETATM    1  C   UNL     1     -11.393   6.342  69.607  1.00  0.00    -0.492 C  
HETATM    2  C   UNL     1     -11.355   6.886  71.024  1.00  0.00    -0.342 C  
ENDROOT
BRANCH   2   3
HETATM    3  C   UNL     1     -12.729   7.381  71.459  1.00  0.00    -0.409 C  
BRANCH   3   4
HETATM    4  C   UNL     1     -12.641   8.767  72.095  1.00  0.00    -0.463 C  
BRANCH   4   5
HETATM    5  C   UNL     1     -13.479   9.753  71.292  1.00  0.00    -0.362 C  
BRANCH   5   6
HETATM    6  C   UNL     1     -12.928  11.147  71.300  1.00  0.00    -0.457 C  
HETATM    7  C   UNL     1     -12.207  11.643  70.282  1.00  0.00    -0.401 C  
BRANCH   7   8
HETATM    8  C   UNL     1     -11.845  10.873  69.047  1.00  0.00    -0.370 C  
BRANCH   8   9
HETATM    9  C   UNL     1     -10.556  11.351  68.449  1.00  0.00    -0.230 C  
HETATM   10  C   UNL     1     -10.455  11.948  67.251  1.00  0.00    -0.248 C  
BRANCH  10  11
HETATM   11  C   UNL     1     -11.642  12.174  66.363  1.00  0.00    -0.429 C  
BRANCH  11  12
HETATM   12  C   UNL     1     -12.113  13.619  66.352  1.00  0.00    -0.478 C  
BRANCH  12  13
HETATM   13  C   UNL     1     -11.062  14.507  67.013  1.00  0.00    -0.324 C  
BRANCH  13  14
HETATM   14  C   UNL     1     -11.673  15.291  68.165  1.00  0.00    -0.297 C  
BRANCH  14  15
HETATM   15  C   UNL     1     -10.812  15.197  69.421  1.00  0.00    -0.265 C  
BRANCH  15  16
HETATM   16  C   UNL     1     -11.462  15.969  70.565  1.00  0.00    -0.409 C  
BRANCH  16  17
HETATM   17  C   UNL     1     -11.907  15.042  71.691  1.00  0.00    -0.441 C  
HETATM   18  C   UNL     1     -13.401  15.101  71.895  1.00  0.00    -0.399 C  
HETATM   19  O   UNL     1     -14.181  15.791  71.259  1.00  0.00    -0.476 OA 
HETATM   20  O   UNL     1     -13.814  14.285  72.895  1.00  0.00    -0.615 OA 
ENDBRANCH  16  17
ENDBRANCH  15  16
ENDBRANCH  14  15
ENDBRANCH  13  14
ENDBRANCH  12  13
ENDBRANCH  11  12
ENDBRANCH  10  11
ENDBRANCH   8   9
ENDBRANCH   7   8
ENDBRANCH   5   6
ENDBRANCH   4   5
ENDBRANCH   3   4
ENDBRANCH   2   3
TORSDOF 13
ENDMDL
MODEL       32
REMARK 921   NORMALIZED FREE ENERGY PREDICTED BY IDOCK:   -4.56 KCAL/MOL
REMARK 922        TOTAL FREE ENERGY PREDICTED BY IDOCK:   -9.77 KCAL/MOL
REMARK 923 INTER-LIGAND FREE ENERGY PREDICTED BY IDOCK:   -7.42 KCAL/MOL
REMARK 924 INTRA-LIGAND FREE ENERGY PREDICTED BY IDOCK:   -2.35 KCAL/MOL
REMARK 927      BINDING AFFINITY PREDICTED BY RF-SCORE:    0.00 PKD
ROOT
HETATM    1  C   UNL     1     -10.309  19.996  68.319  1.00  0.00    -0.494 C  
HETATM    2  C   UNL     1      -9.591  19.578  67.047  1.00  0.00    -0.433 C  
ENDROOT
BRANCH   2   3
HETATM    3  C   UNL     1      -8.080  19.623  67.229  1.00  0.00    -0.317 C  
BRANCH   3   4
HETATM    4  C   UNL     1      -7.389  18.560  66.377  1.00  0.00    -0.277 C  
BRANCH   4   5
HETATM    5  C   UNL     1      -6.839  17.461  67.276  1.00  0.00    -0.194 C  
BRANCH   5   6
HETATM    6  C   UNL     1      -7.353  16.096  66.930  1.00  0.00    -0.255 C  
HETATM    7  C   UNL     1      -8.235  15.440  67.700  1.00  0.00    -0.171 C  
BRANCH   7   8
HETATM    8  C   UNL     1      -8.786  15.967  68.992  1.00  0.00    -0.236 C  
BRANCH   8   9
HETATM    9  C   UNL     1     -10.172  16.513  68.826  1.00  0.00    -0.267 C  
HETATM   10  C   UNL     1     -11.244  16.067  69.499  1.00  0.00    -0.348 C  
BRANCH  10  11
HETATM   11  C   UNL     1     -11.165  14.937  70.481  1.00  0.00    -0.243 C  
BRANCH  11  12
HETATM   12  C   UNL     1     -12.332  13.969  70.375  1.00  0.00    -0.429 C  
BRANCH  12  13
HETATM   13  C   UNL     1     -11.835  12.624  69.848  1.00  0.00    -0.364 C  
BRANCH  13  14
HETATM   14  C   UNL     1     -11.043  12.814  68.562  1.00  0.00    -0.300 C  
BRANCH  14  15
HETATM   15  C   UNL     1     -11.955  13.189  67.398  1.00  0.00    -0.379 C  
BRANCH  15  16
HETATM   16  C   UNL     1     -11.138  13.352  66.119  1.00  0.00    -0.299 C  
BRANCH  16  17
HETATM   17  C   UNL     1     -11.181  14.785  65.600  1.00  0.00    -0.343 C  
HETATM   18  C   UNL     1     -11.992  14.887  64.331  1.00  0.00    -0.394 C  
HETATM   19  O   UNL     1     -12.554  13.962  63.767  1.00  0.00    -0.721 OA 
HETATM   20  O   UNL     1     -12.038  16.154  63.854  1.00  0.00    -0.956 OA 
ENDBRANCH  16  17
ENDBRANCH  15  16
ENDBRANCH  14  15
ENDBRANCH  13  14
ENDBRANCH  12  13
ENDBRANCH  11  12
ENDBRANCH  10  11
ENDBRANCH   8   9
ENDBRANCH   7   8
ENDBRANCH   5   6
ENDBRANCH   4   5
ENDBRANCH   3   4
ENDBRANCH   2   3
TORSDOF 13
ENDMDL
MODEL       33
REMARK 921   NORMALIZED FREE ENERGY PREDICTED BY IDOCK:   -4.55 KCAL/MOL
REMARK 922        TOTAL FREE ENERGY PREDICTED BY IDOCK:   -9.76 KCAL/MOL
REMARK 923 INTER-LIGAND FREE ENERGY PREDICTED BY IDOCK:   -8.06 KCAL/MOL
REMARK 924 INTRA-LIGAND FREE ENERGY PREDICTED BY IDOCK:   -1.70 KCAL/MOL
REMARK 927      BINDING AFFINITY PREDICTED BY RF-SCORE:    0.00 PKD
ROOT
HETATM    1  C   UNL     1     -10.772  15.583  64.972  1.00  0.00    -0.463 C  
HETATM    2  C   UNL     1     -12.094  15.029  64.471  1.00  0.00    -0.373 C  
ENDROOT
BRANCH   2   3
HETATM    3  C   UNL     1     -11.917  13.638  63.876  1.00  0.00    -0.455 C  
BRANCH   3   4
HETATM    4  C   UNL     1     -11.156  12.722  64.832  1.00  0.00    -0.324 C  
BRANCH   4   5
HETATM    5  C   UNL     1     -12.090  12.242  65.935  1.00  0.00    -0.261 C  
BRANCH   5   6
HETATM    6  C   UNL     1     -11.378  11.878  67.202  1.00  0.00    -0.393 C  
HETATM    7  C   UNL     1     -11.288  12.717  68.246  1.00  0.00    -0.337 C  
BRANCH   7   8
HETATM    8  C   UNL     1     -11.853  14.106  68.266  1.00  0.00    -0.391 C  
BRANCH   8   9
HETATM    9  C   UNL     1     -11.047  15.025  69.135  1.00  0.00    -0.278 C  
HETATM   10  C   UNL     1     -11.497  15.570  70.276  1.00  0.00    -0.352 C  
BRANCH  10  11
HETATM   11  C   UNL     1     -12.886  15.335  70.788  1.00  0.00    -0.494 C  
BRANCH  11  12
HETATM   12  C   UNL     1     -12.917  14.836  72.224  1.00  0.00    -0.423 C  
BRANCH  12  13
HETATM   13  C   UNL     1     -13.641  13.493  72.283  1.00  0.00    -0.690 C  
BRANCH  13  14
HETATM   14  C   UNL     1     -12.880  12.440  71.491  1.00  0.00    -0.377 C  
BRANCH  14  15
HETATM   15  C   UNL     1     -13.245  11.030  71.945  1.00  0.00    -0.503 C  
BRANCH  15  16
HETATM   16  C   UNL     1     -12.238  10.022  71.400  1.00  0.00    -0.510 C  
BRANCH  16  17
HETATM   17  C   UNL     1     -12.250   8.723  72.198  1.00  0.00    -0.448 C  
HETATM   18  C   UNL     1     -10.850   8.249  72.501  1.00  0.00    -0.351 C  
HETATM   19  O   UNL     1      -9.819   8.810  72.165  1.00  0.00    -0.314 OA 
HETATM   20  O   UNL     1     -10.843   7.094  73.208  1.00  0.00    -0.327 OA 
ENDBRANCH  16  17
ENDBRANCH  15  16
ENDBRANCH  14  15
ENDBRANCH  13  14
ENDBRANCH  12  13
ENDBRANCH  11  12
ENDBRANCH  10  11
ENDBRANCH   8   9
ENDBRANCH   7   8
ENDBRANCH   5   6
ENDBRANCH   4   5
ENDBRANCH   3   4
ENDBRANCH   2   3
TORSDOF 13
ENDMDL
MODEL       34
REMARK 921   NORMALIZED FREE ENERGY PREDICTED BY IDOCK:   -4.55 KCAL/MOL
REMARK 922        TOTAL FREE ENERGY PREDICTED BY IDOCK:   -9.76 KCAL/MOL
REMARK 923 INTER-LIGAND FREE ENERGY PREDICTED BY IDOCK:   -7.87 KCAL/MOL
REMARK 924 INTRA-LIGAND FREE ENERGY PREDICTED BY IDOCK:   -1.88 KCAL/MOL
REMARK 927      BINDING AFFINITY PREDICTED BY RF-SCORE:    0.00 PKD
ROOT
HETATM    1  C   UNL     1     -12.624  14.211  65.002  1.00  0.00    -0.399 C  
HETATM    2  C   UNL     1     -12.254  12.746  64.851  1.00  0.00    -0.519 C  
ENDROOT
BRANCH   2   3
HETATM    3  C   UNL     1     -11.316  12.535  63.670  1.00  0.00    -0.555 C  
BRANCH   3   4
HETATM    4  C   UNL     1     -10.499  11.255  63.835  1.00  0.00    -0.452 C  
BRANCH   4   5
HETATM    5  C   UNL     1     -10.638  10.738  65.261  1.00  0.00    -0.230 C  
BRANCH   5   6
HETATM    6  C   UNL     1      -9.342  10.277  65.856  1.00  0.00    -0.226 C  
HETATM    7  C   UNL     1      -9.286   9.409  66.878  1.00  0.00    -0.173 C  
BRANCH   7   8
HETATM    8  C   UNL     1     -10.488   8.824  67.559  1.00  0.00    -0.340 C  
BRANCH   8   9
HETATM    9  C   UNL     1     -10.498   9.124  69.028  1.00  0.00    -0.238 C  
HETATM   10  C   UNL     1     -11.135  10.168  69.581  1.00  0.00    -0.308 C  
BRANCH  10  11
HETATM   11  C   UNL     1     -11.890  11.173  68.766  1.00  0.00    -0.388 C  
BRANCH  11  12
HETATM   12  C   UNL     1     -11.098  12.443  68.499  1.00  0.00    -0.296 C  
BRANCH  12  13
HETATM   13  C   UNL     1     -12.033  13.650  68.550  1.00  0.00    -0.396 C  
BRANCH  13  14
HETATM   14  C   UNL     1     -11.249  14.941  68.365  1.00  0.00    -0.304 C  
BRANCH  14  15
HETATM   15  C   UNL     1     -11.523  15.925  69.499  1.00  0.00    -0.342 C  
BRANCH  15  16
HETATM   16  C   UNL     1     -12.345  15.252  70.594  1.00  0.00    -0.427 C  
BRANCH  16  17
HETATM   17  C   UNL     1     -12.199  15.970  71.931  1.00  0.00    -0.560 C  
HETATM   18  C   UNL     1     -12.979  15.273  73.019  1.00  0.00    -0.493 C  
HETATM   19  O   UNL     1     -13.650  14.264  72.880  1.00  0.00    -0.624 OA 
HETATM   20  O   UNL     1     -12.862  15.900  74.214  1.00  0.00    -0.601 OA 
ENDBRANCH  16  17
ENDBRANCH  15  16
ENDBRANCH  14  15
ENDBRANCH  13  14
ENDBRANCH  12  13
ENDBRANCH  11  12
ENDBRANCH  10  11
ENDBRANCH   8   9
ENDBRANCH   7   8
ENDBRANCH   5   6
ENDBRANCH   4   5
ENDBRANCH   3   4
ENDBRANCH   2   3
TORSDOF 13
ENDMDL
MODEL       35
REMARK 921   NORMALIZED FREE ENERGY PREDICTED BY IDOCK:   -4.55 KCAL/MOL
REMARK 922        TOTAL FREE ENERGY PREDICTED BY IDOCK:   -9.75 KCAL/MOL
REMARK 923 INTER-LIGAND FREE ENERGY PREDICTED BY IDOCK:   -7.73 KCAL/MOL
REMARK 924 INTRA-LIGAND FREE ENERGY PREDICTED BY IDOCK:   -2.03 KCAL/MOL
REMARK 927      BINDING AFFINITY PREDICTED BY RF-SCORE:    0.00 PKD
ROOT
HETATM    1  C   UNL     1     -10.987   6.254  68.585  1.00  0.00    -0.423 C  
HETATM    2  C   UNL     1     -10.498   5.734  69.926  1.00  0.00    -0.360 C  
ENDROOT
BRANCH   2   3
HETATM    3  C   UNL     1      -9.695   6.796  70.666  1.00  0.00    -0.180 C  
BRANCH   3   4
HETATM    4  C   UNL     1      -9.560   8.068  69.832  1.00  0.00    -0.171 C  
BRANCH   4   5
HETATM    5  C   UNL     1      -9.749   9.288  70.724  1.00  0.00    -0.348 C  
BRANCH   5   6
HETATM    6  C   UNL     1     -10.788   9.094  71.786  1.00  0.00    -0.416 C  
HETATM    7  C   UNL     1     -12.044   9.553  71.660  1.00  0.00    -0.474 C  
BRANCH   7   8
HETATM    8  C   UNL     1     -12.547  10.326  70.477  1.00  0.00    -0.338 C  
BRANCH   8   9
HETATM    9  C   UNL     1     -12.270  11.793  70.611  1.00  0.00    -0.443 C  
HETATM   10  C   UNL     1     -11.834  12.573  69.608  1.00  0.00    -0.382 C  
BRANCH  10  11
HETATM   11  C   UNL     1     -11.550  12.037  68.238  1.00  0.00    -0.394 C  
BRANCH  11  12
HETATM   12  C   UNL     1     -10.076  11.749  68.003  1.00  0.00    -0.198 C  
BRANCH  12  13
HETATM   13  C   UNL     1      -9.931  10.572  67.040  1.00  0.00    -0.244 C  
BRANCH  13  14
HETATM   14  C   UNL     1      -9.211  11.006  65.772  1.00  0.00    -0.226 C  
BRANCH  14  15
HETATM   15  C   UNL     1     -10.076  10.778  64.535  1.00  0.00    -0.415 C  
BRANCH  15  16
HETATM   16  C   UNL     1     -10.241  12.081  63.759  1.00  0.00    -0.447 C  
BRANCH  16  17
HETATM   17  C   UNL     1     -10.970  13.139  64.581  1.00  0.00    -0.374 C  
HETATM   18  C   UNL     1     -12.465  13.042  64.401  1.00  0.00    -0.337 C  
HETATM   19  O   UNL     1     -13.048  12.234  63.698  1.00  0.00    -0.780 OA 
HETATM   20  O   UNL     1     -13.128  13.978  65.123  1.00  0.00    -0.776 OA 
ENDBRANCH  16  17
ENDBRANCH  15  16
ENDBRANCH  14  15
ENDBRANCH  13  14
ENDBRANCH  12  13
ENDBRANCH  11  12
ENDBRANCH  10  11
ENDBRANCH   8   9
ENDBRANCH   7   8
ENDBRANCH   5   6
ENDBRANCH   4   5
ENDBRANCH   3   4
ENDBRANCH   2   3
TORSDOF 13
ENDMDL
MODEL       36
REMARK 921   NORMALIZED FREE ENERGY PREDICTED BY IDOCK:   -4.55 KCAL/MOL
REMARK 922        TOTAL FREE ENERGY PREDICTED BY IDOCK:   -9.75 KCAL/MOL
REMARK 923 INTER-LIGAND FREE ENERGY PREDICTED BY IDOCK:   -7.57 KCAL/MOL
REMARK 924 INTRA-LIGAND FREE ENERGY PREDICTED BY IDOCK:   -2.18 KCAL/MOL
REMARK 927      BINDING AFFINITY PREDICTED BY RF-SCORE:    0.00 PKD
ROOT
HETATM    1  C   UNL     1     -12.667  11.857  63.759  1.00  0.00    -0.466 C  
HETATM    2  C   UNL     1     -11.863  13.105  63.442  1.00  0.00    -0.490 C  
ENDROOT
BRANCH   2   3
HETATM    3  C   UNL     1     -12.104  14.192  64.481  1.00  0.00    -0.489 C  
BRANCH   3   4
HETATM    4  C   UNL     1     -12.712  13.612  65.757  1.00  0.00    -0.470 C  
BRANCH   4   5
HETATM    5  C   UNL     1     -11.976  14.161  66.971  1.00  0.00    -0.471 C  
BRANCH   5   6
HETATM    6  C   UNL     1     -10.674  14.821  66.631  1.00  0.00    -0.309 C  
HETATM    7  C   UNL     1      -9.494  14.190  66.744  1.00  0.00    -0.290 C  
BRANCH   7   8
HETATM    8  C   UNL     1      -9.330  12.784  67.241  1.00  0.00    -0.200 C  
BRANCH   8   9
HETATM    9  C   UNL     1      -9.366  11.789  66.120  1.00  0.00    -0.236 C  
HETATM   10  C   UNL     1      -9.988  10.601  66.187  1.00  0.00    -0.283 C  
BRANCH  10  11
HETATM   11  C   UNL     1     -10.695  10.131  67.422  1.00  0.00    -0.336 C  
BRANCH  11  12
HETATM   12  C   UNL     1      -9.936   9.048  68.171  1.00  0.00    -0.206 C  
BRANCH  12  13
HETATM   13  C   UNL     1     -10.092   9.260  69.675  1.00  0.00    -0.208 C  
BRANCH  13  14
HETATM   14  C   UNL     1     -11.171  10.294  69.960  1.00  0.00    -0.376 C  
BRANCH  14  15
HETATM   15  C   UNL     1     -11.824  10.056  71.318  1.00  0.00    -0.471 C  
BRANCH  15  16
HETATM   16  C   UNL     1     -12.966  11.045  71.535  1.00  0.00    -0.553 C  
BRANCH  16  17
HETATM   17  C   UNL     1     -12.665  12.402  70.908  1.00  0.00    -0.273 C  
HETATM   18  C   UNL     1     -13.219  13.530  71.744  1.00  0.00    -0.404 C  
HETATM   19  O   UNL     1     -13.834  13.406  72.790  1.00  0.00    -0.720 OA 
HETATM   20  O   UNL     1     -12.963  14.743  71.199  1.00  0.00    -0.320 OA 
ENDBRANCH  16  17
ENDBRANCH  15  16
ENDBRANCH  14  15
ENDBRANCH  13  14
ENDBRANCH  12  13
ENDBRANCH  11  12
ENDBRANCH  10  11
ENDBRANCH   8   9
ENDBRANCH   7   8
ENDBRANCH   5   6
ENDBRANCH   4   5
ENDBRANCH   3   4
ENDBRANCH   2   3
TORSDOF 13
ENDMDL
MODEL       37
REMARK 921   NORMALIZED FREE ENERGY PREDICTED BY IDOCK:   -4.54 KCAL/MOL
REMARK 922        TOTAL FREE ENERGY PREDICTED BY IDOCK:   -9.74 KCAL/MOL
REMARK 923 INTER-LIGAND FREE ENERGY PREDICTED BY IDOCK:   -8.27 KCAL/MOL
REMARK 924 INTRA-LIGAND FREE ENERGY PREDICTED BY IDOCK:   -1.47 KCAL/MOL
REMARK 927      BINDING AFFINITY PREDICTED BY RF-SCORE:    0.00 PKD
ROOT
HETATM    1  C   UNL     1     -12.464  14.038  65.880  1.00  0.00    -0.513 C  
HETATM    2  C   UNL     1     -12.478  12.746  65.081  1.00  0.00    -0.565 C  
ENDROOT
BRANCH   2   3
HETATM    3  C   UNL     1     -11.932  12.963  63.676  1.00  0.00    -0.613 C  
BRANCH   3   4
HETATM    4  C   UNL     1     -10.642  12.174  63.458  1.00  0.00    -0.501 C  
BRANCH   4   5
HETATM    5  C   UNL     1     -10.561  11.035  64.465  1.00  0.00    -0.383 C  
BRANCH   5   6
HETATM    6  C   UNL     1      -9.297  11.042  65.271  1.00  0.00    -0.245 C  
HETATM    7  C   UNL     1      -9.278  10.774  66.586  1.00  0.00    -0.184 C  
BRANCH   7   8
HETATM    8  C   UNL     1     -10.498  10.467  67.404  1.00  0.00    -0.299 C  
BRANCH   8   9
HETATM    9  C   UNL     1     -10.472   9.067  67.941  1.00  0.00    -0.291 C  
HETATM   10  C   UNL     1     -10.487   8.760  69.248  1.00  0.00    -0.228 C  
BRANCH  10  11
HETATM   11  C   UNL     1     -10.504   9.807  70.320  1.00  0.00    -0.345 C  
BRANCH  11  12
HETATM   12  C   UNL     1     -11.428   9.464  71.477  1.00  0.00    -0.467 C  
BRANCH  12  13
HETATM   13  C   UNL     1     -12.782  10.138  71.270  1.00  0.00    -0.509 C  
BRANCH  13  14
HETATM   14  C   UNL     1     -12.613  11.645  71.139  1.00  0.00    -0.439 C  
BRANCH  14  15
HETATM   15  C   UNL     1     -13.534  12.393  72.098  1.00  0.00    -0.481 C  
BRANCH  15  16
HETATM   16  C   UNL     1     -13.179  13.876  72.121  1.00  0.00    -0.536 C  
BRANCH  16  17
HETATM   17  C   UNL     1     -12.155  14.229  71.048  1.00  0.00    -0.416 C  
HETATM   18  C   UNL     1     -11.607  15.621  71.245  1.00  0.00    -0.428 C  
HETATM   19  O   UNL     1     -11.921  16.391  72.137  1.00  0.00    -0.509 OA 
HETATM   20  O   UNL     1     -10.697  15.952  70.297  1.00  0.00    -0.315 OA 
ENDBRANCH  16  17
ENDBRANCH  15  16
ENDBRANCH  14  15
ENDBRANCH  13  14
ENDBRANCH  12  13
ENDBRANCH  11  12
ENDBRANCH  10  11
ENDBRANCH   8   9
ENDBRANCH   7   8
ENDBRANCH   5   6
ENDBRANCH   4   5
ENDBRANCH   3   4
ENDBRANCH   2   3
TORSDOF 13
ENDMDL
MODEL       38
REMARK 921   NORMALIZED FREE ENERGY PREDICTED BY IDOCK:   -4.54 KCAL/MOL
REMARK 922        TOTAL FREE ENERGY PREDICTED BY IDOCK:   -9.74 KCAL/MOL
REMARK 923 INTER-LIGAND FREE ENERGY PREDICTED BY IDOCK:   -7.62 KCAL/MOL
REMARK 924 INTRA-LIGAND FREE ENERGY PREDICTED BY IDOCK:   -2.11 KCAL/MOL
REMARK 927      BINDING AFFINITY PREDICTED BY RF-SCORE:    0.00 PKD
ROOT
HETATM    1  C   UNL     1      -7.303  13.095  68.114  1.00  0.00    -0.119 C  
HETATM    2  C   UNL     1      -8.317  14.076  67.555  1.00  0.00    -0.200 C  
ENDROOT
BRANCH   2   3
HETATM    3  C   UNL     1      -8.964  14.891  68.667  1.00  0.00    -0.184 C  
BRANCH   3   4
HETATM    4  C   UNL     1      -9.672  16.124  68.108  1.00  0.00    -0.222 C  
BRANCH   4   5
HETATM    5  C   UNL     1     -11.033  16.279  68.774  1.00  0.00    -0.343 C  
BRANCH   5   6
HETATM    6  C   UNL     1     -10.977  16.192  70.270  1.00  0.00    -0.345 C  
HETATM    7  C   UNL     1     -11.969  15.657  70.999  1.00  0.00    -0.445 C  
BRANCH   7   8
HETATM    8  C   UNL     1     -13.245  15.116  70.423  1.00  0.00    -0.169 C  
BRANCH   8   9
HETATM    9  C   UNL     1     -14.237  14.769  71.493  1.00  0.00    -0.580 C  
HETATM   10  C   UNL     1     -14.107  13.732  72.334  1.00  0.00    -0.593 C  
BRANCH  10  11
HETATM   11  C   UNL     1     -12.950  12.781  72.267  1.00  0.00    -0.289 C  
BRANCH  11  12
HETATM   12  C   UNL     1     -13.140  11.680  71.236  1.00  0.00    -0.254 C  
BRANCH  12  13
HETATM   13  C   UNL     1     -11.808  11.387  70.549  1.00  0.00    -0.394 C  
BRANCH  13  14
HETATM   14  C   UNL     1     -11.996  11.281  69.043  1.00  0.00    -0.393 C  
BRANCH  14  15
HETATM   15  C   UNL     1     -11.777  12.627  68.359  1.00  0.00    -0.377 C  
BRANCH  15  16
HETATM   16  C   UNL     1     -11.612  12.435  66.855  1.00  0.00    -0.437 C  
BRANCH  16  17
HETATM   17  C   UNL     1     -11.736  13.754  66.100  1.00  0.00    -0.392 C  
HETATM   18  C   UNL     1     -12.527  13.587  64.825  1.00  0.00    -0.355 C  
HETATM   19  O   UNL     1     -13.018  12.546  64.422  1.00  0.00    -0.748 OA 
HETATM   20  O   UNL     1     -12.643  14.750  64.140  1.00  0.00    -0.784 OA 
ENDBRANCH  16  17
ENDBRANCH  15  16
ENDBRANCH  14  15
ENDBRANCH  13  14
ENDBRANCH  12  13
ENDBRANCH  11  12
ENDBRANCH  10  11
ENDBRANCH   8   9
ENDBRANCH   7   8
ENDBRANCH   5   6
ENDBRANCH   4   5
ENDBRANCH   3   4
ENDBRANCH   2   3
TORSDOF 13
ENDMDL
MODEL       39
REMARK 921   NORMALIZED FREE ENERGY PREDICTED BY IDOCK:   -4.54 KCAL/MOL
REMARK 922        TOTAL FREE ENERGY PREDICTED BY IDOCK:   -9.73 KCAL/MOL
REMARK 923 INTER-LIGAND FREE ENERGY PREDICTED BY IDOCK:   -7.57 KCAL/MOL
REMARK 924 INTRA-LIGAND FREE ENERGY PREDICTED BY IDOCK:   -2.17 KCAL/MOL
REMARK 927      BINDING AFFINITY PREDICTED BY RF-SCORE:    0.00 PKD
ROOT
HETATM    1  C   UNL     1      -7.931  14.127  67.330  1.00  0.00    -0.201 C  
HETATM    2  C   UNL     1      -7.848  13.180  68.514  1.00  0.00    -0.105 C  
ENDROOT
BRANCH   2   3
HETATM    3  C   UNL     1      -8.369  11.796  68.147  1.00  0.00    -0.156 C  
BRANCH   3   4
HETATM    4  C   UNL     1      -8.506  11.641  66.634  1.00  0.00    -0.165 C  
BRANCH   4   5
HETATM    5  C   UNL     1      -9.813  10.930  66.308  1.00  0.00    -0.261 C  
BRANCH   5   6
HETATM    6  C   UNL     1      -9.728  10.057  65.092  1.00  0.00    -0.380 C  
HETATM    7  C   UNL     1      -9.963  10.519  63.854  1.00  0.00    -0.348 C  
BRANCH   7   8
HETATM    8  C   UNL     1     -10.359  11.932  63.539  1.00  0.00    -0.495 C  
BRANCH   8   9
HETATM    9  C   UNL     1     -11.791  12.202  63.893  1.00  0.00    -0.558 C  
HETATM   10  C   UNL     1     -12.233  13.356  64.417  1.00  0.00    -0.444 C  
BRANCH  10  11
HETATM   11  C   UNL     1     -11.318  14.500  64.732  1.00  0.00    -0.397 C  
BRANCH  11  12
HETATM   12  C   UNL     1     -11.224  14.798  66.220  1.00  0.00    -0.343 C  
BRANCH  12  13
HETATM   13  C   UNL     1     -11.913  13.688  67.010  1.00  0.00    -0.448 C  
BRANCH  13  14
HETATM   14  C   UNL     1     -11.637  13.841  68.498  1.00  0.00    -0.373 C  
BRANCH  14  15
HETATM   15  C   UNL     1     -11.786  12.511  69.231  1.00  0.00    -0.379 C  
BRANCH  15  16
HETATM   16  C   UNL     1     -12.233  12.748  70.670  1.00  0.00    -0.374 C  
BRANCH  16  17
HETATM   17  C   UNL     1     -12.630  14.201  70.906  1.00  0.00    -0.433 C  
HETATM   18  C   UNL     1     -13.694  14.316  71.969  1.00  0.00    -0.450 C  
HETATM   19  O   UNL     1     -14.194  13.386  72.581  1.00  0.00    -0.747 OA 
HETATM   20  O   UNL     1     -14.062  15.602  72.189  1.00  0.00    -0.513 OA 
ENDBRANCH  16  17
ENDBRANCH  15  16
ENDBRANCH  14  15
ENDBRANCH  13  14
ENDBRANCH  12  13
ENDBRANCH  11  12
ENDBRANCH  10  11
ENDBRANCH   8   9
ENDBRANCH   7   8
ENDBRANCH   5   6
ENDBRANCH   4   5
ENDBRANCH   3   4
ENDBRANCH   2   3
TORSDOF 13
ENDMDL
MODEL       40
REMARK 921   NORMALIZED FREE ENERGY PREDICTED BY IDOCK:   -4.53 KCAL/MOL
REMARK 922        TOTAL FREE ENERGY PREDICTED BY IDOCK:   -9.72 KCAL/MOL
REMARK 923 INTER-LIGAND FREE ENERGY PREDICTED BY IDOCK:   -7.96 KCAL/MOL
REMARK 924 INTRA-LIGAND FREE ENERGY PREDICTED BY IDOCK:   -1.76 KCAL/MOL
REMARK 927      BINDING AFFINITY PREDICTED BY RF-SCORE:    0.00 PKD
ROOT
HETATM    1  C   UNL     1     -11.763  12.524  66.180  1.00  0.00    -0.466 C  
HETATM    2  C   UNL     1     -11.764  13.167  67.556  1.00  0.00    -0.414 C  
ENDROOT
BRANCH   2   3
HETATM    3  C   UNL     1     -10.959  12.339  68.549  1.00  0.00    -0.275 C  
BRANCH   3   4
HETATM    4  C   UNL     1     -11.544  10.937  68.701  1.00  0.00    -0.373 C  
BRANCH   4   5
HETATM    5  C   UNL     1     -11.332  10.445  70.127  1.00  0.00    -0.397 C  
BRANCH   5   6
HETATM    6  C   UNL     1     -12.611  10.203  70.870  1.00  0.00    -0.454 C  
HETATM    7  C   UNL     1     -13.219  11.159  71.590  1.00  0.00    -0.449 C  
BRANCH   7   8
HETATM    8  C   UNL     1     -12.691  12.553  71.763  1.00  0.00    -0.244 C  
BRANCH   8   9
HETATM    9  C   UNL     1     -13.683  13.445  72.446  1.00  0.00    -0.698 C  
HETATM   10  C   UNL     1     -13.379  14.632  72.993  1.00  0.00    -0.527 C  
BRANCH  10  11
HETATM   11  C   UNL     1     -11.984  15.181  73.001  1.00  0.00    -0.467 C  
BRANCH  11  12
HETATM   12  C   UNL     1     -11.819  16.408  72.119  1.00  0.00    -0.499 C  
BRANCH  12  13
HETATM   13  C   UNL     1     -11.764  15.982  70.653  1.00  0.00    -0.376 C  
BRANCH  13  14
HETATM   14  C   UNL     1     -10.397  15.405  70.316  1.00  0.00    -0.205 C  
BRANCH  14  15
HETATM   15  C   UNL     1      -9.717  16.199  69.204  1.00  0.00    -0.248 C  
BRANCH  15  16
HETATM   16  C   UNL     1     -10.745  17.040  68.453  1.00  0.00    -0.361 C  
BRANCH  16  17
HETATM   17  C   UNL     1     -10.082  17.974  67.446  1.00  0.00    -0.354 C  
HETATM   18  C   UNL     1      -9.813  19.332  68.049  1.00  0.00    -0.365 C  
HETATM   19  O   UNL     1     -10.079  19.671  69.190  1.00  0.00    -0.438 OA 
HETATM   20  O   UNL     1      -9.227  20.176  67.166  1.00  0.00    -0.345 OA 
ENDBRANCH  16  17
ENDBRANCH  15  16
ENDBRANCH  14  15
ENDBRANCH  13  14
ENDBRANCH  12  13
ENDBRANCH  11  12
ENDBRANCH  10  11
ENDBRANCH   8   9
ENDBRANCH   7   8
ENDBRANCH   5   6
ENDBRANCH   4   5
ENDBRANCH   3   4
ENDBRANCH   2   3
TORSDOF 13
ENDMDL
MODEL       41
REMARK 921   NORMALIZED FREE ENERGY PREDICTED BY IDOCK:   -4.53 KCAL/MOL
REMARK 922        TOTAL FREE ENERGY PREDICTED BY IDOCK:   -9.72 KCAL/MOL
REMARK 923 INTER-LIGAND FREE ENERGY PREDICTED BY IDOCK:   -8.00 KCAL/MOL
REMARK 924 INTRA-LIGAND FREE ENERGY PREDICTED BY IDOCK:   -1.72 KCAL/MOL
REMARK 927      BINDING AFFINITY PREDICTED BY RF-SCORE:    0.00 PKD
ROOT
HETATM    1  C   UNL     1     -10.545  18.980  67.078  1.00  0.00    -0.543 C  
HETATM    2  C   UNL     1     -10.625  18.104  65.841  1.00  0.00    -0.247 C  
ENDROOT
BRANCH   2   3
HETATM    3  C   UNL     1     -10.114  16.698  66.129  1.00  0.00    -0.361 C  
BRANCH   3   4
HETATM    4  C   UNL     1     -10.786  15.670  65.221  1.00  0.00    -0.444 C  
BRANCH   4   5
HETATM    5  C   UNL     1     -10.639  14.279  65.825  1.00  0.00    -0.315 C  
BRANCH   5   6
HETATM    6  C   UNL     1     -11.903  13.762  66.442  1.00  0.00    -0.434 C  
HETATM    7  C   UNL     1     -12.111  13.763  67.769  1.00  0.00    -0.325 C  
BRANCH   7   8
HETATM    8  C   UNL     1     -11.115  14.247  68.781  1.00  0.00    -0.276 C  
BRANCH   8   9
HETATM    9  C   UNL     1     -11.300  15.701  69.095  1.00  0.00    -0.341 C  
HETATM   10  C   UNL     1     -11.345  16.205  70.338  1.00  0.00    -0.377 C  
BRANCH  10  11
HETATM   11  C   UNL     1     -11.242  15.342  71.560  1.00  0.00    -0.401 C  
BRANCH  11  12
HETATM   12  C   UNL     1     -12.188  15.765  72.672  1.00  0.00    -0.573 C  
BRANCH  12  13
HETATM   13  C   UNL     1     -13.126  14.609  73.013  1.00  0.00    -0.616 C  
BRANCH  13  14
HETATM   14  C   UNL     1     -13.399  13.761  71.780  1.00  0.00    -0.463 C  
BRANCH  14  15
HETATM   15  C   UNL     1     -13.313  12.271  72.099  1.00  0.00    -0.473 C  
BRANCH  15  16
HETATM   16  C   UNL     1     -12.536  11.542  71.007  1.00  0.00    -0.458 C  
BRANCH  16  17
HETATM   17  C   UNL     1     -12.985  10.092  70.868  1.00  0.00    -0.397 C  
HETATM   18  C   UNL     1     -11.949   9.139  71.413  1.00  0.00    -0.339 C  
HETATM   19  O   UNL     1     -10.880   9.456  71.909  1.00  0.00    -0.310 OA 
HETATM   20  O   UNL     1     -12.331   7.845  71.294  1.00  0.00    -0.307 OA 
ENDBRANCH  16  17
ENDBRANCH  15  16
ENDBRANCH  14  15
ENDBRANCH  13  14
ENDBRANCH  12  13
ENDBRANCH  11  12
ENDBRANCH  10  11
ENDBRANCH   8   9
ENDBRANCH   7   8
ENDBRANCH   5   6
ENDBRANCH   4   5
ENDBRANCH   3   4
ENDBRANCH   2   3
TORSDOF 13
ENDMDL
MODEL       42
REMARK 921   NORMALIZED FREE ENERGY PREDICTED BY IDOCK:   -4.53 KCAL/MOL
REMARK 922        TOTAL FREE ENERGY PREDICTED BY IDOCK:   -9.71 KCAL/MOL
REMARK 923 INTER-LIGAND FREE ENERGY PREDICTED BY IDOCK:   -7.80 KCAL/MOL
REMARK 924 INTRA-LIGAND FREE ENERGY PREDICTED BY IDOCK:   -1.91 KCAL/MOL
REMARK 927      BINDING AFFINITY PREDICTED BY RF-SCORE:    0.00 PKD
ROOT
HETATM    1  C   UNL     1     -10.643  19.599  65.832  1.00  0.00    -0.566 C  
HETATM    2  C   UNL     1      -9.669  20.250  66.799  1.00  0.00    -0.571 C  
ENDROOT
BRANCH   2   3
HETATM    3  C   UNL     1      -8.670  19.234  67.339  1.00  0.00    -0.326 C  
BRANCH   3   4
HETATM    4  C   UNL     1      -9.271  18.423  68.485  1.00  0.00    -0.348 C  
BRANCH   4   5
HETATM    5  C   UNL     1      -9.624  17.025  67.995  1.00  0.00    -0.260 C  
BRANCH   5   6
HETATM    6  C   UNL     1      -9.275  15.946  68.974  1.00  0.00    -0.242 C  
HETATM    7  C   UNL     1     -10.123  15.538  69.931  1.00  0.00    -0.282 C  
BRANCH   7   8
HETATM    8  C   UNL     1     -11.489  16.118  70.155  1.00  0.00    -0.309 C  
BRANCH   8   9
HETATM    9  C   UNL     1     -11.892  16.058  71.598  1.00  0.00    -0.582 C  
HETATM   10  C   UNL     1     -12.726  15.140  72.110  1.00  0.00    -0.420 C  
BRANCH  10  11
HETATM   11  C   UNL     1     -13.374  14.083  71.268  1.00  0.00    -0.342 C  
BRANCH  11  12
HETATM   12  C   UNL     1     -13.276  12.692  71.874  1.00  0.00    -0.504 C  
BRANCH  12  13
HETATM   13  C   UNL     1     -12.375  11.817  71.005  1.00  0.00    -0.386 C  
BRANCH  13  14
HETATM   14  C   UNL     1     -12.246  12.405  69.607  1.00  0.00    -0.171 C  
BRANCH  14  15
HETATM   15  C   UNL     1     -11.166  11.690  68.801  1.00  0.00    -0.304 C  
BRANCH  15  16
HETATM   16  C   UNL     1     -10.760  12.535  67.597  1.00  0.00    -0.242 C  
BRANCH  16  17
HETATM   17  C   UNL     1     -11.891  13.452  67.144  1.00  0.00    -0.429 C  
HETATM   18  C   UNL     1     -12.161  13.306  65.666  1.00  0.00    -0.441 C  
HETATM   19  O   UNL     1     -11.569  12.560  64.904  1.00  0.00    -0.317 OA 
HETATM   20  O   UNL     1     -13.162  14.117  65.246  1.00  0.00    -0.760 OA 
ENDBRANCH  16  17
ENDBRANCH  15  16
ENDBRANCH  14  15
ENDBRANCH  13  14
ENDBRANCH  12  13
ENDBRANCH  11  12
ENDBRANCH  10  11
ENDBRANCH   8   9
ENDBRANCH   7   8
ENDBRANCH   5   6
ENDBRANCH   4   5
ENDBRANCH   3   4
ENDBRANCH   2   3
TORSDOF 13
ENDMDL
MODEL       43
REMARK 921   NORMALIZED FREE ENERGY PREDICTED BY IDOCK:   -4.53 KCAL/MOL
REMARK 922        TOTAL FREE ENERGY PREDICTED BY IDOCK:   -9.71 KCAL/MOL
REMARK 923 INTER-LIGAND FREE ENERGY PREDICTED BY IDOCK:   -7.71 KCAL/MOL
REMARK 924 INTRA-LIGAND FREE ENERGY PREDICTED BY IDOCK:   -2.00 KCAL/MOL
REMARK 927      BINDING AFFINITY PREDICTED BY RF-SCORE:    0.00 PKD
ROOT
HETATM    1  C   UNL     1      -9.775   9.255  65.905  1.00  0.00    -0.355 C  
HETATM    2  C   UNL     1      -9.879   8.037  66.807  1.00  0.00    -0.327 C  
ENDROOT
BRANCH   2   3
HETATM    3  C   UNL     1     -10.338   8.427  68.206  1.00  0.00    -0.244 C  
BRANCH   3   4
HETATM    4  C   UNL     1      -9.233   9.159  68.965  1.00  0.00    -0.143 C  
BRANCH   4   5
HETATM    5  C   UNL     1      -9.398   8.924  70.461  1.00  0.00    -0.240 C  
BRANCH   5   6
HETATM    6  C   UNL     1      -9.895   7.550  70.797  1.00  0.00    -0.178 C  
HETATM    7  C   UNL     1     -10.881   7.336  71.682  1.00  0.00    -0.246 C  
BRANCH   7   8
HETATM    8  C   UNL     1     -11.576   8.420  72.453  1.00  0.00    -0.450 C  
BRANCH   8   9
HETATM    9  C   UNL     1     -12.993   8.607  71.998  1.00  0.00    -0.419 C  
HETATM   10  C   UNL     1     -13.448   9.710  71.383  1.00  0.00    -0.403 C  
BRANCH  10  11
HETATM   11  C   UNL     1     -12.575  10.898  71.111  1.00  0.00    -0.532 C  
BRANCH  11  12
HETATM   12  C   UNL     1     -12.216  11.053  69.643  1.00  0.00    -0.370 C  
BRANCH  12  13
HETATM   13  C   UNL     1     -11.621  12.439  69.404  1.00  0.00    -0.371 C  
BRANCH  13  14
HETATM   14  C   UNL     1     -10.829  12.464  68.105  1.00  0.00    -0.250 C  
BRANCH  14  15
HETATM   15  C   UNL     1     -11.652  13.055  66.964  1.00  0.00    -0.413 C  
BRANCH  15  16
HETATM   16  C   UNL     1     -10.772  13.272  65.736  1.00  0.00    -0.286 C  
BRANCH  16  17
HETATM   17  C   UNL     1     -10.661  14.749  65.376  1.00  0.00    -0.385 C  
HETATM   18  C   UNL     1     -11.635  15.125  64.286  1.00  0.00    -0.184 C  
HETATM   19  O   UNL     1     -12.423  14.369  63.742  1.00  0.00    -0.814 OA 
HETATM   20  O   UNL     1     -11.547  16.435  63.951  1.00  0.00    -1.100 OA 
ENDBRANCH  16  17
ENDBRANCH  15  16
ENDBRANCH  14  15
ENDBRANCH  13  14
ENDBRANCH  12  13
ENDBRANCH  11  12
ENDBRANCH  10  11
ENDBRANCH   8   9
ENDBRANCH   7   8
ENDBRANCH   5   6
ENDBRANCH   4   5
ENDBRANCH   3   4
ENDBRANCH   2   3
TORSDOF 13
ENDMDL
MODEL       44
REMARK 921   NORMALIZED FREE ENERGY PREDICTED BY IDOCK:   -4.52 KCAL/MOL
REMARK 922        TOTAL FREE ENERGY PREDICTED BY IDOCK:   -9.71 KCAL/MOL
REMARK 923 INTER-LIGAND FREE ENERGY PREDICTED BY IDOCK:   -7.90 KCAL/MOL
REMARK 924 INTRA-LIGAND FREE ENERGY PREDICTED BY IDOCK:   -1.80 KCAL/MOL
REMARK 927      BINDING AFFINITY PREDICTED BY RF-SCORE:    0.00 PKD
ROOT
HETATM    1  C   UNL     1     -10.157   9.548  66.277  1.00  0.00    -0.327 C  
HETATM    2  C   UNL     1      -9.799   8.104  66.581  1.00  0.00    -0.331 C  
ENDROOT
BRANCH   2   3
HETATM    3  C   UNL     1     -10.880   7.433  67.418  1.00  0.00    -0.299 C  
BRANCH   3   4
HETATM    4  C   UNL     1     -10.370   7.105  68.819  1.00  0.00    -0.200 C  
BRANCH   4   5
HETATM    5  C   UNL     1     -11.509   6.551  69.664  1.00  0.00    -0.417 C  
BRANCH   5   6
HETATM    6  C   UNL     1     -11.263   6.656  71.139  1.00  0.00    -0.340 C  
HETATM    7  C   UNL     1     -12.033   7.401  71.948  1.00  0.00    -0.337 C  
BRANCH   7   8
HETATM    8  C   UNL     1     -13.197   8.227  71.484  1.00  0.00    -0.308 C  
BRANCH   8   9
HETATM    9  C   UNL     1     -13.122   9.634  71.997  1.00  0.00    -0.537 C  
HETATM   10  C   UNL     1     -12.381  10.603  71.438  1.00  0.00    -0.455 C  
BRANCH  10  11
HETATM   11  C   UNL     1     -11.515  10.362  70.238  1.00  0.00    -0.406 C  
BRANCH  11  12
HETATM   12  C   UNL     1     -12.017  11.065  68.987  1.00  0.00    -0.364 C  
BRANCH  12  13
HETATM   13  C   UNL     1     -11.804  12.571  69.125  1.00  0.00    -0.348 C  
BRANCH  13  14
HETATM   14  C   UNL     1     -10.858  13.077  68.046  1.00  0.00    -0.261 C  
BRANCH  14  15
HETATM   15  C   UNL     1     -11.445  14.279  67.312  1.00  0.00    -0.371 C  
BRANCH  15  16
HETATM   16  C   UNL     1     -12.490  13.821  66.300  1.00  0.00    -0.441 C  
BRANCH  16  17
HETATM   17  C   UNL     1     -12.013  12.612  65.503  1.00  0.00    -0.509 C  
HETATM   18  C   UNL     1     -12.086  12.868  64.017  1.00  0.00    -0.455 C  
HETATM   19  O   UNL     1     -12.473  13.897  63.489  1.00  0.00    -0.810 OA 
HETATM   20  O   UNL     1     -11.668  11.801  63.293  1.00  0.00    -0.388 OA 
ENDBRANCH  16  17
ENDBRANCH  15  16
ENDBRANCH  14  15
ENDBRANCH  13  14
ENDBRANCH  12  13
ENDBRANCH  11  12
ENDBRANCH  10  11
ENDBRANCH   8   9
ENDBRANCH   7   8
ENDBRANCH   5   6
ENDBRANCH   4   5
ENDBRANCH   3   4
ENDBRANCH   2   3
TORSDOF 13
ENDMDL
MODEL       45
REMARK 921   NORMALIZED FREE ENERGY PREDICTED BY IDOCK:   -4.52 KCAL/MOL
REMARK 922        TOTAL FREE ENERGY PREDICTED BY IDOCK:   -9.70 KCAL/MOL
REMARK 923 INTER-LIGAND FREE ENERGY PREDICTED BY IDOCK:   -7.85 KCAL/MOL
REMARK 924 INTRA-LIGAND FREE ENERGY PREDICTED BY IDOCK:   -1.86 KCAL/MOL
REMARK 927      BINDING AFFINITY PREDICTED BY RF-SCORE:    0.00 PKD
ROOT
HETATM    1  C   UNL     1      -9.713   9.261  71.034  1.00  0.00    -0.341 C  
HETATM    2  C   UNL     1     -11.171   9.661  71.174  1.00  0.00    -0.454 C  
ENDROOT
BRANCH   2   3
HETATM    3  C   UNL     1     -11.924   8.688  72.072  1.00  0.00    -0.442 C  
BRANCH   3   4
HETATM    4  C   UNL     1     -11.022   7.540  72.520  1.00  0.00    -0.362 C  
BRANCH   4   5
HETATM    5  C   UNL     1     -11.517   6.233  71.917  1.00  0.00    -0.360 C  
BRANCH   5   6
HETATM    6  C   UNL     1     -10.448   5.464  71.201  1.00  0.00    -0.295 C  
HETATM    7  C   UNL     1     -10.301   5.504  69.867  1.00  0.00    -0.368 C  
BRANCH   7   8
HETATM    8  C   UNL     1     -11.187   6.284  68.942  1.00  0.00    -0.387 C  
BRANCH   8   9
HETATM    9  C   UNL     1     -10.578   6.432  67.579  1.00  0.00    -0.350 C  
HETATM   10  C   UNL     1     -10.378   7.608  66.966  1.00  0.00    -0.400 C  
BRANCH  10  11
HETATM   11  C   UNL     1     -10.777   8.915  67.582  1.00  0.00    -0.221 C  
BRANCH  11  12
HETATM   12  C   UNL     1     -10.036  10.105  66.994  1.00  0.00    -0.249 C  
BRANCH  12  13
HETATM   13  C   UNL     1     -10.145  11.296  67.943  1.00  0.00    -0.195 C  
BRANCH  13  14
HETATM   14  C   UNL     1     -11.485  11.996  67.769  1.00  0.00    -0.394 C  
BRANCH  14  15
HETATM   15  C   UNL     1     -11.338  13.511  67.870  1.00  0.00    -0.320 C  
BRANCH  15  16
HETATM   16  C   UNL     1     -11.865  14.178  66.603  1.00  0.00    -0.447 C  
BRANCH  16  17
HETATM   17  C   UNL     1     -11.938  13.198  65.438  1.00  0.00    -0.448 C  
HETATM   18  C   UNL     1     -12.246  13.905  64.141  1.00  0.00    -0.393 C  
HETATM   19  O   UNL     1     -12.419  15.105  64.007  1.00  0.00    -0.771 OA 
HETATM   20  O   UNL     1     -12.317  13.047  63.094  1.00  0.00    -0.650 OA 
ENDBRANCH  16  17
ENDBRANCH  15  16
ENDBRANCH  14  15
ENDBRANCH  13  14
ENDBRANCH  12  13
ENDBRANCH  11  12
ENDBRANCH  10  11
ENDBRANCH   8   9
ENDBRANCH   7   8
ENDBRANCH   5   6
ENDBRANCH   4   5
ENDBRANCH   3   4
ENDBRANCH   2   3
TORSDOF 13
ENDMDL
MODEL       46
REMARK 921   NORMALIZED FREE ENERGY PREDICTED BY IDOCK:   -4.52 KCAL/MOL
REMARK 922        TOTAL FREE ENERGY PREDICTED BY IDOCK:   -9.70 KCAL/MOL
REMARK 923 INTER-LIGAND FREE ENERGY PREDICTED BY IDOCK:   -7.37 KCAL/MOL
REMARK 924 INTRA-LIGAND FREE ENERGY PREDICTED BY IDOCK:   -2.33 KCAL/MOL
REMARK 927      BINDING AFFINITY PREDICTED BY RF-SCORE:    0.00 PKD
ROOT
HETATM    1  C   UNL     1      -9.103  11.847  66.899  1.00  0.00    -0.196 C  
HETATM    2  C   UNL     1     -10.313  11.148  66.304  1.00  0.00    -0.299 C  
ENDROOT
BRANCH   2   3
HETATM    3  C   UNL     1     -11.019  12.039  65.291  1.00  0.00    -0.356 C  
BRANCH   3   4
HETATM    4  C   UNL     1     -12.155  12.825  65.944  1.00  0.00    -0.485 C  
BRANCH   4   5
HETATM    5  C   UNL     1     -12.263  14.201  65.300  1.00  0.00    -0.440 C  
BRANCH   5   6
HETATM    6  C   UNL     1     -10.936  14.783  64.914  1.00  0.00    -0.425 C  
HETATM    7  C   UNL     1     -10.247  15.605  65.720  1.00  0.00    -0.391 C  
BRANCH   7   8
HETATM    8  C   UNL     1     -10.719  16.058  67.071  1.00  0.00    -0.277 C  
BRANCH   8   9
HETATM    9  C   UNL     1      -9.909  15.451  68.177  1.00  0.00    -0.213 C  
HETATM   10  C   UNL     1     -10.425  14.713  69.172  1.00  0.00    -0.239 C  
BRANCH  10  11
HETATM   11  C   UNL     1     -11.894  14.442  69.294  1.00  0.00    -0.365 C  
BRANCH  11  12
HETATM   12  C   UNL     1     -12.215  13.306  70.253  1.00  0.00    -0.391 C  
BRANCH  12  13
HETATM   13  C   UNL     1     -11.883  11.970  69.594  1.00  0.00    -0.401 C  
BRANCH  13  14
HETATM   14  C   UNL     1     -11.823  10.861  70.634  1.00  0.00    -0.453 C  
BRANCH  14  15
HETATM   15  C   UNL     1     -13.026  10.912  71.572  1.00  0.00    -0.556 C  
BRANCH  15  16
HETATM   16  C   UNL     1     -13.332   9.520  72.114  1.00  0.00    -0.545 C  
BRANCH  16  17
HETATM   17  C   UNL     1     -12.091   8.634  72.129  1.00  0.00    -0.451 C  
HETATM   18  C   UNL     1     -12.394   7.251  71.607  1.00  0.00    -0.352 C  
HETATM   19  O   UNL     1     -13.481   6.859  71.216  1.00  0.00    -0.268 OA 
HETATM   20  O   UNL     1     -11.302   6.449  71.617  1.00  0.00    -0.264 OA 
ENDBRANCH  16  17
ENDBRANCH  15  16
ENDBRANCH  14  15
ENDBRANCH  13  14
ENDBRANCH  12  13
ENDBRANCH  11  12
ENDBRANCH  10  11
ENDBRANCH   8   9
ENDBRANCH   7   8
ENDBRANCH   5   6
ENDBRANCH   4   5
ENDBRANCH   3   4
ENDBRANCH   2   3
TORSDOF 13
ENDMDL
MODEL       47
REMARK 921   NORMALIZED FREE ENERGY PREDICTED BY IDOCK:   -4.52 KCAL/MOL
REMARK 922        TOTAL FREE ENERGY PREDICTED BY IDOCK:   -9.70 KCAL/MOL
REMARK 923 INTER-LIGAND FREE ENERGY PREDICTED BY IDOCK:   -7.88 KCAL/MOL
REMARK 924 INTRA-LIGAND FREE ENERGY PREDICTED BY IDOCK:   -1.82 KCAL/MOL
REMARK 927      BINDING AFFINITY PREDICTED BY RF-SCORE:    0.00 PKD
ROOT
HETATM    1  C   UNL     1      -9.339  15.798  65.946  1.00  0.00    -0.356 C  
HETATM    2  C   UNL     1     -10.699  15.203  66.267  1.00  0.00    -0.320 C  
ENDROOT
BRANCH   2   3
HETATM    3  C   UNL     1     -11.473  14.885  64.995  1.00  0.00    -0.379 C  
BRANCH   3   4
HETATM    4  C   UNL     1     -12.648  13.952  65.282  1.00  0.00    -0.508 C  
BRANCH   4   5
HETATM    5  C   UNL     1     -12.185  12.504  65.201  1.00  0.00    -0.509 C  
BRANCH   5   6
HETATM    6  C   UNL     1     -11.117  12.277  64.174  1.00  0.00    -0.423 C  
HETATM    7  C   UNL     1     -10.009  11.564  64.430  1.00  0.00    -0.311 C  
BRANCH   7   8
HETATM    8  C   UNL     1      -9.692  10.940  65.757  1.00  0.00    -0.270 C  
BRANCH   8   9
HETATM    9  C   UNL     1      -9.182  11.950  66.741  1.00  0.00    -0.194 C  
HETATM   10  C   UNL     1      -9.424  11.907  68.060  1.00  0.00    -0.197 C  
BRANCH  10  11
HETATM   11  C   UNL     1     -10.269  10.840  68.689  1.00  0.00    -0.198 C  
BRANCH  11  12
HETATM   12  C   UNL     1     -11.749  11.186  68.714  1.00  0.00    -0.394 C  
BRANCH  12  13
HETATM   13  C   UNL     1     -12.035  12.128  69.881  1.00  0.00    -0.380 C  
BRANCH  13  14
HETATM   14  C   UNL     1     -12.626  11.361  71.055  1.00  0.00    -0.487 C  
BRANCH  14  15
HETATM   15  C   UNL     1     -13.407  12.283  71.986  1.00  0.00    -0.491 C  
BRANCH  15  16
HETATM   16  C   UNL     1     -13.129  13.742  71.638  1.00  0.00    -0.456 C  
BRANCH  16  17
HETATM   17  C   UNL     1     -13.039  14.614  72.886  1.00  0.00    -0.609 C  
HETATM   18  C   UNL     1     -12.253  15.875  72.622  1.00  0.00    -0.502 C  
HETATM   19  O   UNL     1     -11.743  16.188  71.559  1.00  0.00    -0.455 OA 
HETATM   20  O   UNL     1     -12.161  16.660  73.722  1.00  0.00    -0.440 OA 
ENDBRANCH  16  17
ENDBRANCH  15  16
ENDBRANCH  14  15
ENDBRANCH  13  14
ENDBRANCH  12  13
ENDBRANCH  11  12
ENDBRANCH  10  11
ENDBRANCH   8   9
ENDBRANCH   7   8
ENDBRANCH   5   6
ENDBRANCH   4   5
ENDBRANCH   3   4
ENDBRANCH   2   3
TORSDOF 13
ENDMDL
MODEL       48
REMARK 921   NORMALIZED FREE ENERGY PREDICTED BY IDOCK:   -4.51 KCAL/MOL
REMARK 922        TOTAL FREE ENERGY PREDICTED BY IDOCK:   -9.69 KCAL/MOL
REMARK 923 INTER-LIGAND FREE ENERGY PREDICTED BY IDOCK:   -7.19 KCAL/MOL
REMARK 924 INTRA-LIGAND FREE ENERGY PREDICTED BY IDOCK:   -2.49 KCAL/MOL
REMARK 927      BINDING AFFINITY PREDICTED BY RF-SCORE:    0.00 PKD
ROOT
HETATM    1  C   UNL     1      -9.368   8.963  67.999  1.00  0.00    -0.153 C  
HETATM    2  C   UNL     1     -10.054   9.259  66.677  1.00  0.00    -0.341 C  
ENDROOT
BRANCH   2   3
HETATM    3  C   UNL     1      -9.166  10.106  65.776  1.00  0.00    -0.221 C  
BRANCH   3   4
HETATM    4  C   UNL     1      -9.886  10.475  64.480  1.00  0.00    -0.401 C  
BRANCH   4   5
HETATM    5  C   UNL     1     -10.931  11.545  64.761  1.00  0.00    -0.338 C  
BRANCH   5   6
HETATM    6  C   UNL     1     -11.596  12.068  63.523  1.00  0.00    -0.553 C  
HETATM    7  C   UNL     1     -12.223  13.255  63.487  1.00  0.00    -0.513 C  
BRANCH   7   8
HETATM    8  C   UNL     1     -12.360  14.175  64.664  1.00  0.00    -0.432 C  
BRANCH   8   9
HETATM    9  C   UNL     1     -11.349  15.282  64.627  1.00  0.00    -0.364 C  
HETATM   10  C   UNL     1     -10.571  15.627  65.664  1.00  0.00    -0.393 C  
BRANCH  10  11
HETATM   11  C   UNL     1     -10.657  14.947  66.997  1.00  0.00    -0.289 C  
BRANCH  11  12
HETATM   12  C   UNL     1      -9.535  13.948  67.232  1.00  0.00    -0.239 C  
BRANCH  12  13
HETATM   13  C   UNL     1     -10.021  12.842  68.166  1.00  0.00    -0.234 C  
BRANCH  13  14
HETATM   14  C   UNL     1     -11.540  12.763  68.155  1.00  0.00    -0.380 C  
BRANCH  14  15
HETATM   15  C   UNL     1     -12.032  11.441  68.737  1.00  0.00    -0.353 C  
BRANCH  15  16
HETATM   16  C   UNL     1     -11.629  11.328  70.204  1.00  0.00    -0.393 C  
BRANCH  16  17
HETATM   17  C   UNL     1     -12.556  10.392  70.973  1.00  0.00    -0.491 C  
HETATM   18  C   UNL     1     -11.778   9.319  71.696  1.00  0.00    -0.392 C  
HETATM   19  O   UNL     1     -10.565   9.189  71.687  1.00  0.00    -0.339 OA 
HETATM   20  O   UNL     1     -12.587   8.476  72.382  1.00  0.00    -0.374 OA 
ENDBRANCH  16  17
ENDBRANCH  15  16
ENDBRANCH  14  15
ENDBRANCH  13  14
ENDBRANCH  12  13
ENDBRANCH  11  12
ENDBRANCH  10  11
ENDBRANCH   8   9
ENDBRANCH   7   8
ENDBRANCH   5   6
ENDBRANCH   4   5
ENDBRANCH   3   4
ENDBRANCH   2   3
TORSDOF 13
ENDMDL
MODEL       49
REMARK 921   NORMALIZED FREE ENERGY PREDICTED BY IDOCK:   -4.51 KCAL/MOL
REMARK 922        TOTAL FREE ENERGY PREDICTED BY IDOCK:   -9.68 KCAL/MOL
REMARK 923 INTER-LIGAND FREE ENERGY PREDICTED BY IDOCK:   -7.91 KCAL/MOL
REMARK 924 INTRA-LIGAND FREE ENERGY PREDICTED BY IDOCK:   -1.76 KCAL/MOL
REMARK 927      BINDING AFFINITY PREDICTED BY RF-SCORE:    0.00 PKD
ROOT
HETATM    1  C   UNL     1     -11.365   6.319  69.855  1.00  0.00    -0.504 C  
HETATM    2  C   UNL     1      -9.978   6.892  70.087  1.00  0.00    -0.188 C  
ENDROOT
BRANCH   2   3
HETATM    3  C   UNL     1      -9.887   8.329  69.591  1.00  0.00    -0.184 C  
BRANCH   3   4
HETATM    4  C   UNL     1     -10.035   9.321  70.743  1.00  0.00    -0.357 C  
BRANCH   4   5
HETATM    5  C   UNL     1     -11.198  10.263  70.462  1.00  0.00    -0.408 C  
BRANCH   5   6
HETATM    6  C   UNL     1     -12.390  10.014  71.337  1.00  0.00    -0.512 C  
HETATM    7  C   UNL     1     -13.193  11.003  71.760  1.00  0.00    -0.505 C  
BRANCH   7   8
HETATM    8  C   UNL     1     -12.989  12.454  71.439  1.00  0.00    -0.348 C  
BRANCH   8   9
HETATM    9  C   UNL     1     -13.719  13.346  72.398  1.00  0.00    -0.698 C  
HETATM   10  C   UNL     1     -13.817  14.678  72.265  1.00  0.00    -0.583 C  
BRANCH  10  11
HETATM   11  C   UNL     1     -13.169  15.424  71.138  1.00  0.00    -0.583 C  
BRANCH  11  12
HETATM   12  C   UNL     1     -11.714  15.771  71.408  1.00  0.00    -0.508 C  
BRANCH  12  13
HETATM   13  C   UNL     1     -10.888  15.533  70.146  1.00  0.00    -0.346 C  
BRANCH  13  14
HETATM   14  C   UNL     1     -11.728  15.784  68.902  1.00  0.00    -0.404 C  
BRANCH  14  15
HETATM   15  C   UNL     1     -11.436  14.752  67.816  1.00  0.00    -0.363 C  
BRANCH  15  16
HETATM   16  C   UNL     1     -11.616  13.341  68.367  1.00  0.00    -0.372 C  
BRANCH  16  17
HETATM   17  C   UNL     1     -11.633  12.299  67.254  1.00  0.00    -0.427 C  
HETATM   18  C   UNL     1     -10.266  11.694  67.045  1.00  0.00    -0.212 C  
HETATM   19  O   UNL     1      -9.257  11.980  67.669  1.00  0.00    -0.172 OA 
HETATM   20  O   UNL     1     -10.262  10.767  66.057  1.00  0.00    -0.239 OA 
ENDBRANCH  16  17
ENDBRANCH  15  16
ENDBRANCH  14  15
ENDBRANCH  13  14
ENDBRANCH  12  13
ENDBRANCH  11  12
ENDBRANCH  10  11
ENDBRANCH   8   9
ENDBRANCH   7   8
ENDBRANCH   5   6
ENDBRANCH   4   5
ENDBRANCH   3   4
ENDBRANCH   2   3
TORSDOF 13
ENDMDL
MODEL       50
REMARK 921   NORMALIZED FREE ENERGY PREDICTED BY IDOCK:   -4.49 KCAL/MOL
REMARK 922        TOTAL FREE ENERGY PREDICTED BY IDOCK:   -9.65 KCAL/MOL
REMARK 923 INTER-LIGAND FREE ENERGY PREDICTED BY IDOCK:   -7.50 KCAL/MOL
REMARK 924 INTRA-LIGAND FREE ENERGY PREDICTED BY IDOCK:   -2.15 KCAL/MOL
REMARK 927      BINDING AFFINITY PREDICTED BY RF-SCORE:    0.00 PKD
ROOT
HETATM    1  C   UNL     1     -12.582  10.137  71.131  1.00  0.00    -0.486 C  
HETATM    2  C   UNL     1     -13.393  11.144  71.927  1.00  0.00    -0.409 C  
ENDROOT
BRANCH   2   3
HETATM    3  C   UNL     1     -13.020  12.571  71.550  1.00  0.00    -0.379 C  
BRANCH   3   4
HETATM    4  C   UNL     1     -13.857  13.585  72.327  1.00  0.00    -0.680 C  
BRANCH   4   5
HETATM    5  C   UNL     1     -13.804  14.937  71.628  1.00  0.00    -0.549 C  
BRANCH   5   6
HETATM    6  C   UNL     1     -12.635  15.778  72.046  1.00  0.00    -0.524 C  
HETATM    7  C   UNL     1     -11.612  16.052  71.221  1.00  0.00    -0.506 C  
BRANCH   7   8
HETATM    8  C   UNL     1     -11.498  15.541  69.816  1.00  0.00    -0.339 C  
BRANCH   8   9
HETATM    9  C   UNL     1     -10.083  15.583  69.320  1.00  0.00    -0.256 C  
HETATM   10  C   UNL     1      -9.740  15.721  68.030  1.00  0.00    -0.212 C  
BRANCH  10  11
HETATM   11  C   UNL     1     -10.756  15.821  66.933  1.00  0.00    -0.299 C  
BRANCH  11  12
HETATM   12  C   UNL     1     -10.169  15.591  65.550  1.00  0.00    -0.415 C  
BRANCH  12  13
HETATM   13  C   UNL     1     -10.694  14.275  64.982  1.00  0.00    -0.435 C  
BRANCH  13  14
HETATM   14  C   UNL     1     -11.897  13.791  65.779  1.00  0.00    -0.392 C  
BRANCH  14  15
HETATM   15  C   UNL     1     -11.701  12.359  66.268  1.00  0.00    -0.457 C  
BRANCH  15  16
HETATM   16  C   UNL     1     -11.681  12.321  67.793  1.00  0.00    -0.403 C  
BRANCH  16  17
HETATM   17  C   UNL     1     -10.295  11.982  68.331  1.00  0.00    -0.220 C  
HETATM   18  C   UNL     1     -10.084  10.490  68.409  1.00  0.00    -0.164 C  
HETATM   19  O   UNL     1     -10.896   9.637  68.090  1.00  0.00    -0.237 OA 
HETATM   20  O   UNL     1      -8.858  10.171  68.889  1.00  0.00    -0.136 OA 
ENDBRANCH  16  17
ENDBRANCH  15  16
ENDBRANCH  14  15
ENDBRANCH  13  14
ENDBRANCH  12  13
ENDBRANCH  11  12
ENDBRANCH  10  11
ENDBRANCH   8   9
ENDBRANCH   7   8
ENDBRANCH   5   6
ENDBRANCH   4   5
ENDBRANCH   3   4
ENDBRANCH   2   3
TORSDOF 13
ENDMDL
MODEL       51
REMARK 921   NORMALIZED FREE ENERGY PREDICTED BY IDOCK:   -4.49 KCAL/MOL
REMARK 922        TOTAL FREE ENERGY PREDICTED BY IDOCK:   -9.64 KCAL/MOL
REMARK 923 INTER-LIGAND FREE ENERGY PREDICTED BY IDOCK:   -8.19 KCAL/MOL
REMARK 924 INTRA-LIGAND FREE ENERGY PREDICTED BY IDOCK:   -1.45 KCAL/MOL
REMARK 927      BINDING AFFINITY PREDICTED BY RF-SCORE:    0.00 PKD
ROOT
HETATM    1  C   UNL     1     -11.907  12.224  63.907  1.00  0.00    -0.553 C  
HETATM    2  C   UNL     1     -12.180  13.680  64.236  1.00  0.00    -0.445 C  
ENDROOT
BRANCH   2   3
HETATM    3  C   UNL     1     -12.585  13.847  65.695  1.00  0.00    -0.553 C  
BRANCH   3   4
HETATM    4  C   UNL     1     -11.733  12.969  66.608  1.00  0.00    -0.438 C  
BRANCH   4   5
HETATM    5  C   UNL     1     -11.672  13.584  68.000  1.00  0.00    -0.394 C  
BRANCH   5   6
HETATM    6  C   UNL     1     -11.647  15.083  67.988  1.00  0.00    -0.356 C  
HETATM    7  C   UNL     1     -11.799  15.816  69.102  1.00  0.00    -0.367 C  
BRANCH   7   8
HETATM    8  C   UNL     1     -12.036  15.241  70.467  1.00  0.00    -0.384 C  
BRANCH   8   9
HETATM    9  C   UNL     1     -13.478  15.330  70.869  1.00  0.00    -0.441 C  
HETATM   10  C   UNL     1     -14.047  14.563  71.812  1.00  0.00    -0.578 C  
BRANCH  10  11
HETATM   11  C   UNL     1     -13.289  13.502  72.551  1.00  0.00    -0.617 C  
BRANCH  11  12
HETATM   12  C   UNL     1     -13.535  12.104  72.009  1.00  0.00    -0.388 C  
BRANCH  12  13
HETATM   13  C   UNL     1     -12.454  11.752  70.990  1.00  0.00    -0.411 C  
BRANCH  13  14
HETATM   14  C   UNL     1     -12.531  10.279  70.616  1.00  0.00    -0.407 C  
BRANCH  14  15
HETATM   15  C   UNL     1     -12.609   9.394  71.857  1.00  0.00    -0.481 C  
BRANCH  15  16
HETATM   16  C   UNL     1     -11.265   8.716  72.107  1.00  0.00    -0.438 C  
BRANCH  16  17
HETATM   17  C   UNL     1     -10.475   8.536  70.815  1.00  0.00    -0.239 C  
HETATM   18  C   UNL     1      -8.995   8.727  71.043  1.00  0.00    -0.217 C  
HETATM   19  O   UNL     1      -8.467   8.992  72.110  1.00  0.00    -0.365 OA 
HETATM   20  O   UNL     1      -8.278   8.574  69.904  1.00  0.00    -0.115 OA 
ENDBRANCH  16  17
ENDBRANCH  15  16
ENDBRANCH  14  15
ENDBRANCH  13  14
ENDBRANCH  12  13
ENDBRANCH  11  12
ENDBRANCH  10  11
ENDBRANCH   8   9
ENDBRANCH   7   8
ENDBRANCH   5   6
ENDBRANCH   4   5
ENDBRANCH   3   4
ENDBRANCH   2   3
TORSDOF 13
ENDMDL
MODEL       52
REMARK 921   NORMALIZED FREE ENERGY PREDICTED BY IDOCK:   -4.48 KCAL/MOL
REMARK 922        TOTAL FREE ENERGY PREDICTED BY IDOCK:   -9.64 KCAL/MOL
REMARK 923 INTER-LIGAND FREE ENERGY PREDICTED BY IDOCK:   -8.14 KCAL/MOL
REMARK 924 INTRA-LIGAND FREE ENERGY PREDICTED BY IDOCK:   -1.49 KCAL/MOL
REMARK 927      BINDING AFFINITY PREDICTED BY RF-SCORE:    0.00 PKD
ROOT
HETATM    1  C   UNL     1     -12.359  16.087  72.984  1.00  0.00    -0.625 C  
HETATM    2  C   UNL     1     -13.843  15.832  72.788  1.00  0.00    -0.600 C  
ENDROOT
BRANCH   2   3
HETATM    3  C   UNL     1     -14.103  15.058  71.503  1.00  0.00    -0.613 C  
BRANCH   3   4
HETATM    4  C   UNL     1     -12.799  14.753  70.769  1.00  0.00    -0.418 C  
BRANCH   4   5
HETATM    5  C   UNL     1     -12.583  13.246  70.712  1.00  0.00    -0.357 C  
BRANCH   5   6
HETATM    6  C   UNL     1     -13.055  12.530  71.941  1.00  0.00    -0.473 C  
HETATM    7  C   UNL     1     -13.202  11.197  71.988  1.00  0.00    -0.428 C  
BRANCH   7   8
HETATM    8  C   UNL     1     -12.943  10.276  70.832  1.00  0.00    -0.456 C  
BRANCH   8   9
HETATM    9  C   UNL     1     -11.533   9.765  70.830  1.00  0.00    -0.447 C  
HETATM   10  C   UNL     1     -10.718   9.806  69.765  1.00  0.00    -0.283 C  
BRANCH  10  11
HETATM   11  C   UNL     1     -11.154  10.350  68.438  1.00  0.00    -0.322 C  
BRANCH  11  12
HETATM   12  C   UNL     1     -10.431  11.630  68.050  1.00  0.00    -0.217 C  
BRANCH  12  13
HETATM   13  C   UNL     1     -11.151  12.288  66.875  1.00  0.00    -0.341 C  
BRANCH  13  14
HETATM   14  C   UNL     1     -10.324  13.437  66.317  1.00  0.00    -0.291 C  
BRANCH  14  15
HETATM   15  C   UNL     1     -11.022  14.778  66.525  1.00  0.00    -0.325 C  
BRANCH  15  16
HETATM   16  C   UNL     1     -10.003  15.852  66.891  1.00  0.00    -0.253 C  
BRANCH  16  17
HETATM   17  C   UNL     1     -10.658  17.035  67.596  1.00  0.00    -0.333 C  
HETATM   18  C   UNL     1     -10.338  18.337  66.903  1.00  0.00    -0.385 C  
HETATM   19  O   UNL     1      -9.648  18.462  65.905  1.00  0.00    -0.499 OA 
HETATM   20  O   UNL     1     -10.910  19.399  67.520  1.00  0.00    -0.478 OA 
ENDBRANCH  16  17
ENDBRANCH  15  16
ENDBRANCH  14  15
ENDBRANCH  13  14
ENDBRANCH  12  13
ENDBRANCH  11  12
ENDBRANCH  10  11
ENDBRANCH   8   9
ENDBRANCH   7   8
ENDBRANCH   5   6
ENDBRANCH   4   5
ENDBRANCH   3   4
ENDBRANCH   2   3
TORSDOF 13
ENDMDL
MODEL       53
REMARK 921   NORMALIZED FREE ENERGY PREDICTED BY IDOCK:   -4.48 KCAL/MOL
REMARK 922        TOTAL FREE ENERGY PREDICTED BY IDOCK:   -9.63 KCAL/MOL
REMARK 923 INTER-LIGAND FREE ENERGY PREDICTED BY IDOCK:   -7.71 KCAL/MOL
REMARK 924 INTRA-LIGAND FREE ENERGY PREDICTED BY IDOCK:   -1.92 KCAL/MOL
REMARK 927      BINDING AFFINITY PREDICTED BY RF-SCORE:    0.00 PKD
ROOT
HETATM    1  C   UNL     1      -7.981  10.214  63.842  1.00  0.00    -0.153 C  
HETATM    2  C   UNL     1      -8.859  10.802  62.751  1.00  0.00    -0.291 C  
ENDROOT
BRANCH   2   3
HETATM    3  C   UNL     1      -9.885  11.766  63.331  1.00  0.00    -0.407 C  
BRANCH   3   4
HETATM    4  C   UNL     1     -10.558  11.176  64.570  1.00  0.00    -0.397 C  
BRANCH   4   5
HETATM    5  C   UNL     1     -11.719  12.064  64.994  1.00  0.00    -0.316 C  
BRANCH   5   6
HETATM    6  C   UNL     1     -12.177  13.001  63.917  1.00  0.00    -0.511 C  
HETATM    7  C   UNL     1     -12.284  14.325  64.110  1.00  0.00    -0.410 C  
BRANCH   7   8
HETATM    8  C   UNL     1     -11.990  15.018  65.408  1.00  0.00    -0.039 C  
BRANCH   8   9
HETATM    9  C   UNL     1     -10.771  15.886  65.314  1.00  0.00    -0.442 C  
HETATM   10  C   UNL     1      -9.573  15.560  65.822  1.00  0.00    -0.367 C  
BRANCH  10  11
HETATM   11  C   UNL     1      -9.336  14.285  66.573  1.00  0.00    -0.292 C  
BRANCH  11  12
HETATM   12  C   UNL     1      -9.601  14.411  68.065  1.00  0.00    -0.216 C  
BRANCH  12  13
HETATM   13  C   UNL     1     -10.529  13.286  68.517  1.00  0.00    -0.259 C  
BRANCH  13  14
HETATM   14  C   UNL     1     -11.939  13.814  68.742  1.00  0.00    -0.400 C  
BRANCH  14  15
HETATM   15  C   UNL     1     -12.206  14.071  70.222  1.00  0.00    -0.430 C  
BRANCH  15  16
HETATM   16  C   UNL     1     -12.282  15.570  70.493  1.00  0.00    -0.444 C  
BRANCH  16  17
HETATM   17  C   UNL     1     -11.860  15.909  71.919  1.00  0.00    -0.595 C  
HETATM   18  C   UNL     1     -13.045  15.932  72.853  1.00  0.00    -0.507 C  
HETATM   19  O   UNL     1     -14.204  15.714  72.540  1.00  0.00    -0.557 OA 
HETATM   20  O   UNL     1     -12.688  16.235  74.124  1.00  0.00    -0.679 OA 
ENDBRANCH  16  17
ENDBRANCH  15  16
ENDBRANCH  14  15
ENDBRANCH  13  14
ENDBRANCH  12  13
ENDBRANCH  11  12
ENDBRANCH  10  11
ENDBRANCH   8   9
ENDBRANCH   7   8
ENDBRANCH   5   6
ENDBRANCH   4   5
ENDBRANCH   3   4
ENDBRANCH   2   3
TORSDOF 13
ENDMDL
MODEL       54
REMARK 921   NORMALIZED FREE ENERGY PREDICTED BY IDOCK:   -4.48 KCAL/MOL
REMARK 922        TOTAL FREE ENERGY PREDICTED BY IDOCK:   -9.63 KCAL/MOL
REMARK 923 INTER-LIGAND FREE ENERGY PREDICTED BY IDOCK:   -7.44 KCAL/MOL
REMARK 924 INTRA-LIGAND FREE ENERGY PREDICTED BY IDOCK:   -2.19 KCAL/MOL
REMARK 927      BINDING AFFINITY PREDICTED BY RF-SCORE:    0.00 PKD
ROOT
HETATM    1  C   UNL     1     -10.202  19.776  66.101  1.00  0.00    -0.618 C  
HETATM    2  C   UNL     1      -9.234  18.633  66.356  1.00  0.00    -0.295 C  
ENDROOT
BRANCH   2   3
HETATM    3  C   UNL     1      -9.973  17.308  66.492  1.00  0.00    -0.310 C  
BRANCH   3   4
HETATM    4  C   UNL     1      -9.000  16.131  66.487  1.00  0.00    -0.322 C  
BRANCH   4   5
HETATM    5  C   UNL     1      -9.690  14.897  65.922  1.00  0.00    -0.366 C  
BRANCH   5   6
HETATM    6  C   UNL     1     -10.731  14.326  66.837  1.00  0.00    -0.290 C  
HETATM    7  C   UNL     1     -11.935  13.924  66.400  1.00  0.00    -0.467 C  
BRANCH   7   8
HETATM    8  C   UNL     1     -12.392  14.019  64.974  1.00  0.00    -0.458 C  
BRANCH   8   9
HETATM    9  C   UNL     1     -12.767  12.678  64.418  1.00  0.00    -0.417 C  
HETATM   10  C   UNL     1     -11.910  11.852  63.797  1.00  0.00    -0.558 C  
BRANCH  10  11
HETATM   11  C   UNL     1     -10.473  12.208  63.569  1.00  0.00    -0.490 C  
BRANCH  11  12
HETATM   12  C   UNL     1      -9.505  11.275  64.279  1.00  0.00    -0.203 C  
BRANCH  12  13
HETATM   13  C   UNL     1     -10.267  10.419  65.289  1.00  0.00    -0.332 C  
BRANCH  13  14
HETATM   14  C   UNL     1      -9.838  10.759  66.709  1.00  0.00    -0.233 C  
BRANCH  14  15
HETATM   15  C   UNL     1     -10.996  10.607  67.691  1.00  0.00    -0.370 C  
BRANCH  15  16
HETATM   16  C   UNL     1     -10.607  11.167  69.055  1.00  0.00    -0.251 C  
BRANCH  16  17
HETATM   17  C   UNL     1     -11.805  11.246  69.995  1.00  0.00    -0.448 C  
HETATM   18  C   UNL     1     -11.880  10.038  70.897  1.00  0.00    -0.368 C  
HETATM   19  O   UNL     1     -11.098   9.101  70.899  1.00  0.00    -0.249 OA 
HETATM   20  O   UNL     1     -12.941  10.091  71.737  1.00  0.00    -0.392 OA 
ENDBRANCH  16  17
ENDBRANCH  15  16
ENDBRANCH  14  15
ENDBRANCH  13  14
ENDBRANCH  12  13
ENDBRANCH  11  12
ENDBRANCH  10  11
ENDBRANCH   8   9
ENDBRANCH   7   8
ENDBRANCH   5   6
ENDBRANCH   4   5
ENDBRANCH   3   4
ENDBRANCH   2   3
TORSDOF 13
ENDMDL
MODEL       55
REMARK 921   NORMALIZED FREE ENERGY PREDICTED BY IDOCK:   -4.47 KCAL/MOL
REMARK 922        TOTAL FREE ENERGY PREDICTED BY IDOCK:   -9.62 KCAL/MOL
REMARK 923 INTER-LIGAND FREE ENERGY PREDICTED BY IDOCK:   -7.67 KCAL/MOL
REMARK 924 INTRA-LIGAND FREE ENERGY PREDICTED BY IDOCK:   -1.95 KCAL/MOL
REMARK 927      BINDING AFFINITY PREDICTED BY RF-SCORE:    0.00 PKD
ROOT
HETATM    1  C   UNL     1     -12.583   9.206  71.772  1.00  0.00    -0.446 C  
HETATM    2  C   UNL     1     -13.063  10.619  71.487  1.00  0.00    -0.527 C  
ENDROOT
BRANCH   2   3
HETATM    3  C   UNL     1     -12.152  11.316  70.486  1.00  0.00    -0.481 C  
BRANCH   3   4
HETATM    4  C   UNL     1     -11.263  10.312  69.755  1.00  0.00    -0.339 C  
BRANCH   4   5
HETATM    5  C   UNL     1     -11.161  10.693  68.284  1.00  0.00    -0.362 C  
BRANCH   5   6
HETATM    6  C   UNL     1      -9.782  11.113  67.872  1.00  0.00    -0.184 C  
HETATM    7  C   UNL     1      -9.315  10.932  66.627  1.00  0.00    -0.191 C  
BRANCH   7   8
HETATM    8  C   UNL     1     -10.086  10.276  65.520  1.00  0.00    -0.351 C  
BRANCH   8   9
HETATM    9  C   UNL     1      -9.591  10.697  64.169  1.00  0.00    -0.353 C  
HETATM   10  C   UNL     1     -10.312  11.412  63.290  1.00  0.00    -0.422 C  
BRANCH  10  11
HETATM   11  C   UNL     1     -11.720  11.843  63.567  1.00  0.00    -0.550 C  
BRANCH  11  12
HETATM   12  C   UNL     1     -11.810  13.222  64.199  1.00  0.00    -0.497 C  
BRANCH  12  13
HETATM   13  C   UNL     1     -12.144  13.085  65.683  1.00  0.00    -0.507 C  
BRANCH  13  14
HETATM   14  C   UNL     1     -12.105  14.444  66.367  1.00  0.00    -0.390 C  
BRANCH  14  15
HETATM   15  C   UNL     1     -11.055  14.480  67.473  1.00  0.00    -0.316 C  
BRANCH  15  16
HETATM   16  C   UNL     1      -9.740  15.035  66.935  1.00  0.00    -0.247 C  
BRANCH  16  17
HETATM   17  C   UNL     1      -9.971  16.102  65.871  1.00  0.00    -0.384 C  
HETATM   18  C   UNL     1      -9.985  17.486  66.472  1.00  0.00    -0.321 C  
HETATM   19  O   UNL     1      -9.835  17.752  67.654  1.00  0.00    -0.282 OA 
HETATM   20  O   UNL     1     -10.193  18.447  65.540  1.00  0.00    -0.522 OA 
ENDBRANCH  16  17
ENDBRANCH  15  16
ENDBRANCH  14  15
ENDBRANCH  13  14
ENDBRANCH  12  13
ENDBRANCH  11  12
ENDBRANCH  10  11
ENDBRANCH   8   9
ENDBRANCH   7   8
ENDBRANCH   5   6
ENDBRANCH   4   5
ENDBRANCH   3   4
ENDBRANCH   2   3
TORSDOF 13
ENDMDL
MODEL       56
REMARK 921   NORMALIZED FREE ENERGY PREDICTED BY IDOCK:   -4.47 KCAL/MOL
REMARK 922        TOTAL FREE ENERGY PREDICTED BY IDOCK:   -9.61 KCAL/MOL
REMARK 923 INTER-LIGAND FREE ENERGY PREDICTED BY IDOCK:   -7.44 KCAL/MOL
REMARK 924 INTRA-LIGAND FREE ENERGY PREDICTED BY IDOCK:   -2.17 KCAL/MOL
REMARK 927      BINDING AFFINITY PREDICTED BY RF-SCORE:    0.00 PKD
ROOT
HETATM    1  C   UNL     1     -12.219  14.253  64.172  1.00  0.00    -0.410 C  
HETATM    2  C   UNL     1     -11.923  12.979  63.401  1.00  0.00    -0.592 C  
ENDROOT
BRANCH   2   3
HETATM    3  C   UNL     1     -11.345  11.906  64.314  1.00  0.00    -0.425 C  
BRANCH   3   4
HETATM    4  C   UNL     1     -11.432  12.323  65.781  1.00  0.00    -0.417 C  
BRANCH   4   5
HETATM    5  C   UNL     1     -10.884  11.211  66.664  1.00  0.00    -0.308 C  
BRANCH   5   6
HETATM    6  C   UNL     1     -10.708  11.619  68.095  1.00  0.00    -0.248 C  
HETATM    7  C   UNL     1      -9.626  12.285  68.528  1.00  0.00    -0.128 C  
BRANCH   7   8
HETATM    8  C   UNL     1      -8.467  12.673  67.657  1.00  0.00    -0.173 C  
BRANCH   8   9
HETATM    9  C   UNL     1      -7.877  13.989  68.068  1.00  0.00    -0.152 C  
HETATM   10  C   UNL     1      -8.226  15.171  67.535  1.00  0.00    -0.196 C  
BRANCH  10  11
HETATM   11  C   UNL     1      -9.237  15.291  66.436  1.00  0.00    -0.342 C  
BRANCH  11  12
HETATM   12  C   UNL     1     -10.396  16.211  66.787  1.00  0.00    -0.291 C  
BRANCH  12  13
HETATM   13  C   UNL     1     -11.409  15.455  67.642  1.00  0.00    -0.292 C  
BRANCH  13  14
HETATM   14  C   UNL     1     -11.399  15.978  69.071  1.00  0.00    -0.363 C  
BRANCH  14  15
HETATM   15  C   UNL     1     -12.389  15.219  69.949  1.00  0.00    -0.323 C  
BRANCH  15  16
HETATM   16  C   UNL     1     -11.764  14.916  71.308  1.00  0.00    -0.382 C  
BRANCH  16  17
HETATM   17  C   UNL     1     -11.900  16.093  72.267  1.00  0.00    -0.631 C  
HETATM   18  C   UNL     1     -12.426  15.651  73.611  1.00  0.00    -0.579 C  
HETATM   19  O   UNL     1     -12.715  14.508  73.922  1.00  0.00    -0.455 OA 
HETATM   20  O   UNL     1     -12.555  16.687  74.475  1.00  0.00    -0.732 OA 
ENDBRANCH  16  17
ENDBRANCH  15  16
ENDBRANCH  14  15
ENDBRANCH  13  14
ENDBRANCH  12  13
ENDBRANCH  11  12
ENDBRANCH  10  11
ENDBRANCH   8   9
ENDBRANCH   7   8
ENDBRANCH   5   6
ENDBRANCH   4   5
ENDBRANCH   3   4
ENDBRANCH   2   3
TORSDOF 13
ENDMDL
MODEL       57
REMARK 921   NORMALIZED FREE ENERGY PREDICTED BY IDOCK:   -4.46 KCAL/MOL
REMARK 922        TOTAL FREE ENERGY PREDICTED BY IDOCK:   -9.59 KCAL/MOL
REMARK 923 INTER-LIGAND FREE ENERGY PREDICTED BY IDOCK:   -7.59 KCAL/MOL
REMARK 924 INTRA-LIGAND FREE ENERGY PREDICTED BY IDOCK:   -2.00 KCAL/MOL
REMARK 927      BINDING AFFINITY PREDICTED BY RF-SCORE:    0.00 PKD
ROOT
HETATM    1  C   UNL     1     -13.589  13.239  72.263  1.00  0.00    -0.703 C  
HETATM    2  C   UNL     1     -12.613  13.250  71.099  1.00  0.00    -0.412 C  
ENDROOT
BRANCH   2   3
HETATM    3  C   UNL     1     -12.325  11.837  70.610  1.00  0.00    -0.421 C  
BRANCH   3   4
HETATM    4  C   UNL     1     -12.986  10.796  71.511  1.00  0.00    -0.562 C  
BRANCH   4   5
HETATM    5  C   UNL     1     -12.385   9.424  71.236  1.00  0.00    -0.422 C  
BRANCH   5   6
HETATM    6  C   UNL     1     -12.061   8.655  72.481  1.00  0.00    -0.368 C  
HETATM    7  C   UNL     1     -10.965   7.888  72.591  1.00  0.00    -0.440 C  
BRANCH   7   8
HETATM    8  C   UNL     1      -9.960   7.686  71.495  1.00  0.00    -0.200 C  
BRANCH   8   9
HETATM    9  C   UNL     1      -8.921   8.767  71.484  1.00  0.00    -0.306 C  
HETATM   10  C   UNL     1      -8.465   9.365  70.372  1.00  0.00    -0.247 C  
BRANCH  10  11
HETATM   11  C   UNL     1      -8.939   8.983  69.002  1.00  0.00    -0.140 C  
BRANCH  11  12
HETATM   12  C   UNL     1      -9.814  10.043  68.355  1.00  0.00    -0.169 C  
BRANCH  12  13
HETATM   13  C   UNL     1      -9.328  11.431  68.766  1.00  0.00    -0.115 C  
BRANCH  13  14
HETATM   14  C   UNL     1      -9.270  12.356  67.559  1.00  0.00    -0.183 C  
BRANCH  14  15
HETATM   15  C   UNL     1     -10.328  13.453  67.649  1.00  0.00    -0.238 C  
BRANCH  15  16
HETATM   16  C   UNL     1     -11.688  12.910  67.221  1.00  0.00    -0.431 C  
BRANCH  16  17
HETATM   17  C   UNL     1     -11.675  12.430  65.773  1.00  0.00    -0.470 C  
HETATM   18  C   UNL     1     -12.508  13.326  64.889  1.00  0.00    -0.409 C  
HETATM   19  O   UNL     1     -13.125  14.313  65.253  1.00  0.00    -0.707 OA 
HETATM   20  O   UNL     1     -12.509  12.912  63.599  1.00  0.00    -0.652 OA 
ENDBRANCH  16  17
ENDBRANCH  15  16
ENDBRANCH  14  15
ENDBRANCH  13  14
ENDBRANCH  12  13
ENDBRANCH  11  12
ENDBRANCH  10  11
ENDBRANCH   8   9
ENDBRANCH   7   8
ENDBRANCH   5   6
ENDBRANCH   4   5
ENDBRANCH   3   4
ENDBRANCH   2   3
TORSDOF 13
ENDMDL
MODEL       58
REMARK 921   NORMALIZED FREE ENERGY PREDICTED BY IDOCK:   -4.45 KCAL/MOL
REMARK 922        TOTAL FREE ENERGY PREDICTED BY IDOCK:   -9.58 KCAL/MOL
REMARK 923 INTER-LIGAND FREE ENERGY PREDICTED BY IDOCK:   -7.39 KCAL/MOL
REMARK 924 INTRA-LIGAND FREE ENERGY PREDICTED BY IDOCK:   -2.19 KCAL/MOL
REMARK 927      BINDING AFFINITY PREDICTED BY RF-SCORE:    0.00 PKD
ROOT
HETATM    1  C   UNL     1     -10.420   7.467  73.128  1.00  0.00    -0.406 C  
HETATM    2  C   UNL     1     -11.672   8.023  72.472  1.00  0.00    -0.446 C  
ENDROOT
BRANCH   2   3
HETATM    3  C   UNL     1     -11.648   7.799  70.966  1.00  0.00    -0.301 C  
BRANCH   3   4
HETATM    4  C   UNL     1     -10.360   8.339  70.347  1.00  0.00    -0.214 C  
BRANCH   4   5
HETATM    5  C   UNL     1     -10.431   9.858  70.259  1.00  0.00    -0.348 C  
BRANCH   5   6
HETATM    6  C   UNL     1     -11.671  10.357  69.580  1.00  0.00    -0.283 C  
HETATM    7  C   UNL     1     -12.561  11.152  70.196  1.00  0.00    -0.249 C  
BRANCH   7   8
HETATM    8  C   UNL     1     -12.443  11.610  71.620  1.00  0.00    -0.154 C  
BRANCH   8   9
HETATM    9  C   UNL     1     -13.654  12.376  72.061  1.00  0.00    -0.349 C  
HETATM   10  C   UNL     1     -13.713  13.715  72.134  1.00  0.00    -0.649 C  
BRANCH  10  11
HETATM   11  C   UNL     1     -12.544  14.592  71.803  1.00  0.00    -0.417 C  
BRANCH  11  12
HETATM   12  C   UNL     1     -12.823  15.556  70.661  1.00  0.00    -0.466 C  
BRANCH  12  13
HETATM   13  C   UNL     1     -11.687  15.486  69.643  1.00  0.00    -0.371 C  
BRANCH  13  14
HETATM   14  C   UNL     1     -11.780  14.206  68.826  1.00  0.00    -0.380 C  
BRANCH  14  15
HETATM   15  C   UNL     1     -10.397  13.692  68.437  1.00  0.00    -0.248 C  
BRANCH  15  16
HETATM   16  C   UNL     1     -10.499  12.761  67.233  1.00  0.00    -0.238 C  
BRANCH  16  17
HETATM   17  C   UNL     1     -11.872  12.837  66.576  1.00  0.00    -0.471 C  
HETATM   18  C   UNL     1     -11.789  13.435  65.193  1.00  0.00    -0.350 C  
HETATM   19  O   UNL     1     -10.771  13.819  64.642  1.00  0.00    -0.387 OA 
HETATM   20  O   UNL     1     -13.003  13.512  64.595  1.00  0.00    -0.660 OA 
ENDBRANCH  16  17
ENDBRANCH  15  16
ENDBRANCH  14  15
ENDBRANCH  13  14
ENDBRANCH  12  13
ENDBRANCH  11  12
ENDBRANCH  10  11
ENDBRANCH   8   9
ENDBRANCH   7   8
ENDBRANCH   5   6
ENDBRANCH   4   5
ENDBRANCH   3   4
ENDBRANCH   2   3
TORSDOF 13
ENDMDL
MODEL       59
REMARK 921   NORMALIZED FREE ENERGY PREDICTED BY IDOCK:   -4.45 KCAL/MOL
REMARK 922        TOTAL FREE ENERGY PREDICTED BY IDOCK:   -9.57 KCAL/MOL
REMARK 923 INTER-LIGAND FREE ENERGY PREDICTED BY IDOCK:   -7.31 KCAL/MOL
REMARK 924 INTRA-LIGAND FREE ENERGY PREDICTED BY IDOCK:   -2.26 KCAL/MOL
REMARK 927      BINDING AFFINITY PREDICTED BY RF-SCORE:    0.00 PKD
ROOT
HETATM    1  C   UNL     1      -6.629  16.982  66.600  1.00  0.00    -0.272 C  
HETATM    2  C   UNL     1      -5.542  17.992  66.922  1.00  0.00    -0.164 C  
ENDROOT
BRANCH   2   3
HETATM    3  C   UNL     1      -6.031  19.022  67.932  1.00  0.00    -0.208 C  
BRANCH   3   4
HETATM    4  C   UNL     1      -7.273  18.525  68.669  1.00  0.00    -0.306 C  
BRANCH   4   5
HETATM    5  C   UNL     1      -8.326  19.625  68.697  1.00  0.00    -0.306 C  
BRANCH   5   6
HETATM    6  C   UNL     1      -8.574  20.245  67.356  1.00  0.00    -0.420 C  
HETATM    7  C   UNL     1      -9.606  19.888  66.575  1.00  0.00    -0.534 C  
BRANCH   7   8
HETATM    8  C   UNL     1     -10.605  18.825  66.927  1.00  0.00    -0.472 C  
BRANCH   8   9
HETATM    9  C   UNL     1     -10.393  17.574  66.127  1.00  0.00    -0.330 C  
HETATM   10  C   UNL     1     -10.185  16.362  66.664  1.00  0.00    -0.296 C  
BRANCH  10  11
HETATM   11  C   UNL     1     -10.112  16.139  68.145  1.00  0.00    -0.237 C  
BRANCH  11  12
HETATM   12  C   UNL     1      -9.920  14.679  68.521  1.00  0.00    -0.235 C  
BRANCH  12  13
HETATM   13  C   UNL     1     -11.211  14.131  69.125  1.00  0.00    -0.307 C  
BRANCH  13  14
HETATM   14  C   UNL     1     -11.576  12.799  68.486  1.00  0.00    -0.358 C  
BRANCH  14  15
HETATM   15  C   UNL     1     -10.681  12.493  67.289  1.00  0.00    -0.259 C  
BRANCH  15  16
HETATM   16  C   UNL     1     -11.523  12.027  66.106  1.00  0.00    -0.401 C  
BRANCH  16  17
HETATM   17  C   UNL     1     -12.257  13.188  65.443  1.00  0.00    -0.510 C  
HETATM   18  C   UNL     1     -12.008  13.220  63.955  1.00  0.00    -0.465 C  
HETATM   19  O   UNL     1     -11.314  12.434  63.331  1.00  0.00    -0.452 OA 
HETATM   20  O   UNL     1     -12.652  14.248  63.351  1.00  0.00    -0.777 OA 
ENDBRANCH  16  17
ENDBRANCH  15  16
ENDBRANCH  14  15
ENDBRANCH  13  14
ENDBRANCH  12  13
ENDBRANCH  11  12
ENDBRANCH  10  11
ENDBRANCH   8   9
ENDBRANCH   7   8
ENDBRANCH   5   6
ENDBRANCH   4   5
ENDBRANCH   3   4
ENDBRANCH   2   3
TORSDOF 13
ENDMDL
MODEL       60
REMARK 921   NORMALIZED FREE ENERGY PREDICTED BY IDOCK:   -4.44 KCAL/MOL
REMARK 922        TOTAL FREE ENERGY PREDICTED BY IDOCK:   -9.56 KCAL/MOL
REMARK 923 INTER-LIGAND FREE ENERGY PREDICTED BY IDOCK:   -6.86 KCAL/MOL
REMARK 924 INTRA-LIGAND FREE ENERGY PREDICTED BY IDOCK:   -2.70 KCAL/MOL
REMARK 927      BINDING AFFINITY PREDICTED BY RF-SCORE:    0.00 PKD
ROOT
HETATM    1  C   UNL     1      -9.926  11.304  63.294  1.00  0.00    -0.428 C  
HETATM    2  C   UNL     1     -11.293  11.722  63.807  1.00  0.00    -0.524 C  
ENDROOT
BRANCH   2   3
HETATM    3  C   UNL     1     -11.231  13.083  64.488  1.00  0.00    -0.372 C  
BRANCH   3   4
HETATM    4  C   UNL     1     -12.530  13.389  65.231  1.00  0.00    -0.532 C  
BRANCH   4   5
HETATM    5  C   UNL     1     -12.244  13.551  66.718  1.00  0.00    -0.392 C  
BRANCH   5   6
HETATM    6  C   UNL     1     -11.756  14.921  67.084  1.00  0.00    -0.292 C  
HETATM    7  C   UNL     1     -10.625  15.123  67.778  1.00  0.00    -0.264 C  
BRANCH   7   8
HETATM    8  C   UNL     1      -9.738  14.025  68.287  1.00  0.00    -0.225 C  
BRANCH   8   9
HETATM    9  C   UNL     1      -8.668  13.669  67.299  1.00  0.00    -0.223 C  
HETATM   10  C   UNL     1      -8.245  12.417  67.064  1.00  0.00    -0.141 C  
BRANCH  10  11
HETATM   11  C   UNL     1      -8.792  11.231  67.800  1.00  0.00    -0.141 C  
BRANCH  11  12
HETATM   12  C   UNL     1      -9.813  10.445  66.993  1.00  0.00    -0.234 C  
BRANCH  12  13
HETATM   13  C   UNL     1     -11.149  10.432  67.732  1.00  0.00    -0.365 C  
BRANCH  13  14
HETATM   14  C   UNL     1     -10.940  10.672  69.220  1.00  0.00    -0.294 C  
BRANCH  14  15
HETATM   15  C   UNL     1     -12.053  11.535  69.807  1.00  0.00    -0.374 C  
BRANCH  15  16
HETATM   16  C   UNL     1     -12.566  10.923  71.107  1.00  0.00    -0.532 C  
BRANCH  16  17
HETATM   17  C   UNL     1     -11.732   9.719  71.532  1.00  0.00    -0.450 C  
HETATM   18  C   UNL     1     -12.583   8.668  72.201  1.00  0.00    -0.391 C  
HETATM   19  O   UNL     1     -13.785   8.740  72.392  1.00  0.00    -0.421 OA 
HETATM   20  O   UNL     1     -11.856   7.592  72.588  1.00  0.00    -0.266 OA 
ENDBRANCH  16  17
ENDBRANCH  15  16
ENDBRANCH  14  15
ENDBRANCH  13  14
ENDBRANCH  12  13
ENDBRANCH  11  12
ENDBRANCH  10  11
ENDBRANCH   8   9
ENDBRANCH   7   8
ENDBRANCH   5   6
ENDBRANCH   4   5
ENDBRANCH   3   4
ENDBRANCH   2   3
TORSDOF 13
ENDMDL
MODEL       61
REMARK 921   NORMALIZED FREE ENERGY PREDICTED BY IDOCK:   -4.43 KCAL/MOL
REMARK 922        TOTAL FREE ENERGY PREDICTED BY IDOCK:   -9.54 KCAL/MOL
REMARK 923 INTER-LIGAND FREE ENERGY PREDICTED BY IDOCK:   -7.01 KCAL/MOL
REMARK 924 INTRA-LIGAND FREE ENERGY PREDICTED BY IDOCK:   -2.54 KCAL/MOL
REMARK 927      BINDING AFFINITY PREDICTED BY RF-SCORE:    0.00 PKD
ROOT
HETATM    1  C   UNL     1      -8.771  10.531  66.280  1.00  0.00    -0.159 C  
HETATM    2  C   UNL     1     -10.013   9.730  65.930  1.00  0.00    -0.345 C  
ENDROOT
BRANCH   2   3
HETATM    3  C   UNL     1     -10.288   8.659  66.978  1.00  0.00    -0.368 C  
BRANCH   3   4
HETATM    4  C   UNL     1      -8.998   7.971  67.417  1.00  0.00    -0.141 C  
BRANCH   4   5
HETATM    5  C   UNL     1      -9.307   6.939  68.493  1.00  0.00    -0.134 C  
BRANCH   5   6
HETATM    6  C   UNL     1     -10.759   6.575  68.568  1.00  0.00    -0.329 C  
HETATM    7  C   UNL     1     -11.366   6.265  69.725  1.00  0.00    -0.506 C  
BRANCH   7   8
HETATM    8  C   UNL     1     -10.677   6.219  71.057  1.00  0.00    -0.313 C  
BRANCH   8   9
HETATM    9  C   UNL     1     -11.379   7.062  72.078  1.00  0.00    -0.300 C  
HETATM   10  C   UNL     1     -11.025   8.318  72.392  1.00  0.00    -0.438 C  
BRANCH  10  11
HETATM   11  C   UNL     1      -9.851   9.004  71.762  1.00  0.00    -0.330 C  
BRANCH  11  12
HETATM   12  C   UNL     1     -10.225   9.832  70.543  1.00  0.00    -0.321 C  
BRANCH  12  13
HETATM   13  C   UNL     1     -11.681  10.279  70.655  1.00  0.00    -0.438 C  
BRANCH  13  14
HETATM   14  C   UNL     1     -12.118  10.998  69.387  1.00  0.00    -0.389 C  
BRANCH  14  15
HETATM   15  C   UNL     1     -11.646  12.449  69.381  1.00  0.00    -0.371 C  
BRANCH  15  16
HETATM   16  C   UNL     1     -11.014  12.793  68.036  1.00  0.00    -0.266 C  
BRANCH  16  17
HETATM   17  C   UNL     1     -12.013  12.659  66.892  1.00  0.00    -0.345 C  
HETATM   18  C   UNL     1     -12.036  13.900  66.033  1.00  0.00    -0.437 C  
HETATM   19  O   UNL     1     -11.356  14.899  66.204  1.00  0.00    -0.344 OA 
HETATM   20  O   UNL     1     -12.922  13.800  65.012  1.00  0.00    -0.732 OA 
ENDBRANCH  16  17
ENDBRANCH  15  16
ENDBRANCH  14  15
ENDBRANCH  13  14
ENDBRANCH  12  13
ENDBRANCH  11  12
ENDBRANCH  10  11
ENDBRANCH   8   9
ENDBRANCH   7   8
ENDBRANCH   5   6
ENDBRANCH   4   5
ENDBRANCH   3   4
ENDBRANCH   2   3
TORSDOF 13
ENDMDL
MODEL       62
REMARK 921   NORMALIZED FREE ENERGY PREDICTED BY IDOCK:   -4.43 KCAL/MOL
REMARK 922        TOTAL FREE ENERGY PREDICTED BY IDOCK:   -9.54 KCAL/MOL
REMARK 923 INTER-LIGAND FREE ENERGY PREDICTED BY IDOCK:   -7.49 KCAL/MOL
REMARK 924 INTRA-LIGAND FREE ENERGY PREDICTED BY IDOCK:   -2.05 KCAL/MOL
REMARK 927      BINDING AFFINITY PREDICTED BY RF-SCORE:    0.00 PKD
ROOT
HETATM    1  C   UNL     1     -13.078  12.822  71.645  1.00  0.00    -0.428 C  
HETATM    2  C   UNL     1     -13.090  11.311  71.794  1.00  0.00    -0.527 C  
ENDROOT
BRANCH   2   3
HETATM    3  C   UNL     1     -12.282  10.643  70.689  1.00  0.00    -0.459 C  
BRANCH   3   4
HETATM    4  C   UNL     1     -12.075  11.590  69.508  1.00  0.00    -0.351 C  
BRANCH   4   5
HETATM    5  C   UNL     1     -11.261  10.891  68.428  1.00  0.00    -0.347 C  
BRANCH   5   6
HETATM    6  C   UNL     1     -10.343   9.834  68.964  1.00  0.00    -0.222 C  
HETATM    7  C   UNL     1      -9.956   8.776  68.234  1.00  0.00    -0.202 C  
BRANCH   7   8
HETATM    8  C   UNL     1     -10.405   8.509  66.827  1.00  0.00    -0.346 C  
BRANCH   8   9
HETATM    9  C   UNL     1      -9.298   8.719  65.838  1.00  0.00    -0.284 C  
HETATM   10  C   UNL     1      -9.236   9.752  64.984  1.00  0.00    -0.307 C  
BRANCH  10  11
HETATM   11  C   UNL     1     -10.302  10.802  64.913  1.00  0.00    -0.369 C  
BRANCH  11  12
HETATM   12  C   UNL     1     -10.443  11.419  63.530  1.00  0.00    -0.477 C  
BRANCH  12  13
HETATM   13  C   UNL     1     -11.694  12.294  63.485  1.00  0.00    -0.584 C  
BRANCH  13  14
HETATM   14  C   UNL     1     -12.352  12.358  64.855  1.00  0.00    -0.475 C  
BRANCH  14  15
HETATM   15  C   UNL     1     -12.675  13.796  65.250  1.00  0.00    -0.481 C  
BRANCH  15  16
HETATM   16  C   UNL     1     -12.110  14.102  66.634  1.00  0.00    -0.480 C  
BRANCH  16  17
HETATM   17  C   UNL     1     -10.586  14.052  66.646  1.00  0.00    -0.274 C  
HETATM   18  C   UNL     1      -9.988  15.414  66.390  1.00  0.00    -0.278 C  
HETATM   19  O   UNL     1     -10.615  16.443  66.196  1.00  0.00    -0.311 OA 
HETATM   20  O   UNL     1      -8.634  15.387  66.394  1.00  0.00    -0.287 OA 
ENDBRANCH  16  17
ENDBRANCH  15  16
ENDBRANCH  14  15
ENDBRANCH  13  14
ENDBRANCH  12  13
ENDBRANCH  11  12
ENDBRANCH  10  11
ENDBRANCH   8   9
ENDBRANCH   7   8
ENDBRANCH   5   6
ENDBRANCH   4   5
ENDBRANCH   3   4
ENDBRANCH   2   3
TORSDOF 13
ENDMDL
MODEL       63
REMARK 921   NORMALIZED FREE ENERGY PREDICTED BY IDOCK:   -4.41 KCAL/MOL
REMARK 922        TOTAL FREE ENERGY PREDICTED BY IDOCK:   -9.50 KCAL/MOL
REMARK 923 INTER-LIGAND FREE ENERGY PREDICTED BY IDOCK:   -7.52 KCAL/MOL
REMARK 924 INTRA-LIGAND FREE ENERGY PREDICTED BY IDOCK:   -1.98 KCAL/MOL
REMARK 927      BINDING AFFINITY PREDICTED BY RF-SCORE:    0.00 PKD
ROOT
HETATM    1  C   UNL     1     -10.336  12.021  67.982  1.00  0.00    -0.206 C  
HETATM    2  C   UNL     1     -11.564  12.365  67.157  1.00  0.00    -0.435 C  
ENDROOT
BRANCH   2   3
HETATM    3  C   UNL     1     -11.975  13.817  67.363  1.00  0.00    -0.423 C  
BRANCH   3   4
HETATM    4  C   UNL     1     -11.055  14.515  68.364  1.00  0.00    -0.271 C  
BRANCH   4   5
HETATM    5  C   UNL     1     -11.766  15.723  68.957  1.00  0.00    -0.405 C  
BRANCH   5   6
HETATM    6  C   UNL     1     -11.402  15.985  70.388  1.00  0.00    -0.405 C  
HETATM    7  C   UNL     1     -12.241  15.729  71.404  1.00  0.00    -0.500 C  
BRANCH   7   8
HETATM    8  C   UNL     1     -13.630  15.187  71.239  1.00  0.00    -0.559 C  
BRANCH   8   9
HETATM    9  C   UNL     1     -13.919  14.087  72.216  1.00  0.00    -0.651 C  
HETATM   10  C   UNL     1     -13.423  12.843  72.121  1.00  0.00    -0.619 C  
BRANCH  10  11
HETATM   11  C   UNL     1     -12.538  12.415  70.990  1.00  0.00    -0.349 C  
BRANCH  11  12
HETATM   12  C   UNL     1     -12.658  10.935  70.664  1.00  0.00    -0.435 C  
BRANCH  12  13
HETATM   13  C   UNL     1     -13.209  10.186  71.876  1.00  0.00    -0.557 C  
BRANCH  13  14
HETATM   14  C   UNL     1     -12.550   8.821  72.004  1.00  0.00    -0.447 C  
BRANCH  14  15
HETATM   15  C   UNL     1     -11.082   8.871  71.592  1.00  0.00    -0.420 C  
BRANCH  15  16
HETATM   16  C   UNL     1     -10.775   7.756  70.597  1.00  0.00    -0.233 C  
BRANCH  16  17
HETATM   17  C   UNL     1     -10.432   8.308  69.218  1.00  0.00    -0.218 C  
HETATM   18  C   UNL     1      -8.940   8.406  69.018  1.00  0.00    -0.147 C  
HETATM   19  O   UNL     1      -8.089   8.091  69.834  1.00  0.00    -0.112 OA 
HETATM   20  O   UNL     1      -8.618   8.899  67.798  1.00  0.00    -0.124 OA 
ENDBRANCH  16  17
ENDBRANCH  15  16
ENDBRANCH  14  15
ENDBRANCH  13  14
ENDBRANCH  12  13
ENDBRANCH  11  12
ENDBRANCH  10  11
ENDBRANCH   8   9
ENDBRANCH   7   8
ENDBRANCH   5   6
ENDBRANCH   4   5
ENDBRANCH   3   4
ENDBRANCH   2   3
TORSDOF 13
ENDMDL
MODEL       64
REMARK 921   NORMALIZED FREE ENERGY PREDICTED BY IDOCK:   -4.40 KCAL/MOL
REMARK 922        TOTAL FREE ENERGY PREDICTED BY IDOCK:   -9.50 KCAL/MOL
REMARK 923 INTER-LIGAND FREE ENERGY PREDICTED BY IDOCK:   -7.09 KCAL/MOL
REMARK 924 INTRA-LIGAND FREE ENERGY PREDICTED BY IDOCK:   -2.41 KCAL/MOL
REMARK 927      BINDING AFFINITY PREDICTED BY RF-SCORE:    0.00 PKD
ROOT
HETATM    1  C   UNL     1     -10.034   7.247  73.013  1.00  0.00    -0.272 C  
HETATM    2  C   UNL     1      -9.751   6.949  71.551  1.00  0.00    -0.164 C  
ENDROOT
BRANCH   2   3
HETATM    3  C   UNL     1     -11.043   6.854  70.750  1.00  0.00    -0.317 C  
BRANCH   3   4
HETATM    4  C   UNL     1     -12.221   6.474  71.645  1.00  0.00    -0.353 C  
BRANCH   4   5
HETATM    5  C   UNL     1     -13.398   7.399  71.363  1.00  0.00    -0.398 C  
BRANCH   5   6
HETATM    6  C   UNL     1     -13.539   8.505  72.366  1.00  0.00    -0.327 C  
HETATM    7  C   UNL     1     -13.252   9.784  72.075  1.00  0.00    -0.557 C  
BRANCH   7   8
HETATM    8  C   UNL     1     -12.739  10.255  70.746  1.00  0.00    -0.434 C  
BRANCH   8   9
HETATM    9  C   UNL     1     -11.243  10.344  70.726  1.00  0.00    -0.293 C  
HETATM   10  C   UNL     1     -10.519  10.644  69.636  1.00  0.00    -0.219 C  
BRANCH  10  11
HETATM   11  C   UNL     1     -11.147  10.894  68.298  1.00  0.00    -0.324 C  
BRANCH  11  12
HETATM   12  C   UNL     1     -10.707  12.204  67.666  1.00  0.00    -0.252 C  
BRANCH  12  13
HETATM   13  C   UNL     1     -11.934  12.999  67.226  1.00  0.00    -0.379 C  
BRANCH  13  14
HETATM   14  C   UNL     1     -11.947  14.370  67.885  1.00  0.00    -0.348 C  
BRANCH  14  15
HETATM   15  C   UNL     1     -11.114  14.381  69.163  1.00  0.00    -0.290 C  
BRANCH  15  16
HETATM   16  C   UNL     1     -11.950  14.890  70.333  1.00  0.00    -0.368 C  
BRANCH  16  17
HETATM   17  C   UNL     1     -12.974  13.855  70.787  1.00  0.00    -0.265 C  
HETATM   18  C   UNL     1     -13.244  13.960  72.268  1.00  0.00    -0.473 C  
HETATM   19  O   UNL     1     -12.727  14.758  73.033  1.00  0.00    -0.413 OA 
HETATM   20  O   UNL     1     -14.150  13.045  72.689  1.00  0.00    -0.643 OA 
ENDBRANCH  16  17
ENDBRANCH  15  16
ENDBRANCH  14  15
ENDBRANCH  13  14
ENDBRANCH  12  13
ENDBRANCH  11  12
ENDBRANCH  10  11
ENDBRANCH   8   9
ENDBRANCH   7   8
ENDBRANCH   5   6
ENDBRANCH   4   5
ENDBRANCH   3   4
ENDBRANCH   2   3
TORSDOF 13
ENDMDL
MODEL       65
REMARK 921   NORMALIZED FREE ENERGY PREDICTED BY IDOCK:   -4.40 KCAL/MOL
REMARK 922        TOTAL FREE ENERGY PREDICTED BY IDOCK:   -9.49 KCAL/MOL
REMARK 923 INTER-LIGAND FREE ENERGY PREDICTED BY IDOCK:   -7.32 KCAL/MOL
REMARK 924 INTRA-LIGAND FREE ENERGY PREDICTED BY IDOCK:   -2.17 KCAL/MOL
REMARK 927      BINDING AFFINITY PREDICTED BY RF-SCORE:    0.00 PKD
ROOT
HETATM    1  C   UNL     1     -10.346  10.773  64.311  1.00  0.00    -0.401 C  
HETATM    2  C   UNL     1     -11.124  11.883  63.626  1.00  0.00    -0.517 C  
ENDROOT
BRANCH   2   3
HETATM    3  C   UNL     1     -12.285  12.354  64.493  1.00  0.00    -0.509 C  
BRANCH   3   4
HETATM    4  C   UNL     1     -12.066  13.784  64.980  1.00  0.00    -0.424 C  
BRANCH   4   5
HETATM    5  C   UNL     1     -12.037  13.809  66.502  1.00  0.00    -0.483 C  
BRANCH   5   6
HETATM    6  C   UNL     1     -10.773  13.250  67.083  1.00  0.00    -0.264 C  
HETATM    7  C   UNL     1     -10.772  12.347  68.077  1.00  0.00    -0.247 C  
BRANCH   7   8
HETATM    8  C   UNL     1     -12.010  11.815  68.737  1.00  0.00    -0.317 C  
BRANCH   8   9
HETATM    9  C   UNL     1     -11.979  12.015  70.223  1.00  0.00    -0.398 C  
HETATM   10  C   UNL     1     -12.334  13.154  70.838  1.00  0.00    -0.393 C  
BRANCH  10  11
HETATM   11  C   UNL     1     -12.777  14.371  70.084  1.00  0.00    -0.259 C  
BRANCH  11  12
HETATM   12  C   UNL     1     -12.039  15.634  70.499  1.00  0.00    -0.430 C  
BRANCH  12  13
HETATM   13  C   UNL     1     -10.677  15.681  69.810  1.00  0.00    -0.309 C  
BRANCH  13  14
HETATM   14  C   UNL     1     -10.685  16.703  68.683  1.00  0.00    -0.349 C  
BRANCH  14  15
HETATM   15  C   UNL     1      -9.522  16.478  67.720  1.00  0.00    -0.222 C  
BRANCH  15  16
HETATM   16  C   UNL     1      -8.463  17.560  67.909  1.00  0.00    -0.230 C  
BRANCH  16  17
HETATM   17  C   UNL     1      -9.089  18.912  68.234  1.00  0.00    -0.363 C  
HETATM   18  C   UNL     1      -9.350  19.713  66.982  1.00  0.00    -0.346 C  
HETATM   19  O   UNL     1      -9.104  19.355  65.842  1.00  0.00    -0.419 OA 
HETATM   20  O   UNL     1      -9.904  20.920  67.253  1.00  0.00    -0.444 OA 
ENDBRANCH  16  17
ENDBRANCH  15  16
ENDBRANCH  14  15
ENDBRANCH  13  14
ENDBRANCH  12  13
ENDBRANCH  11  12
ENDBRANCH  10  11
ENDBRANCH   8   9
ENDBRANCH   7   8
ENDBRANCH   5   6
ENDBRANCH   4   5
ENDBRANCH   3   4
ENDBRANCH   2   3
TORSDOF 13
ENDMDL
MODEL       66
REMARK 921   NORMALIZED FREE ENERGY PREDICTED BY IDOCK:   -4.40 KCAL/MOL
REMARK 922        TOTAL FREE ENERGY PREDICTED BY IDOCK:   -9.49 KCAL/MOL
REMARK 923 INTER-LIGAND FREE ENERGY PREDICTED BY IDOCK:   -7.66 KCAL/MOL
REMARK 924 INTRA-LIGAND FREE ENERGY PREDICTED BY IDOCK:   -1.83 KCAL/MOL
REMARK 927      BINDING AFFINITY PREDICTED BY RF-SCORE:    0.00 PKD
ROOT
HETATM    1  C   UNL     1     -12.257  15.552  72.821  1.00  0.00    -0.538 C  
HETATM    2  C   UNL     1     -11.710  15.985  71.472  1.00  0.00    -0.554 C  
ENDROOT
BRANCH   2   3
HETATM    3  C   UNL     1     -12.471  15.320  70.333  1.00  0.00    -0.426 C  
BRANCH   3   4
HETATM    4  C   UNL     1     -11.514  14.670  69.335  1.00  0.00    -0.330 C  
BRANCH   4   5
HETATM    5  C   UNL     1     -11.914  13.218  69.113  1.00  0.00    -0.343 C  
BRANCH   5   6
HETATM    6  C   UNL     1     -10.935  12.453  68.273  1.00  0.00    -0.269 C  
HETATM    7  C   UNL     1     -11.048  12.358  66.939  1.00  0.00    -0.335 C  
BRANCH   7   8
HETATM    8  C   UNL     1     -12.160  12.969  66.138  1.00  0.00    -0.473 C  
BRANCH   8   9
HETATM    9  C   UNL     1     -11.674  13.497  64.822  1.00  0.00    -0.397 C  
HETATM   10  C   UNL     1     -11.032  14.666  64.668  1.00  0.00    -0.340 C  
BRANCH  10  11
HETATM   11  C   UNL     1     -10.757  15.590  65.816  1.00  0.00    -0.362 C  
BRANCH  11  12
HETATM   12  C   UNL     1      -9.352  15.443  66.378  1.00  0.00    -0.331 C  
BRANCH  12  13
HETATM   13  C   UNL     1      -9.103  16.526  67.425  1.00  0.00    -0.210 C  
BRANCH  13  14
HETATM   14  C   UNL     1     -10.281  17.488  67.488  1.00  0.00    -0.340 C  
BRANCH  14  15
HETATM   15  C   UNL     1     -10.155  18.444  68.670  1.00  0.00    -0.407 C  
BRANCH  15  16
HETATM   16  C   UNL     1     -10.076  19.886  68.178  1.00  0.00    -0.569 C  
BRANCH  16  17
HETATM   17  C   UNL     1      -9.491  19.971  66.772  1.00  0.00    -0.530 C  
HETATM   18  C   UNL     1      -7.985  20.055  66.806  1.00  0.00    -0.314 C  
HETATM   19  O   UNL     1      -7.293  20.057  67.812  1.00  0.00    -0.277 OA 
HETATM   20  O   UNL     1      -7.448  20.135  65.565  1.00  0.00    -0.314 OA 
ENDBRANCH  16  17
ENDBRANCH  15  16
ENDBRANCH  14  15
ENDBRANCH  13  14
ENDBRANCH  12  13
ENDBRANCH  11  12
ENDBRANCH  10  11
ENDBRANCH   8   9
ENDBRANCH   7   8
ENDBRANCH   5   6
ENDBRANCH   4   5
ENDBRANCH   3   4
ENDBRANCH   2   3
TORSDOF 13
ENDMDL
MODEL       67
REMARK 921   NORMALIZED FREE ENERGY PREDICTED BY IDOCK:   -4.39 KCAL/MOL
REMARK 922        TOTAL FREE ENERGY PREDICTED BY IDOCK:   -9.47 KCAL/MOL
REMARK 923 INTER-LIGAND FREE ENERGY PREDICTED BY IDOCK:   -7.73 KCAL/MOL
REMARK 924 INTRA-LIGAND FREE ENERGY PREDICTED BY IDOCK:   -1.74 KCAL/MOL
REMARK 927      BINDING AFFINITY PREDICTED BY RF-SCORE:    0.00 PKD
ROOT
HETATM    1  C   UNL     1     -13.078  10.698  71.559  1.00  0.00    -0.527 C  
HETATM    2  C   UNL     1     -12.733   9.345  72.154  1.00  0.00    -0.460 C  
ENDROOT
BRANCH   2   3
HETATM    3  C   UNL     1     -11.301   8.947  71.823  1.00  0.00    -0.431 C  
BRANCH   3   4
HETATM    4  C   UNL     1     -11.121   7.431  71.882  1.00  0.00    -0.276 C  
BRANCH   4   5
HETATM    5  C   UNL     1     -11.653   6.802  70.601  1.00  0.00    -0.422 C  
BRANCH   5   6
HETATM    6  C   UNL     1     -10.666   5.897  69.927  1.00  0.00    -0.406 C  
HETATM    7  C   UNL     1     -10.487   5.888  68.597  1.00  0.00    -0.302 C  
BRANCH   7   8
HETATM    8  C   UNL     1     -11.255   6.744  67.634  1.00  0.00    -0.220 C  
BRANCH   8   9
HETATM    9  C   UNL     1     -10.348   7.588  66.790  1.00  0.00    -0.332 C  
HETATM   10  C   UNL     1      -9.921   8.813  67.134  1.00  0.00    -0.295 C  
BRANCH  10  11
HETATM   11  C   UNL     1     -10.342   9.484  68.407  1.00  0.00    -0.237 C  
BRANCH  11  12
HETATM   12  C   UNL     1     -11.161  10.744  68.177  1.00  0.00    -0.365 C  
BRANCH  12  13
HETATM   13  C   UNL     1     -10.249  11.967  68.243  1.00  0.00    -0.207 C  
BRANCH  13  14
HETATM   14  C   UNL     1     -10.243  12.701  66.911  1.00  0.00    -0.242 C  
BRANCH  14  15
HETATM   15  C   UNL     1     -11.368  12.214  66.002  1.00  0.00    -0.410 C  
BRANCH  15  16
HETATM   16  C   UNL     1     -12.057  13.399  65.333  1.00  0.00    -0.457 C  
BRANCH  16  17
HETATM   17  C   UNL     1     -11.168  14.637  65.324  1.00  0.00    -0.358 C  
HETATM   18  C   UNL     1     -11.743  15.722  64.446  1.00  0.00    -0.201 C  
HETATM   19  O   UNL     1     -12.784  15.650  63.813  1.00  0.00    -0.611 OA 
HETATM   20  O   UNL     1     -10.963  16.830  64.424  1.00  0.00    -0.974 OA 
ENDBRANCH  16  17
ENDBRANCH  15  16
ENDBRANCH  14  15
ENDBRANCH  13  14
ENDBRANCH  12  13
ENDBRANCH  11  12
ENDBRANCH  10  11
ENDBRANCH   8   9
ENDBRANCH   7   8
ENDBRANCH   5   6
ENDBRANCH   4   5
ENDBRANCH   3   4
ENDBRANCH   2   3
TORSDOF 13
ENDMDL
MODEL       68
REMARK 921   NORMALIZED FREE ENERGY PREDICTED BY IDOCK:   -4.39 KCAL/MOL
REMARK 922        TOTAL FREE ENERGY PREDICTED BY IDOCK:   -9.47 KCAL/MOL
REMARK 923 INTER-LIGAND FREE ENERGY PREDICTED BY IDOCK:   -7.08 KCAL/MOL
REMARK 924 INTRA-LIGAND FREE ENERGY PREDICTED BY IDOCK:   -2.39 KCAL/MOL
REMARK 927      BINDING AFFINITY PREDICTED BY RF-SCORE:    0.00 PKD
ROOT
HETATM    1  C   UNL     1      -8.996   9.208  70.716  1.00  0.00    -0.296 C  
HETATM    2  C   UNL     1      -9.007   8.017  69.773  1.00  0.00    -0.145 C  
ENDROOT
BRANCH   2   3
HETATM    3  C   UNL     1     -10.426   7.672  69.342  1.00  0.00    -0.220 C  
BRANCH   3   4
HETATM    4  C   UNL     1     -11.001   6.540  70.192  1.00  0.00    -0.374 C  
BRANCH   4   5
HETATM    5  C   UNL     1     -12.340   6.969  70.778  1.00  0.00    -0.307 C  
BRANCH   5   6
HETATM    6  C   UNL     1     -12.214   7.679  72.092  1.00  0.00    -0.301 C  
HETATM    7  C   UNL     1     -12.560   8.966  72.253  1.00  0.00    -0.455 C  
BRANCH   7   8
HETATM    8  C   UNL     1     -13.080   9.846  71.155  1.00  0.00    -0.453 C  
BRANCH   8   9
HETATM    9  C   UNL     1     -12.234  11.070  70.974  1.00  0.00    -0.456 C  
HETATM   10  C   UNL     1     -11.740  11.478  69.794  1.00  0.00    -0.426 C  
BRANCH  10  11
HETATM   11  C   UNL     1     -11.965  10.718  68.522  1.00  0.00    -0.057 C  
BRANCH  11  12
HETATM   12  C   UNL     1     -10.765  10.742  67.590  1.00  0.00    -0.305 C  
BRANCH  12  13
HETATM   13  C   UNL     1      -9.651  11.583  68.210  1.00  0.00    -0.189 C  
BRANCH  13  14
HETATM   14  C   UNL     1      -8.908  12.362  67.135  1.00  0.00    -0.197 C  
BRANCH  14  15
HETATM   15  C   UNL     1      -9.867  12.907  66.080  1.00  0.00    -0.270 C  
BRANCH  15  16
HETATM   16  C   UNL     1     -10.552  14.170  66.592  1.00  0.00    -0.278 C  
BRANCH  16  17
HETATM   17  C   UNL     1     -11.409  14.824  65.513  1.00  0.00    -0.343 C  
HETATM   18  C   UNL     1     -10.882  16.190  65.145  1.00  0.00    -0.361 C  
HETATM   19  O   UNL     1      -9.901  16.730  65.628  1.00  0.00    -0.544 OA 
HETATM   20  O   UNL     1     -11.634  16.787  64.189  1.00  0.00    -1.106 OA 
ENDBRANCH  16  17
ENDBRANCH  15  16
ENDBRANCH  14  15
ENDBRANCH  13  14
ENDBRANCH  12  13
ENDBRANCH  11  12
ENDBRANCH  10  11
ENDBRANCH   8   9
ENDBRANCH   7   8
ENDBRANCH   5   6
ENDBRANCH   4   5
ENDBRANCH   3   4
ENDBRANCH   2   3
TORSDOF 13
ENDMDL
MODEL       69
REMARK 921   NORMALIZED FREE ENERGY PREDICTED BY IDOCK:   -4.38 KCAL/MOL
REMARK 922        TOTAL FREE ENERGY PREDICTED BY IDOCK:   -9.46 KCAL/MOL
REMARK 923 INTER-LIGAND FREE ENERGY PREDICTED BY IDOCK:   -7.80 KCAL/MOL
REMARK 924 INTRA-LIGAND FREE ENERGY PREDICTED BY IDOCK:   -1.66 KCAL/MOL
REMARK 927      BINDING AFFINITY PREDICTED BY RF-SCORE:    0.00 PKD
ROOT
HETATM    1  C   UNL     1      -9.300  10.457  66.599  1.00  0.00    -0.185 C  
HETATM    2  C   UNL     1     -10.035  10.034  65.339  1.00  0.00    -0.364 C  
ENDROOT
BRANCH   2   3
HETATM    3  C   UNL     1      -9.802  11.028  64.208  1.00  0.00    -0.355 C  
BRANCH   3   4
HETATM    4  C   UNL     1     -11.118  11.426  63.544  1.00  0.00    -0.373 C  
BRANCH   4   5
HETATM    5  C   UNL     1     -11.480  12.852  63.935  1.00  0.00    -0.504 C  
BRANCH   5   6
HETATM    6  C   UNL     1     -12.525  12.929  65.007  1.00  0.00    -0.553 C  
HETATM    7  C   UNL     1     -12.255  13.357  66.250  1.00  0.00    -0.456 C  
BRANCH   7   8
HETATM    8  C   UNL     1     -10.895  13.779  66.722  1.00  0.00    -0.284 C  
BRANCH   8   9
HETATM    9  C   UNL     1     -10.800  15.266  66.894  1.00  0.00    -0.317 C  
HETATM   10  C   UNL     1     -11.144  15.919  68.014  1.00  0.00    -0.334 C  
BRANCH  10  11
HETATM   11  C   UNL     1     -11.695  15.217  69.218  1.00  0.00    -0.352 C  
BRANCH  11  12
HETATM   12  C   UNL     1     -11.598  16.044  70.490  1.00  0.00    -0.383 C  
BRANCH  12  13
HETATM   13  C   UNL     1     -12.737  15.667  71.434  1.00  0.00    -0.535 C  
BRANCH  13  14
HETATM   14  C   UNL     1     -12.448  14.340  72.119  1.00  0.00    -0.306 C  
BRANCH  14  15
HETATM   15  C   UNL     1     -13.711  13.495  72.252  1.00  0.00    -0.700 C  
BRANCH  15  16
HETATM   16  C   UNL     1     -13.399  12.030  71.962  1.00  0.00    -0.447 C  
BRANCH  16  17
HETATM   17  C   UNL     1     -12.419  11.879  70.805  1.00  0.00    -0.384 C  
HETATM   18  C   UNL     1     -11.727  10.539  70.839  1.00  0.00    -0.335 C  
HETATM   19  O   UNL     1     -11.906   9.665  71.672  1.00  0.00    -0.379 OA 
HETATM   20  O   UNL     1     -10.849  10.389  69.818  1.00  0.00    -0.255 OA 
ENDBRANCH  16  17
ENDBRANCH  15  16
ENDBRANCH  14  15
ENDBRANCH  13  14
ENDBRANCH  12  13
ENDBRANCH  11  12
ENDBRANCH  10  11
ENDBRANCH   8   9
ENDBRANCH   7   8
ENDBRANCH   5   6
ENDBRANCH   4   5
ENDBRANCH   3   4
ENDBRANCH   2   3
TORSDOF 13
ENDMDL
MODEL       70
REMARK 921   NORMALIZED FREE ENERGY PREDICTED BY IDOCK:   -4.38 KCAL/MOL
REMARK 922        TOTAL FREE ENERGY PREDICTED BY IDOCK:   -9.46 KCAL/MOL
REMARK 923 INTER-LIGAND FREE ENERGY PREDICTED BY IDOCK:   -7.33 KCAL/MOL
REMARK 924 INTRA-LIGAND FREE ENERGY PREDICTED BY IDOCK:   -2.13 KCAL/MOL
REMARK 927      BINDING AFFINITY PREDICTED BY RF-SCORE:    0.00 PKD
ROOT
HETATM    1  C   UNL     1      -8.631   8.565  71.741  1.00  0.00    -0.254 C  
HETATM    2  C   UNL     1      -8.636   7.121  71.271  1.00  0.00    -0.124 C  
ENDROOT
BRANCH   2   3
HETATM    3  C   UNL     1      -9.928   6.419  71.669  1.00  0.00    -0.195 C  
BRANCH   3   4
HETATM    4  C   UNL     1     -10.906   6.358  70.498  1.00  0.00    -0.335 C  
BRANCH   4   5
HETATM    5  C   UNL     1     -12.260   6.902  70.933  1.00  0.00    -0.404 C  
BRANCH   5   6
HETATM    6  C   UNL     1     -12.224   7.600  72.259  1.00  0.00    -0.261 C  
HETATM    7  C   UNL     1     -12.727   8.831  72.441  1.00  0.00    -0.433 C  
BRANCH   7   8
HETATM    8  C   UNL     1     -13.353   9.658  71.357  1.00  0.00    -0.444 C  
BRANCH   8   9
HETATM    9  C   UNL     1     -12.840  11.067  71.363  1.00  0.00    -0.548 C  
HETATM   10  C   UNL     1     -12.067  11.593  70.400  1.00  0.00    -0.462 C  
BRANCH  10  11
HETATM   11  C   UNL     1     -11.607  10.799  69.215  1.00  0.00    -0.376 C  
BRANCH  11  12
HETATM   12  C   UNL     1     -10.213  10.219  69.387  1.00  0.00    -0.255 C  
BRANCH  12  13
HETATM   13  C   UNL     1      -9.933   9.218  68.268  1.00  0.00    -0.196 C  
BRANCH  13  14
HETATM   14  C   UNL     1     -10.651   9.630  66.991  1.00  0.00    -0.267 C  
BRANCH  14  15
HETATM   15  C   UNL     1      -9.668  10.132  65.938  1.00  0.00    -0.292 C  
BRANCH  15  16
HETATM   16  C   UNL     1     -10.397  10.971  64.893  1.00  0.00    -0.378 C  
BRANCH  16  17
HETATM   17  C   UNL     1     -11.333  11.987  65.538  1.00  0.00    -0.381 C  
HETATM   18  C   UNL     1     -12.345  12.510  64.548  1.00  0.00    -0.467 C  
HETATM   19  O   UNL     1     -12.431  12.183  63.376  1.00  0.00    -0.568 OA 
HETATM   20  O   UNL     1     -13.183  13.418  65.104  1.00  0.00    -0.691 OA 
ENDBRANCH  16  17
ENDBRANCH  15  16
ENDBRANCH  14  15
ENDBRANCH  13  14
ENDBRANCH  12  13
ENDBRANCH  11  12
ENDBRANCH  10  11
ENDBRANCH   8   9
ENDBRANCH   7   8
ENDBRANCH   5   6
ENDBRANCH   4   5
ENDBRANCH   3   4
ENDBRANCH   2   3
TORSDOF 13
ENDMDL
MODEL       71
REMARK 921   NORMALIZED FREE ENERGY PREDICTED BY IDOCK:   -4.37 KCAL/MOL
REMARK 922        TOTAL FREE ENERGY PREDICTED BY IDOCK:   -9.44 KCAL/MOL
REMARK 923 INTER-LIGAND FREE ENERGY PREDICTED BY IDOCK:   -7.10 KCAL/MOL
REMARK 924 INTRA-LIGAND FREE ENERGY PREDICTED BY IDOCK:   -2.34 KCAL/MOL
REMARK 927      BINDING AFFINITY PREDICTED BY RF-SCORE:    0.00 PKD
ROOT
HETATM    1  C   UNL     1      -8.454   9.046  71.063  1.00  0.00    -0.254 C  
HETATM    2  C   UNL     1      -9.285   9.829  70.062  1.00  0.00    -0.266 C  
ENDROOT
BRANCH   2   3
HETATM    3  C   UNL     1     -10.772   9.704  70.365  1.00  0.00    -0.356 C  
BRANCH   3   4
HETATM    4  C   UNL     1     -11.016   8.797  71.570  1.00  0.00    -0.377 C  
BRANCH   4   5
HETATM    5  C   UNL     1     -11.860   7.602  71.150  1.00  0.00    -0.314 C  
BRANCH   5   6
HETATM    6  C   UNL     1     -11.180   6.285  71.372  1.00  0.00    -0.349 C  
HETATM    7  C   UNL     1     -10.642   5.572  70.370  1.00  0.00    -0.350 C  
BRANCH   7   8
HETATM    8  C   UNL     1     -10.678   5.982  68.927  1.00  0.00    -0.384 C  
BRANCH   8   9
HETATM    9  C   UNL     1      -9.345   6.482  68.456  1.00  0.00    -0.123 C  
HETATM   10  C   UNL     1      -9.182   7.402  67.492  1.00  0.00    -0.140 C  
BRANCH  10  11
HETATM   11  C   UNL     1     -10.338   8.011  66.757  1.00  0.00    -0.360 C  
BRANCH  11  12
HETATM   12  C   UNL     1     -10.204   9.514  66.572  1.00  0.00    -0.307 C  
BRANCH  12  13
HETATM   13  C   UNL     1      -8.744   9.869  66.300  1.00  0.00    -0.152 C  
BRANCH  13  14
HETATM   14  C   UNL     1      -8.604  10.555  64.949  1.00  0.00    -0.179 C  
BRANCH  14  15
HETATM   15  C   UNL     1      -9.910  10.504  64.161  1.00  0.00    -0.401 C  
BRANCH  15  16
HETATM   16  C   UNL     1     -10.123  11.813  63.407  1.00  0.00    -0.470 C  
BRANCH  16  17
HETATM   17  C   UNL     1     -10.807  12.862  64.278  1.00  0.00    -0.423 C  
HETATM   18  C   UNL     1     -12.308  12.804  64.135  1.00  0.00    -0.407 C  
HETATM   19  O   UNL     1     -12.927  12.031  63.423  1.00  0.00    -0.772 OA 
HETATM   20  O   UNL     1     -12.931  13.732  64.900  1.00  0.00    -0.712 OA 
ENDBRANCH  16  17
ENDBRANCH  15  16
ENDBRANCH  14  15
ENDBRANCH  13  14
ENDBRANCH  12  13
ENDBRANCH  11  12
ENDBRANCH  10  11
ENDBRANCH   8   9
ENDBRANCH   7   8
ENDBRANCH   5   6
ENDBRANCH   4   5
ENDBRANCH   3   4
ENDBRANCH   2   3
TORSDOF 13
ENDMDL
MODEL       72
REMARK 921   NORMALIZED FREE ENERGY PREDICTED BY IDOCK:   -4.37 KCAL/MOL
REMARK 922        TOTAL FREE ENERGY PREDICTED BY IDOCK:   -9.44 KCAL/MOL
REMARK 923 INTER-LIGAND FREE ENERGY PREDICTED BY IDOCK:   -7.34 KCAL/MOL
REMARK 924 INTRA-LIGAND FREE ENERGY PREDICTED BY IDOCK:   -2.10 KCAL/MOL
REMARK 927      BINDING AFFINITY PREDICTED BY RF-SCORE:    0.00 PKD
ROOT
HETATM    1  C   UNL     1     -13.020  15.499  71.782  1.00  0.00    -0.528 C  
HETATM    2  C   UNL     1     -11.863  14.882  71.016  1.00  0.00    -0.380 C  
ENDROOT
BRANCH   2   3
HETATM    3  C   UNL     1     -12.354  14.150  69.775  1.00  0.00    -0.350 C  
BRANCH   3   4
HETATM    4  C   UNL     1     -11.186  13.711  68.894  1.00  0.00    -0.309 C  
BRANCH   4   5
HETATM    5  C   UNL     1     -11.715  13.171  67.572  1.00  0.00    -0.414 C  
BRANCH   5   6
HETATM    6  C   UNL     1     -12.073  14.246  66.590  1.00  0.00    -0.448 C  
HETATM    7  C   UNL     1     -12.435  13.978  65.326  1.00  0.00    -0.495 C  
BRANCH   7   8
HETATM    8  C   UNL     1     -12.501  12.598  64.740  1.00  0.00    -0.555 C  
BRANCH   8   9
HETATM    9  C   UNL     1     -11.486  12.405  63.652  1.00  0.00    -0.568 C  
HETATM   10  C   UNL     1     -10.493  11.503  63.699  1.00  0.00    -0.483 C  
BRANCH  10  11
HETATM   11  C   UNL     1     -10.279  10.602  64.877  1.00  0.00    -0.395 C  
BRANCH  11  12
HETATM   12  C   UNL     1      -9.153  11.065  65.787  1.00  0.00    -0.219 C  
BRANCH  12  13
HETATM   13  C   UNL     1      -9.049  10.132  66.991  1.00  0.00    -0.155 C  
BRANCH  13  14
HETATM   14  C   UNL     1      -8.794  10.927  68.263  1.00  0.00    -0.140 C  
BRANCH  14  15
HETATM   15  C   UNL     1      -9.413  10.243  69.479  1.00  0.00    -0.207 C  
BRANCH  15  16
HETATM   16  C   UNL     1     -10.889   9.954  69.228  1.00  0.00    -0.255 C  
BRANCH  16  17
HETATM   17  C   UNL     1     -11.767  10.476  70.360  1.00  0.00    -0.434 C  
HETATM   18  C   UNL     1     -12.354   9.345  71.169  1.00  0.00    -0.308 C  
HETATM   19  O   UNL     1     -12.170   8.155  70.969  1.00  0.00    -0.277 OA 
HETATM   20  O   UNL     1     -13.140   9.791  72.178  1.00  0.00    -0.424 OA 
ENDBRANCH  16  17
ENDBRANCH  15  16
ENDBRANCH  14  15
ENDBRANCH  13  14
ENDBRANCH  12  13
ENDBRANCH  11  12
ENDBRANCH  10  11
ENDBRANCH   8   9
ENDBRANCH   7   8
ENDBRANCH   5   6
ENDBRANCH   4   5
ENDBRANCH   3   4
ENDBRANCH   2   3
TORSDOF 13
ENDMDL
MODEL       73
REMARK 921   NORMALIZED FREE ENERGY PREDICTED BY IDOCK:   -4.36 KCAL/MOL
REMARK 922        TOTAL FREE ENERGY PREDICTED BY IDOCK:   -9.42 KCAL/MOL
REMARK 923 INTER-LIGAND FREE ENERGY PREDICTED BY IDOCK:   -6.87 KCAL/MOL
REMARK 924 INTRA-LIGAND FREE ENERGY PREDICTED BY IDOCK:   -2.55 KCAL/MOL
REMARK 927      BINDING AFFINITY PREDICTED BY RF-SCORE:    0.00 PKD
ROOT
HETATM    1  C   UNL     1      -9.169   7.669  72.840  1.00  0.00    -0.242 C  
HETATM    2  C   UNL     1      -9.795   8.775  72.010  1.00  0.00    -0.376 C  
ENDROOT
BRANCH   2   3
HETATM    3  C   UNL     1      -9.502   8.582  70.528  1.00  0.00    -0.193 C  
BRANCH   3   4
HETATM    4  C   UNL     1     -10.701   8.984  69.671  1.00  0.00    -0.228 C  
BRANCH   4   5
HETATM    5  C   UNL     1     -11.005  10.462  69.876  1.00  0.00    -0.364 C  
BRANCH   5   6
HETATM    6  C   UNL     1     -11.924  11.031  68.837  1.00  0.00    -0.332 C  
HETATM    7  C   UNL     1     -11.662  12.179  68.193  1.00  0.00    -0.402 C  
BRANCH   7   8
HETATM    8  C   UNL     1     -10.457  13.036  68.447  1.00  0.00    -0.261 C  
BRANCH   8   9
HETATM    9  C   UNL     1      -9.608  13.183  67.220  1.00  0.00    -0.233 C  
HETATM   10  C   UNL     1      -8.538  12.420  66.948  1.00  0.00    -0.171 C  
BRANCH  10  11
HETATM   11  C   UNL     1      -8.059  11.344  67.875  1.00  0.00    -0.126 C  
BRANCH  11  12
HETATM   12  C   UNL     1      -8.085   9.959  67.249  1.00  0.00    -0.113 C  
BRANCH  12  13
HETATM   13  C   UNL     1      -9.318   9.823  66.358  1.00  0.00    -0.218 C  
BRANCH  13  14
HETATM   14  C   UNL     1      -8.920   9.368  64.962  1.00  0.00    -0.258 C  
BRANCH  14  15
HETATM   15  C   UNL     1      -9.486  10.297  63.892  1.00  0.00    -0.356 C  
BRANCH  15  16
HETATM   16  C   UNL     1     -10.658  11.097  64.455  1.00  0.00    -0.411 C  
BRANCH  16  17
HETATM   17  C   UNL     1     -10.980  12.310  63.589  1.00  0.00    -0.532 C  
HETATM   18  C   UNL     1     -12.273  12.962  64.015  1.00  0.00    -0.426 C  
HETATM   19  O   UNL     1     -12.991  12.593  64.929  1.00  0.00    -0.830 OA 
HETATM   20  O   UNL     1     -12.577  14.041  63.253  1.00  0.00    -0.801 OA 
ENDBRANCH  16  17
ENDBRANCH  15  16
ENDBRANCH  14  15
ENDBRANCH  13  14
ENDBRANCH  12  13
ENDBRANCH  11  12
ENDBRANCH  10  11
ENDBRANCH   8   9
ENDBRANCH   7   8
ENDBRANCH   5   6
ENDBRANCH   4   5
ENDBRANCH   3   4
ENDBRANCH   2   3
TORSDOF 13
ENDMDL
MODEL       74
REMARK 921   NORMALIZED FREE ENERGY PREDICTED BY IDOCK:   -4.36 KCAL/MOL
REMARK 922        TOTAL FREE ENERGY PREDICTED BY IDOCK:   -9.42 KCAL/MOL
REMARK 923 INTER-LIGAND FREE ENERGY PREDICTED BY IDOCK:   -7.17 KCAL/MOL
REMARK 924 INTRA-LIGAND FREE ENERGY PREDICTED BY IDOCK:   -2.25 KCAL/MOL
REMARK 927      BINDING AFFINITY PREDICTED BY RF-SCORE:    0.00 PKD
ROOT
HETATM    1  C   UNL     1      -9.909  10.765  63.095  1.00  0.00    -0.378 C  
HETATM    2  C   UNL     1     -10.834  11.251  64.197  1.00  0.00    -0.407 C  
ENDROOT
BRANCH   2   3
HETATM    3  C   UNL     1     -11.684  12.424  63.723  1.00  0.00    -0.566 C  
BRANCH   3   4
HETATM    4  C   UNL     1     -12.396  13.098  64.893  1.00  0.00    -0.494 C  
BRANCH   4   5
HETATM    5  C   UNL     1     -11.858  14.511  65.075  1.00  0.00    -0.399 C  
BRANCH   5   6
HETATM    6  C   UNL     1     -10.361  14.587  65.040  1.00  0.00    -0.442 C  
HETATM    7  C   UNL     1      -9.674  15.575  65.636  1.00  0.00    -0.355 C  
BRANCH   7   8
HETATM    8  C   UNL     1     -10.306  16.718  66.374  1.00  0.00    -0.309 C  
BRANCH   8   9
HETATM    9  C   UNL     1      -9.802  16.819  67.782  1.00  0.00    -0.257 C  
HETATM   10  C   UNL     1     -10.486  16.405  68.860  1.00  0.00    -0.285 C  
BRANCH  10  11
HETATM   11  C   UNL     1     -11.860  15.816  68.763  1.00  0.00    -0.321 C  
BRANCH  11  12
HETATM   12  C   UNL     1     -11.932  14.379  69.254  1.00  0.00    -0.362 C  
BRANCH  12  13
HETATM   13  C   UNL     1     -10.552  13.732  69.148  1.00  0.00    -0.099 C  
BRANCH  13  14
HETATM   14  C   UNL     1     -10.562  12.623  68.107  1.00  0.00    -0.241 C  
BRANCH  14  15
HETATM   15  C   UNL     1     -11.747  11.682  68.306  1.00  0.00    -0.374 C  
BRANCH  15  16
HETATM   16  C   UNL     1     -11.445  10.683  69.419  1.00  0.00    -0.356 C  
BRANCH  16  17
HETATM   17  C   UNL     1     -12.614  10.549  70.389  1.00  0.00    -0.364 C  
HETATM   18  C   UNL     1     -12.240   9.714  71.590  1.00  0.00    -0.402 C  
HETATM   19  O   UNL     1     -11.153   9.199  71.789  1.00  0.00    -0.351 OA 
HETATM   20  O   UNL     1     -13.269   9.582  72.461  1.00  0.00    -0.408 OA 
ENDBRANCH  16  17
ENDBRANCH  15  16
ENDBRANCH  14  15
ENDBRANCH  13  14
ENDBRANCH  12  13
ENDBRANCH  11  12
ENDBRANCH  10  11
ENDBRANCH   8   9
ENDBRANCH   7   8
ENDBRANCH   5   6
ENDBRANCH   4   5
ENDBRANCH   3   4
ENDBRANCH   2   3
TORSDOF 13
ENDMDL
MODEL       75
REMARK 921   NORMALIZED FREE ENERGY PREDICTED BY IDOCK:   -4.35 KCAL/MOL
REMARK 922        TOTAL FREE ENERGY PREDICTED BY IDOCK:   -9.41 KCAL/MOL
REMARK 923 INTER-LIGAND FREE ENERGY PREDICTED BY IDOCK:   -7.63 KCAL/MOL
REMARK 924 INTRA-LIGAND FREE ENERGY PREDICTED BY IDOCK:   -1.78 KCAL/MOL
REMARK 927      BINDING AFFINITY PREDICTED BY RF-SCORE:    0.00 PKD
ROOT
HETATM    1  C   UNL     1      -9.031   7.756  73.540  1.00  0.00    -0.327 C  
HETATM    2  C   UNL     1     -10.434   7.182  73.628  1.00  0.00    -0.412 C  
ENDROOT
BRANCH   2   3
HETATM    3  C   UNL     1     -11.213   7.437  72.344  1.00  0.00    -0.337 C  
BRANCH   3   4
HETATM    4  C   UNL     1     -12.088   8.683  72.467  1.00  0.00    -0.368 C  
BRANCH   4   5
HETATM    5  C   UNL     1     -12.237   9.341  71.102  1.00  0.00    -0.373 C  
BRANCH   5   6
HETATM    6  C   UNL     1     -12.757  10.746  71.173  1.00  0.00    -0.532 C  
HETATM    7  C   UNL     1     -12.346  11.710  70.335  1.00  0.00    -0.373 C  
BRANCH   7   8
HETATM    8  C   UNL     1     -11.314  11.516  69.263  1.00  0.00    -0.353 C  
BRANCH   8   9
HETATM    9  C   UNL     1     -11.708  12.189  67.982  1.00  0.00    -0.409 C  
HETATM   10  C   UNL     1     -10.939  13.072  67.326  1.00  0.00    -0.288 C  
BRANCH  10  11
HETATM   11  C   UNL     1      -9.596  13.502  67.834  1.00  0.00    -0.218 C  
BRANCH  11  12
HETATM   12  C   UNL     1      -9.543  14.974  68.212  1.00  0.00    -0.210 C  
BRANCH  12  13
HETATM   13  C   UNL     1      -9.704  15.121  69.723  1.00  0.00    -0.093 C  
BRANCH  13  14
HETATM   14  C   UNL     1     -10.805  16.119  70.048  1.00  0.00    -0.349 C  
BRANCH  14  15
HETATM   15  C   UNL     1     -12.160  15.639  69.537  1.00  0.00    -0.307 C  
BRANCH  15  16
HETATM   16  C   UNL     1     -13.060  15.253  70.707  1.00  0.00    -0.468 C  
BRANCH  16  17
HETATM   17  C   UNL     1     -12.567  15.853  72.019  1.00  0.00    -0.517 C  
HETATM   18  C   UNL     1     -12.796  14.911  73.176  1.00  0.00    -0.512 C  
HETATM   19  O   UNL     1     -13.306  13.805  73.105  1.00  0.00    -0.538 OA 
HETATM   20  O   UNL     1     -12.366  15.430  74.351  1.00  0.00    -0.641 OA 
ENDBRANCH  16  17
ENDBRANCH  15  16
ENDBRANCH  14  15
ENDBRANCH  13  14
ENDBRANCH  12  13
ENDBRANCH  11  12
ENDBRANCH  10  11
ENDBRANCH   8   9
ENDBRANCH   7   8
ENDBRANCH   5   6
ENDBRANCH   4   5
ENDBRANCH   3   4
ENDBRANCH   2   3
TORSDOF 13
ENDMDL
MODEL       76
REMARK 921   NORMALIZED FREE ENERGY PREDICTED BY IDOCK:   -4.34 KCAL/MOL
REMARK 922        TOTAL FREE ENERGY PREDICTED BY IDOCK:   -9.39 KCAL/MOL
REMARK 923 INTER-LIGAND FREE ENERGY PREDICTED BY IDOCK:   -7.58 KCAL/MOL
REMARK 924 INTRA-LIGAND FREE ENERGY PREDICTED BY IDOCK:   -1.81 KCAL/MOL
REMARK 927      BINDING AFFINITY PREDICTED BY RF-SCORE:    0.00 PKD
ROOT
HETATM    1  C   UNL     1      -8.266   6.641  68.978  1.00  0.00    -0.117 C  
HETATM    2  C   UNL     1      -9.246   7.554  68.263  1.00  0.00    -0.138 C  
ENDROOT
BRANCH   2   3
HETATM    3  C   UNL     1     -10.447   7.869  69.145  1.00  0.00    -0.218 C  
BRANCH   3   4
HETATM    4  C   UNL     1     -10.271   7.288  70.546  1.00  0.00    -0.203 C  
BRANCH   4   5
HETATM    5  C   UNL     1     -10.476   8.382  71.585  1.00  0.00    -0.321 C  
BRANCH   5   6
HETATM    6  C   UNL     1     -11.615   8.109  72.520  1.00  0.00    -0.468 C  
HETATM    7  C   UNL     1     -12.850   8.593  72.313  1.00  0.00    -0.438 C  
BRANCH   7   8
HETATM    8  C   UNL     1     -13.232   9.472  71.159  1.00  0.00    -0.332 C  
BRANCH   8   9
HETATM    9  C   UNL     1     -12.961  10.918  71.445  1.00  0.00    -0.527 C  
HETATM   10  C   UNL     1     -12.185  11.706  70.683  1.00  0.00    -0.461 C  
BRANCH  10  11
HETATM   11  C   UNL     1     -11.477  11.199  69.463  1.00  0.00    -0.374 C  
BRANCH  11  12
HETATM   12  C   UNL     1     -11.722  12.056  68.231  1.00  0.00    -0.396 C  
BRANCH  12  13
HETATM   13  C   UNL     1     -11.899  13.514  68.648  1.00  0.00    -0.404 C  
BRANCH  13  14
HETATM   14  C   UNL     1     -11.088  14.430  67.743  1.00  0.00    -0.299 C  
BRANCH  14  15
HETATM   15  C   UNL     1     -10.175  13.632  66.818  1.00  0.00    -0.268 C  
BRANCH  15  16
HETATM   16  C   UNL     1     -10.404  14.043  65.367  1.00  0.00    -0.377 C  
BRANCH  16  17
HETATM   17  C   UNL     1     -11.018  12.911  64.550  1.00  0.00    -0.377 C  
HETATM   18  C   UNL     1     -12.525  13.001  64.530  1.00  0.00    -0.363 C  
HETATM   19  O   UNL     1     -13.196  13.855  65.085  1.00  0.00    -0.768 OA 
HETATM   20  O   UNL     1     -13.087  12.000  63.811  1.00  0.00    -0.730 OA 
ENDBRANCH  16  17
ENDBRANCH  15  16
ENDBRANCH  14  15
ENDBRANCH  13  14
ENDBRANCH  12  13
ENDBRANCH  11  12
ENDBRANCH  10  11
ENDBRANCH   8   9
ENDBRANCH   7   8
ENDBRANCH   5   6
ENDBRANCH   4   5
ENDBRANCH   3   4
ENDBRANCH   2   3
TORSDOF 13
ENDMDL
MODEL       77
REMARK 921   NORMALIZED FREE ENERGY PREDICTED BY IDOCK:   -4.33 KCAL/MOL
REMARK 922        TOTAL FREE ENERGY PREDICTED BY IDOCK:   -9.37 KCAL/MOL
REMARK 923 INTER-LIGAND FREE ENERGY PREDICTED BY IDOCK:   -6.99 KCAL/MOL
REMARK 924 INTRA-LIGAND FREE ENERGY PREDICTED BY IDOCK:   -2.38 KCAL/MOL
REMARK 927      BINDING AFFINITY PREDICTED BY RF-SCORE:    0.00 PKD
ROOT
HETATM    1  C   UNL     1     -12.022  10.863  69.694  1.00  0.00    -0.414 C  
HETATM    2  C   UNL     1     -12.561  11.675  70.858  1.00  0.00    -0.409 C  
ENDROOT
BRANCH   2   3
HETATM    3  C   UNL     1     -12.360  13.167  70.627  1.00  0.00    -0.405 C  
BRANCH   3   4
HETATM    4  C   UNL     1     -11.498  13.423  69.392  1.00  0.00    -0.333 C  
BRANCH   4   5
HETATM    5  C   UNL     1     -12.160  14.476  68.515  1.00  0.00    -0.257 C  
BRANCH   5   6
HETATM    6  C   UNL     1     -11.659  15.866  68.772  1.00  0.00    -0.389 C  
HETATM    7  C   UNL     1     -10.773  16.474  67.968  1.00  0.00    -0.343 C  
BRANCH   7   8
HETATM    8  C   UNL     1     -10.164  15.844  66.750  1.00  0.00    -0.283 C  
BRANCH   8   9
HETATM    9  C   UNL     1      -8.672  15.988  66.735  1.00  0.00    -0.287 C  
HETATM   10  C   UNL     1      -7.825  15.129  67.322  1.00  0.00    -0.241 C  
BRANCH  10  11
HETATM   11  C   UNL     1      -8.298  13.933  68.092  1.00  0.00    -0.163 C  
BRANCH  11  12
HETATM   12  C   UNL     1      -7.945  12.614  67.423  1.00  0.00    -0.177 C  
BRANCH  12  13
HETATM   13  C   UNL     1      -8.703  11.476  68.103  1.00  0.00    -0.157 C  
BRANCH  13  14
HETATM   14  C   UNL     1      -9.474  10.659  67.077  1.00  0.00    -0.187 C  
BRANCH  14  15
HETATM   15  C   UNL     1      -9.210  11.156  65.659  1.00  0.00    -0.238 C  
BRANCH  15  16
HETATM   16  C   UNL     1     -10.528  11.374  64.922  1.00  0.00    -0.363 C  
BRANCH  16  17
HETATM   17  C   UNL     1     -11.299  12.563  65.484  1.00  0.00    -0.368 C  
HETATM   18  C   UNL     1     -12.589  12.788  64.734  1.00  0.00    -0.446 C  
HETATM   19  O   UNL     1     -12.993  12.122  63.795  1.00  0.00    -0.753 OA 
HETATM   20  O   UNL     1     -13.285  13.844  65.219  1.00  0.00    -0.774 OA 
ENDBRANCH  16  17
ENDBRANCH  15  16
ENDBRANCH  14  15
ENDBRANCH  13  14
ENDBRANCH  12  13
ENDBRANCH  11  12
ENDBRANCH  10  11
ENDBRANCH   8   9
ENDBRANCH   7   8
ENDBRANCH   5   6
ENDBRANCH   4   5
ENDBRANCH   3   4
ENDBRANCH   2   3
TORSDOF 13
ENDMDL
MODEL       78
REMARK 921   NORMALIZED FREE ENERGY PREDICTED BY IDOCK:   -4.33 KCAL/MOL
REMARK 922        TOTAL FREE ENERGY PREDICTED BY IDOCK:   -9.37 KCAL/MOL
REMARK 923 INTER-LIGAND FREE ENERGY PREDICTED BY IDOCK:   -7.74 KCAL/MOL
REMARK 924 INTRA-LIGAND FREE ENERGY PREDICTED BY IDOCK:   -1.63 KCAL/MOL
REMARK 927      BINDING AFFINITY PREDICTED BY RF-SCORE:    0.00 PKD
ROOT
HETATM    1  C   UNL     1     -11.511  15.731  64.621  1.00  0.00    -0.284 C  
HETATM    2  C   UNL     1     -11.133  14.261  64.650  1.00  0.00    -0.371 C  
ENDROOT
BRANCH   2   3
HETATM    3  C   UNL     1     -12.266  13.391  64.120  1.00  0.00    -0.457 C  
BRANCH   3   4
HETATM    4  C   UNL     1     -11.770  11.989  63.774  1.00  0.00    -0.575 C  
BRANCH   4   5
HETATM    5  C   UNL     1     -10.248  11.959  63.816  1.00  0.00    -0.442 C  
BRANCH   5   6
HETATM    6  C   UNL     1      -9.662  10.691  63.272  1.00  0.00    -0.385 C  
HETATM    7  C   UNL     1      -9.119   9.750  64.060  1.00  0.00    -0.280 C  
BRANCH   7   8
HETATM    8  C   UNL     1      -9.006   9.858  65.552  1.00  0.00    -0.209 C  
BRANCH   8   9
HETATM    9  C   UNL     1      -9.904   8.881  66.251  1.00  0.00    -0.355 C  
HETATM   10  C   UNL     1     -10.473   9.102  67.446  1.00  0.00    -0.339 C  
BRANCH  10  11
HETATM   11  C   UNL     1     -10.240  10.360  68.228  1.00  0.00    -0.184 C  
BRANCH  11  12
HETATM   12  C   UNL     1     -11.496  11.199  68.400  1.00  0.00    -0.377 C  
BRANCH  12  13
HETATM   13  C   UNL     1     -11.302  12.554  67.724  1.00  0.00    -0.351 C  
BRANCH  13  14
HETATM   14  C   UNL     1     -12.060  13.639  68.475  1.00  0.00    -0.321 C  
BRANCH  14  15
HETATM   15  C   UNL     1     -12.123  13.340  69.970  1.00  0.00    -0.385 C  
BRANCH  15  16
HETATM   16  C   UNL     1     -12.781  14.498  70.713  1.00  0.00    -0.425 C  
BRANCH  16  17
HETATM   17  C   UNL     1     -12.805  14.262  72.219  1.00  0.00    -0.421 C  
HETATM   18  C   UNL     1     -12.197  15.423  72.968  1.00  0.00    -0.432 C  
HETATM   19  O   UNL     1     -11.737  16.434  72.465  1.00  0.00    -0.513 OA 
HETATM   20  O   UNL     1     -12.206  15.228  74.309  1.00  0.00    -0.630 OA 
ENDBRANCH  16  17
ENDBRANCH  15  16
ENDBRANCH  14  15
ENDBRANCH  13  14
ENDBRANCH  12  13
ENDBRANCH  11  12
ENDBRANCH  10  11
ENDBRANCH   8   9
ENDBRANCH   7   8
ENDBRANCH   5   6
ENDBRANCH   4   5
ENDBRANCH   3   4
ENDBRANCH   2   3
TORSDOF 13
ENDMDL
MODEL       79
REMARK 921   NORMALIZED FREE ENERGY PREDICTED BY IDOCK:   -4.33 KCAL/MOL
REMARK 922        TOTAL FREE ENERGY PREDICTED BY IDOCK:   -9.37 KCAL/MOL
REMARK 923 INTER-LIGAND FREE ENERGY PREDICTED BY IDOCK:   -7.24 KCAL/MOL
REMARK 924 INTRA-LIGAND FREE ENERGY PREDICTED BY IDOCK:   -2.13 KCAL/MOL
REMARK 927      BINDING AFFINITY PREDICTED BY RF-SCORE:    0.00 PKD
ROOT
HETATM    1  C   UNL     1      -9.810   6.799  73.232  1.00  0.00    -0.214 C  
HETATM    2  C   UNL     1     -10.942   6.947  72.230  1.00  0.00    -0.275 C  
ENDROOT
BRANCH   2   3
HETATM    3  C   UNL     1     -11.709   8.243  72.457  1.00  0.00    -0.451 C  
BRANCH   3   4
HETATM    4  C   UNL     1     -13.195   8.066  72.148  1.00  0.00    -0.211 C  
BRANCH   4   5
HETATM    5  C   UNL     1     -13.662   9.182  71.223  1.00  0.00    -0.250 C  
BRANCH   5   6
HETATM    6  C   UNL     1     -13.276  10.550  71.697  1.00  0.00    -0.493 C  
HETATM    7  C   UNL     1     -12.466  11.356  70.993  1.00  0.00    -0.486 C  
BRANCH   7   8
HETATM    8  C   UNL     1     -11.836  10.987  69.682  1.00  0.00    -0.414 C  
BRANCH   8   9
HETATM    9  C   UNL     1     -10.522  10.288  69.872  1.00  0.00    -0.304 C  
HETATM   10  C   UNL     1     -10.034   9.360  69.034  1.00  0.00    -0.182 C  
BRANCH  10  11
HETATM   11  C   UNL     1     -10.781   8.900  67.819  1.00  0.00    -0.204 C  
BRANCH  11  12
HETATM   12  C   UNL     1      -9.919   8.853  66.568  1.00  0.00    -0.358 C  
BRANCH  12  13
HETATM   13  C   UNL     1     -10.138  10.122  65.748  1.00  0.00    -0.324 C  
BRANCH  13  14
HETATM   14  C   UNL     1      -9.008  11.114  65.985  1.00  0.00    -0.210 C  
BRANCH  14  15
HETATM   15  C   UNL     1      -9.493  12.333  66.764  1.00  0.00    -0.222 C  
BRANCH  15  16
HETATM   16  C   UNL     1     -10.986  12.547  66.535  1.00  0.00    -0.303 C  
BRANCH  16  17
HETATM   17  C   UNL     1     -11.249  13.695  65.567  1.00  0.00    -0.301 C  
HETATM   18  C   UNL     1     -12.409  13.389  64.651  1.00  0.00    -0.382 C  
HETATM   19  O   UNL     1     -13.071  12.365  64.658  1.00  0.00    -0.825 OA 
HETATM   20  O   UNL     1     -12.654  14.399  63.781  1.00  0.00    -0.829 OA 
ENDBRANCH  16  17
ENDBRANCH  15  16
ENDBRANCH  14  15
ENDBRANCH  13  14
ENDBRANCH  12  13
ENDBRANCH  11  12
ENDBRANCH  10  11
ENDBRANCH   8   9
ENDBRANCH   7   8
ENDBRANCH   5   6
ENDBRANCH   4   5
ENDBRANCH   3   4
ENDBRANCH   2   3
TORSDOF 13
ENDMDL
MODEL       80
REMARK 921   NORMALIZED FREE ENERGY PREDICTED BY IDOCK:   -4.33 KCAL/MOL
REMARK 922        TOTAL FREE ENERGY PREDICTED BY IDOCK:   -9.37 KCAL/MOL
REMARK 923 INTER-LIGAND FREE ENERGY PREDICTED BY IDOCK:   -7.66 KCAL/MOL
REMARK 924 INTRA-LIGAND FREE ENERGY PREDICTED BY IDOCK:   -1.70 KCAL/MOL
REMARK 927      BINDING AFFINITY PREDICTED BY RF-SCORE:    0.00 PKD
ROOT
HETATM    1  C   UNL     1     -14.030  14.170  72.215  1.00  0.00    -0.646 C  
HETATM    2  C   UNL     1     -12.692  14.132  71.498  1.00  0.00    -0.436 C  
ENDROOT
BRANCH   2   3
HETATM    3  C   UNL     1     -12.412  12.746  70.932  1.00  0.00    -0.373 C  
BRANCH   3   4
HETATM    4  C   UNL     1     -13.099  11.662  71.760  1.00  0.00    -0.487 C  
BRANCH   4   5
HETATM    5  C   UNL     1     -12.980  10.321  71.049  1.00  0.00    -0.488 C  
BRANCH   5   6
HETATM    6  C   UNL     1     -12.013   9.383  71.705  1.00  0.00    -0.452 C  
HETATM    7  C   UNL     1     -10.975   8.841  71.050  1.00  0.00    -0.328 C  
BRANCH   7   8
HETATM    8  C   UNL     1     -10.672   9.080  69.600  1.00  0.00    -0.228 C  
BRANCH   8   9
HETATM    9  C   UNL     1      -9.829  10.304  69.399  1.00  0.00    -0.247 C  
HETATM   10  C   UNL     1     -10.071  11.242  68.471  1.00  0.00    -0.210 C  
BRANCH  10  11
HETATM   11  C   UNL     1     -11.212  11.143  67.505  1.00  0.00    -0.369 C  
BRANCH  11  12
HETATM   12  C   UNL     1     -11.890  12.478  67.241  1.00  0.00    -0.381 C  
BRANCH  12  13
HETATM   13  C   UNL     1     -11.927  12.746  65.738  1.00  0.00    -0.502 C  
BRANCH  13  14
HETATM   14  C   UNL     1     -11.809  14.237  65.458  1.00  0.00    -0.363 C  
BRANCH  14  15
HETATM   15  C   UNL     1     -10.428  14.593  64.916  1.00  0.00    -0.415 C  
BRANCH  15  16
HETATM   16  C   UNL     1      -9.684  15.479  65.910  1.00  0.00    -0.392 C  
BRANCH  16  17
HETATM   17  C   UNL     1     -10.314  16.864  66.015  1.00  0.00    -0.335 C  
HETATM   18  C   UNL     1     -10.292  17.374  67.435  1.00  0.00    -0.343 C  
HETATM   19  O   UNL     1      -9.837  16.780  68.399  1.00  0.00    -0.234 OA 
HETATM   20  O   UNL     1     -10.851  18.603  67.546  1.00  0.00    -0.435 OA 
ENDBRANCH  16  17
ENDBRANCH  15  16
ENDBRANCH  14  15
ENDBRANCH  13  14
ENDBRANCH  12  13
ENDBRANCH  11  12
ENDBRANCH  10  11
ENDBRANCH   8   9
ENDBRANCH   7   8
ENDBRANCH   5   6
ENDBRANCH   4   5
ENDBRANCH   3   4
ENDBRANCH   2   3
TORSDOF 13
ENDMDL
MODEL       81
REMARK 921   NORMALIZED FREE ENERGY PREDICTED BY IDOCK:   -4.33 KCAL/MOL
REMARK 922        TOTAL FREE ENERGY PREDICTED BY IDOCK:   -9.36 KCAL/MOL
REMARK 923 INTER-LIGAND FREE ENERGY PREDICTED BY IDOCK:   -7.38 KCAL/MOL
REMARK 924 INTRA-LIGAND FREE ENERGY PREDICTED BY IDOCK:   -1.98 KCAL/MOL
REMARK 927      BINDING AFFINITY PREDICTED BY RF-SCORE:    0.00 PKD
ROOT
HETATM    1  C   UNL     1      -9.612   6.930  66.581  1.00  0.00    -0.218 C  
HETATM    2  C   UNL     1     -10.417   7.488  67.740  1.00  0.00    -0.288 C  
ENDROOT
BRANCH   2   3
HETATM    3  C   UNL     1     -11.068   6.371  68.546  1.00  0.00    -0.385 C  
BRANCH   3   4
HETATM    4  C   UNL     1     -10.244   6.034  69.787  1.00  0.00    -0.265 C  
BRANCH   4   5
HETATM    5  C   UNL     1     -11.155   5.977  71.006  1.00  0.00    -0.348 C  
BRANCH   5   6
HETATM    6  C   UNL     1     -10.733   6.902  72.108  1.00  0.00    -0.248 C  
HETATM    7  C   UNL     1     -11.529   7.877  72.576  1.00  0.00    -0.455 C  
BRANCH   7   8
HETATM    8  C   UNL     1     -12.901   8.175  72.049  1.00  0.00    -0.346 C  
BRANCH   8   9
HETATM    9  C   UNL     1     -13.256   9.623  72.206  1.00  0.00    -0.492 C  
HETATM   10  C   UNL     1     -13.039  10.559  71.268  1.00  0.00    -0.478 C  
BRANCH  10  11
HETATM   11  C   UNL     1     -12.381  10.248  69.958  1.00  0.00    -0.158 C  
BRANCH  11  12
HETATM   12  C   UNL     1     -10.899  10.583  69.939  1.00  0.00    -0.334 C  
BRANCH  12  13
HETATM   13  C   UNL     1     -10.578  11.420  68.703  1.00  0.00    -0.229 C  
BRANCH  13  14
HETATM   14  C   UNL     1     -11.688  12.427  68.437  1.00  0.00    -0.386 C  
BRANCH  14  15
HETATM   15  C   UNL     1     -11.453  13.726  69.202  1.00  0.00    -0.346 C  
BRANCH  15  16
HETATM   16  C   UNL     1     -12.619  14.000  70.147  1.00  0.00    -0.310 C  
BRANCH  16  17
HETATM   17  C   UNL     1     -12.144  14.559  71.484  1.00  0.00    -0.400 C  
HETATM   18  C   UNL     1     -13.138  14.277  72.584  1.00  0.00    -0.478 C  
HETATM   19  O   UNL     1     -14.194  13.681  72.455  1.00  0.00    -0.724 OA 
HETATM   20  O   UNL     1     -12.732  14.771  73.779  1.00  0.00    -0.491 OA 
ENDBRANCH  16  17
ENDBRANCH  15  16
ENDBRANCH  14  15
ENDBRANCH  13  14
ENDBRANCH  12  13
ENDBRANCH  11  12
ENDBRANCH  10  11
ENDBRANCH   8   9
ENDBRANCH   7   8
ENDBRANCH   5   6
ENDBRANCH   4   5
ENDBRANCH   3   4
ENDBRANCH   2   3
TORSDOF 13
ENDMDL
MODEL       82
REMARK 921   NORMALIZED FREE ENERGY PREDICTED BY IDOCK:   -4.33 KCAL/MOL
REMARK 922        TOTAL FREE ENERGY PREDICTED BY IDOCK:   -9.36 KCAL/MOL
REMARK 923 INTER-LIGAND FREE ENERGY PREDICTED BY IDOCK:   -7.49 KCAL/MOL
REMARK 924 INTRA-LIGAND FREE ENERGY PREDICTED BY IDOCK:   -1.87 KCAL/MOL
REMARK 927      BINDING AFFINITY PREDICTED BY RF-SCORE:    0.00 PKD
ROOT
HETATM    1  C   UNL     1     -12.973  10.704  71.570  1.00  0.00    -0.566 C  
HETATM    2  C   UNL     1     -12.886   9.244  71.979  1.00  0.00    -0.495 C  
ENDROOT
BRANCH   2   3
HETATM    3  C   UNL     1     -11.463   8.719  71.840  1.00  0.00    -0.428 C  
BRANCH   3   4
HETATM    4  C   UNL     1     -11.426   7.194  71.927  1.00  0.00    -0.305 C  
BRANCH   4   5
HETATM    5  C   UNL     1     -11.808   6.595  70.580  1.00  0.00    -0.443 C  
BRANCH   5   6
HETATM    6  C   UNL     1     -10.750   5.703  70.004  1.00  0.00    -0.390 C  
HETATM    7  C   UNL     1     -10.433   5.709  68.699  1.00  0.00    -0.277 C  
BRANCH   7   8
HETATM    8  C   UNL     1     -11.103   6.571  67.670  1.00  0.00    -0.380 C  
BRANCH   8   9
HETATM    9  C   UNL     1     -10.122   7.447  66.950  1.00  0.00    -0.327 C  
HETATM   10  C   UNL     1      -9.816   8.700  67.321  1.00  0.00    -0.256 C  
BRANCH  10  11
HETATM   11  C   UNL     1     -10.460   9.371  68.496  1.00  0.00    -0.239 C  
BRANCH  11  12
HETATM   12  C   UNL     1     -11.394  10.503  68.101  1.00  0.00    -0.324 C  
BRANCH  12  13
HETATM   13  C   UNL     1     -10.795  11.838  68.540  1.00  0.00    -0.261 C  
BRANCH  13  14
HETATM   14  C   UNL     1     -11.876  12.906  68.625  1.00  0.00    -0.347 C  
BRANCH  14  15
HETATM   15  C   UNL     1     -11.273  14.307  68.631  1.00  0.00    -0.287 C  
BRANCH  15  16
HETATM   16  C   UNL     1     -11.560  14.999  69.960  1.00  0.00    -0.324 C  
BRANCH  16  17
HETATM   17  C   UNL     1     -12.741  14.363  70.685  1.00  0.00    -0.421 C  
HETATM   18  C   UNL     1     -12.679  14.620  72.171  1.00  0.00    -0.334 C  
HETATM   19  O   UNL     1     -11.811  15.252  72.750  1.00  0.00    -0.411 OA 
HETATM   20  O   UNL     1     -13.720  14.058  72.831  1.00  0.00    -0.677 OA 
ENDBRANCH  16  17
ENDBRANCH  15  16
ENDBRANCH  14  15
ENDBRANCH  13  14
ENDBRANCH  12  13
ENDBRANCH  11  12
ENDBRANCH  10  11
ENDBRANCH   8   9
ENDBRANCH   7   8
ENDBRANCH   5   6
ENDBRANCH   4   5
ENDBRANCH   3   4
ENDBRANCH   2   3
TORSDOF 13
ENDMDL
MODEL       83
REMARK 921   NORMALIZED FREE ENERGY PREDICTED BY IDOCK:   -4.33 KCAL/MOL
REMARK 922        TOTAL FREE ENERGY PREDICTED BY IDOCK:   -9.36 KCAL/MOL
REMARK 923 INTER-LIGAND FREE ENERGY PREDICTED BY IDOCK:   -7.26 KCAL/MOL
REMARK 924 INTRA-LIGAND FREE ENERGY PREDICTED BY IDOCK:   -2.09 KCAL/MOL
REMARK 927      BINDING AFFINITY PREDICTED BY RF-SCORE:    0.00 PKD
ROOT
HETATM    1  C   UNL     1     -14.251  14.993  71.983  1.00  0.00    -0.649 C  
HETATM    2  C   UNL     1     -12.938  15.482  71.396  1.00  0.00    -0.553 C  
ENDROOT
BRANCH   2   3
HETATM    3  C   UNL     1     -12.515  14.627  70.208  1.00  0.00    -0.401 C  
BRANCH   3   4
HETATM    4  C   UNL     1     -12.222  13.191  70.638  1.00  0.00    -0.402 C  
BRANCH   4   5
HETATM    5  C   UNL     1     -12.096  12.303  69.407  1.00  0.00    -0.234 C  
BRANCH   5   6
HETATM    6  C   UNL     1     -11.096  11.199  69.570  1.00  0.00    -0.311 C  
HETATM    7  C   UNL     1     -10.243  10.848  68.594  1.00  0.00    -0.201 C  
BRANCH   7   8
HETATM    8  C   UNL     1     -10.203  11.485  67.237  1.00  0.00    -0.229 C  
BRANCH   8   9
HETATM    9  C   UNL     1      -8.922  11.184  66.517  1.00  0.00    -0.185 C  
HETATM   10  C   UNL     1      -8.855  10.746  65.250  1.00  0.00    -0.200 C  
BRANCH  10  11
HETATM   11  C   UNL     1     -10.077  10.484  64.423  1.00  0.00    -0.395 C  
BRANCH  11  12
HETATM   12  C   UNL     1     -10.362  11.582  63.411  1.00  0.00    -0.469 C  
BRANCH  12  13
HETATM   13  C   UNL     1     -11.790  12.089  63.594  1.00  0.00    -0.602 C  
BRANCH  13  14
HETATM   14  C   UNL     1     -11.787  13.513  64.129  1.00  0.00    -0.483 C  
BRANCH  14  15
HETATM   15  C   UNL     1     -12.595  13.624  65.419  1.00  0.00    -0.533 C  
BRANCH  15  16
HETATM   16  C   UNL     1     -11.899  14.564  66.399  1.00  0.00    -0.361 C  
BRANCH  16  17
HETATM   17  C   UNL     1     -10.574  15.077  65.845  1.00  0.00    -0.338 C  
HETATM   18  C   UNL     1      -9.571  15.315  66.947  1.00  0.00    -0.233 C  
HETATM   19  O   UNL     1      -9.763  15.131  68.137  1.00  0.00    -0.212 OA 
HETATM   20  O   UNL     1      -8.388  15.775  66.471  1.00  0.00    -0.272 OA 
ENDBRANCH  16  17
ENDBRANCH  15  16
ENDBRANCH  14  15
ENDBRANCH  13  14
ENDBRANCH  12  13
ENDBRANCH  11  12
ENDBRANCH  10  11
ENDBRANCH   8   9
ENDBRANCH   7   8
ENDBRANCH   5   6
ENDBRANCH   4   5
ENDBRANCH   3   4
ENDBRANCH   2   3
TORSDOF 13
ENDMDL
MODEL       84
REMARK 921   NORMALIZED FREE ENERGY PREDICTED BY IDOCK:   -4.31 KCAL/MOL
REMARK 922        TOTAL FREE ENERGY PREDICTED BY IDOCK:   -9.34 KCAL/MOL
REMARK 923 INTER-LIGAND FREE ENERGY PREDICTED BY IDOCK:   -7.55 KCAL/MOL
REMARK 924 INTRA-LIGAND FREE ENERGY PREDICTED BY IDOCK:   -1.78 KCAL/MOL
REMARK 927      BINDING AFFINITY PREDICTED BY RF-SCORE:    0.00 PKD
ROOT
HETATM    1  C   UNL     1     -10.211   9.897  68.436  1.00  0.00    -0.203 C  
HETATM    2  C   UNL     1     -10.813  11.106  69.130  1.00  0.00    -0.284 C  
ENDROOT
BRANCH   2   3
HETATM    3  C   UNL     1     -11.520  10.704  70.418  1.00  0.00    -0.422 C  
BRANCH   3   4
HETATM    4  C   UNL     1     -12.852  11.435  70.567  1.00  0.00    -0.123 C  
BRANCH   4   5
HETATM    5  C   UNL     1     -12.935  12.074  71.947  1.00  0.00    -0.428 C  
BRANCH   5   6
HETATM    6  C   UNL     1     -14.032  13.089  72.068  1.00  0.00    -0.196 C  
HETATM    7  C   UNL     1     -13.849  14.282  72.655  1.00  0.00    -0.489 C  
BRANCH   7   8
HETATM    8  C   UNL     1     -12.559  14.732  73.274  1.00  0.00    -0.554 C  
BRANCH   8   9
HETATM    9  C   UNL     1     -12.096  16.042  72.712  1.00  0.00    -0.635 C  
HETATM   10  C   UNL     1     -11.438  16.174  71.549  1.00  0.00    -0.412 C  
BRANCH  10  11
HETATM   11  C   UNL     1     -11.068  14.999  70.696  1.00  0.00    -0.238 C  
BRANCH  11  12
HETATM   12  C   UNL     1     -11.524  15.139  69.253  1.00  0.00    -0.327 C  
BRANCH  12  13
HETATM   13  C   UNL     1     -10.364  15.639  68.396  1.00  0.00    -0.231 C  
BRANCH  13  14
HETATM   14  C   UNL     1     -10.635  15.372  66.922  1.00  0.00    -0.309 C  
BRANCH  14  15
HETATM   15  C   UNL     1      -9.578  14.450  66.321  1.00  0.00    -0.321 C  
BRANCH  15  16
HETATM   16  C   UNL     1     -10.186  13.086  66.008  1.00  0.00    -0.292 C  
BRANCH  16  17
HETATM   17  C   UNL     1     -10.664  12.999  64.562  1.00  0.00    -0.404 C  
HETATM   18  C   UNL     1     -12.170  13.047  64.477  1.00  0.00    -0.416 C  
HETATM   19  O   UNL     1     -12.936  13.143  65.422  1.00  0.00    -0.617 OA 
HETATM   20  O   UNL     1     -12.613  12.968  63.198  1.00  0.00    -0.649 OA 
ENDBRANCH  16  17
ENDBRANCH  15  16
ENDBRANCH  14  15
ENDBRANCH  13  14
ENDBRANCH  12  13
ENDBRANCH  11  12
ENDBRANCH  10  11
ENDBRANCH   8   9
ENDBRANCH   7   8
ENDBRANCH   5   6
ENDBRANCH   4   5
ENDBRANCH   3   4
ENDBRANCH   2   3
TORSDOF 13
ENDMDL
MODEL       85
REMARK 921   NORMALIZED FREE ENERGY PREDICTED BY IDOCK:   -4.30 KCAL/MOL
REMARK 922        TOTAL FREE ENERGY PREDICTED BY IDOCK:   -9.31 KCAL/MOL
REMARK 923 INTER-LIGAND FREE ENERGY PREDICTED BY IDOCK:   -7.39 KCAL/MOL
REMARK 924 INTRA-LIGAND FREE ENERGY PREDICTED BY IDOCK:   -1.93 KCAL/MOL
REMARK 927      BINDING AFFINITY PREDICTED BY RF-SCORE:    0.00 PKD
ROOT
HETATM    1  C   UNL     1     -13.134  10.855  71.721  1.00  0.00    -0.564 C  
HETATM    2  C   UNL     1     -11.986  10.769  70.731  1.00  0.00    -0.464 C  
ENDROOT
BRANCH   2   3
HETATM    3  C   UNL     1     -11.005   9.672  71.122  1.00  0.00    -0.430 C  
BRANCH   3   4
HETATM    4  C   UNL     1      -9.828   9.612  70.149  1.00  0.00    -0.310 C  
BRANCH   4   5
HETATM    5  C   UNL     1     -10.250  10.175  68.799  1.00  0.00    -0.200 C  
BRANCH   5   6
HETATM    6  C   UNL     1     -10.203   9.165  67.692  1.00  0.00    -0.293 C  
HETATM    7  C   UNL     1     -10.073   9.513  66.402  1.00  0.00    -0.328 C  
BRANCH   7   8
HETATM    8  C   UNL     1      -9.988  10.929  65.913  1.00  0.00    -0.294 C  
BRANCH   8   9
HETATM    9  C   UNL     1      -9.667  10.995  64.449  1.00  0.00    -0.330 C  
HETATM   10  C   UNL     1     -10.501  11.480  63.516  1.00  0.00    -0.486 C  
BRANCH  10  11
HETATM   11  C   UNL     1     -11.872  11.986  63.846  1.00  0.00    -0.543 C  
BRANCH  11  12
HETATM   12  C   UNL     1     -11.927  13.495  64.019  1.00  0.00    -0.501 C  
BRANCH  12  13
HETATM   13  C   UNL     1     -12.769  13.840  65.245  1.00  0.00    -0.481 C  
BRANCH  13  14
HETATM   14  C   UNL     1     -11.877  14.239  66.411  1.00  0.00    -0.427 C  
BRANCH  14  15
HETATM   15  C   UNL     1     -11.953  13.218  67.543  1.00  0.00    -0.371 C  
BRANCH  15  16
HETATM   16  C   UNL     1     -11.533  13.861  68.862  1.00  0.00    -0.340 C  
BRANCH  16  17
HETATM   17  C   UNL     1     -10.093  14.360  68.814  1.00  0.00    -0.234 C  
HETATM   18  C   UNL     1     -10.016  15.845  69.072  1.00  0.00    -0.233 C  
HETATM   19  O   UNL     1     -10.964  16.581  69.293  1.00  0.00    -0.316 OA 
HETATM   20  O   UNL     1      -8.742  16.306  69.029  1.00  0.00    -0.242 OA 
ENDBRANCH  16  17
ENDBRANCH  15  16
ENDBRANCH  14  15
ENDBRANCH  13  14
ENDBRANCH  12  13
ENDBRANCH  11  12
ENDBRANCH  10  11
ENDBRANCH   8   9
ENDBRANCH   7   8
ENDBRANCH   5   6
ENDBRANCH   4   5
ENDBRANCH   3   4
ENDBRANCH   2   3
TORSDOF 13
ENDMDL
MODEL       86
REMARK 921   NORMALIZED FREE ENERGY PREDICTED BY IDOCK:   -4.30 KCAL/MOL
REMARK 922        TOTAL FREE ENERGY PREDICTED BY IDOCK:   -9.31 KCAL/MOL
REMARK 923 INTER-LIGAND FREE ENERGY PREDICTED BY IDOCK:   -6.97 KCAL/MOL
REMARK 924 INTRA-LIGAND FREE ENERGY PREDICTED BY IDOCK:   -2.34 KCAL/MOL
REMARK 927      BINDING AFFINITY PREDICTED BY RF-SCORE:    0.00 PKD
ROOT
HETATM    1  C   UNL     1     -12.643  13.550  65.505  1.00  0.00    -0.531 C  
HETATM    2  C   UNL     1     -11.558  13.471  64.447  1.00  0.00    -0.429 C  
ENDROOT
BRANCH   2   3
HETATM    3  C   UNL     1     -11.722  12.226  63.584  1.00  0.00    -0.591 C  
BRANCH   3   4
HETATM    4  C   UNL     1     -10.366  11.634  63.205  1.00  0.00    -0.444 C  
BRANCH   4   5
HETATM    5  C   UNL     1      -9.571  11.327  64.467  1.00  0.00    -0.260 C  
BRANCH   5   6
HETATM    6  C   UNL     1      -9.706   9.907  64.926  1.00  0.00    -0.332 C  
HETATM    7  C   UNL     1     -10.174   9.583  66.142  1.00  0.00    -0.272 C  
BRANCH   7   8
HETATM    8  C   UNL     1     -10.586  10.581  67.183  1.00  0.00    -0.319 C  
BRANCH   8   9
HETATM    9  C   UNL     1      -9.425  11.025  68.021  1.00  0.00    -0.169 C  
HETATM   10  C   UNL     1      -9.144  12.307  68.302  1.00  0.00    -0.187 C  
BRANCH  10  11
HETATM   11  C   UNL     1      -9.962  13.445  67.772  1.00  0.00    -0.233 C  
BRANCH  11  12
HETATM   12  C   UNL     1     -10.691  14.216  68.861  1.00  0.00    -0.270 C  
BRANCH  12  13
HETATM   13  C   UNL     1     -12.097  13.647  69.039  1.00  0.00    -0.348 C  
BRANCH  13  14
HETATM   14  C   UNL     1     -12.224  12.949  70.385  1.00  0.00    -0.381 C  
BRANCH  14  15
HETATM   15  C   UNL     1     -12.568  11.472  70.214  1.00  0.00    -0.193 C  
BRANCH  15  16
HETATM   16  C   UNL     1     -12.424  10.740  71.545  1.00  0.00    -0.447 C  
BRANCH  16  17
HETATM   17  C   UNL     1     -12.029   9.280  71.346  1.00  0.00    -0.424 C  
HETATM   18  C   UNL     1     -13.194   8.355  71.596  1.00  0.00    -0.339 C  
HETATM   19  O   UNL     1     -14.321   8.698  71.917  1.00  0.00    -0.423 OA 
HETATM   20  O   UNL     1     -12.859   7.053  71.427  1.00  0.00    -0.377 OA 
ENDBRANCH  16  17
ENDBRANCH  15  16
ENDBRANCH  14  15
ENDBRANCH  13  14
ENDBRANCH  12  13
ENDBRANCH  11  12
ENDBRANCH  10  11
ENDBRANCH   8   9
ENDBRANCH   7   8
ENDBRANCH   5   6
ENDBRANCH   4   5
ENDBRANCH   3   4
ENDBRANCH   2   3
TORSDOF 13
ENDMDL
MODEL       87
REMARK 921   NORMALIZED FREE ENERGY PREDICTED BY IDOCK:   -4.28 KCAL/MOL
REMARK 922        TOTAL FREE ENERGY PREDICTED BY IDOCK:   -9.28 KCAL/MOL
REMARK 923 INTER-LIGAND FREE ENERGY PREDICTED BY IDOCK:   -7.30 KCAL/MOL
REMARK 924 INTRA-LIGAND FREE ENERGY PREDICTED BY IDOCK:   -1.98 KCAL/MOL
REMARK 927      BINDING AFFINITY PREDICTED BY RF-SCORE:    0.00 PKD
ROOT
HETATM    1  C   UNL     1     -13.381   9.208  72.289  1.00  0.00    -0.540 C  
HETATM    2  C   UNL     1     -11.939   8.984  71.869  1.00  0.00    -0.445 C  
ENDROOT
BRANCH   2   3
HETATM    3  C   UNL     1     -11.479  10.057  70.890  1.00  0.00    -0.452 C  
BRANCH   3   4
HETATM    4  C   UNL     1     -12.645  10.940  70.452  1.00  0.00    -0.376 C  
BRANCH   4   5
HETATM    5  C   UNL     1     -12.383  12.380  70.870  1.00  0.00    -0.358 C  
BRANCH   5   6
HETATM    6  C   UNL     1     -13.401  12.916  71.832  1.00  0.00    -0.530 C  
HETATM    7  C   UNL     1     -13.187  14.015  72.572  1.00  0.00    -0.602 C  
BRANCH   7   8
HETATM    8  C   UNL     1     -11.917  14.815  72.551  1.00  0.00    -0.280 C  
BRANCH   8   9
HETATM    9  C   UNL     1     -12.034  16.024  71.671  1.00  0.00    -0.569 C  
HETATM   10  C   UNL     1     -11.398  16.168  70.498  1.00  0.00    -0.392 C  
BRANCH  10  11
HETATM   11  C   UNL     1     -10.468  15.126  69.955  1.00  0.00    -0.234 C  
BRANCH  11  12
HETATM   12  C   UNL     1     -10.060  15.382  68.513  1.00  0.00    -0.213 C  
BRANCH  12  13
HETATM   13  C   UNL     1     -11.297  15.353  67.618  1.00  0.00    -0.292 C  
BRANCH  13  14
HETATM   14  C   UNL     1     -11.890  13.953  67.571  1.00  0.00    -0.431 C  
BRANCH  14  15
HETATM   15  C   UNL     1     -11.790  13.353  66.172  1.00  0.00    -0.427 C  
BRANCH  15  16
HETATM   16  C   UNL     1     -10.448  12.649  65.994  1.00  0.00    -0.288 C  
BRANCH  16  17
HETATM   17  C   UNL     1     -10.143  11.714  67.159  1.00  0.00    -0.227 C  
HETATM   18  C   UNL     1     -10.079  10.275  66.709  1.00  0.00    -0.216 C  
HETATM   19  O   UNL     1     -10.245   9.877  65.568  1.00  0.00    -0.273 OA 
HETATM   20  O   UNL     1      -9.811   9.430  67.734  1.00  0.00    -0.157 OA 
ENDBRANCH  16  17
ENDBRANCH  15  16
ENDBRANCH  14  15
ENDBRANCH  13  14
ENDBRANCH  12  13
ENDBRANCH  11  12
ENDBRANCH  10  11
ENDBRANCH   8   9
ENDBRANCH   7   8
ENDBRANCH   5   6
ENDBRANCH   4   5
ENDBRANCH   3   4
ENDBRANCH   2   3
TORSDOF 13
ENDMDL
MODEL       88
REMARK 921   NORMALIZED FREE ENERGY PREDICTED BY IDOCK:   -4.27 KCAL/MOL
REMARK 922        TOTAL FREE ENERGY PREDICTED BY IDOCK:   -9.26 KCAL/MOL
REMARK 923 INTER-LIGAND FREE ENERGY PREDICTED BY IDOCK:   -7.18 KCAL/MOL
REMARK 924 INTRA-LIGAND FREE ENERGY PREDICTED BY IDOCK:   -2.08 KCAL/MOL
REMARK 927      BINDING AFFINITY PREDICTED BY RF-SCORE:    0.00 PKD
ROOT
HETATM    1  C   UNL     1      -9.558   8.302  72.634  1.00  0.00    -0.352 C  
HETATM    2  C   UNL     1     -10.029   8.637  71.230  1.00  0.00    -0.315 C  
ENDROOT
BRANCH   2   3
HETATM    3  C   UNL     1     -11.470   8.192  71.014  1.00  0.00    -0.301 C  
BRANCH   3   4
HETATM    4  C   UNL     1     -12.402   8.820  72.048  1.00  0.00    -0.444 C  
BRANCH   4   5
HETATM    5  C   UNL     1     -13.287   9.860  71.376  1.00  0.00    -0.447 C  
BRANCH   5   6
HETATM    6  C   UNL     1     -12.775  11.262  71.523  1.00  0.00    -0.481 C  
HETATM    7  C   UNL     1     -12.173  11.918  70.518  1.00  0.00    -0.426 C  
BRANCH   7   8
HETATM    8  C   UNL     1     -11.917  11.336  69.160  1.00  0.00    -0.405 C  
BRANCH   8   9
HETATM    9  C   UNL     1     -10.507  11.572  68.708  1.00  0.00    -0.227 C  
HETATM   10  C   UNL     1     -10.089  11.439  67.439  1.00  0.00    -0.208 C  
BRANCH  10  11
HETATM   11  C   UNL     1     -11.002  11.003  66.333  1.00  0.00    -0.202 C  
BRANCH  11  12
HETATM   12  C   UNL     1     -11.007  11.958  65.150  1.00  0.00    -0.365 C  
BRANCH  12  13
HETATM   13  C   UNL     1     -12.357  12.667  65.070  1.00  0.00    -0.561 C  
BRANCH  13  14
HETATM   14  C   UNL     1     -12.163  14.173  64.975  1.00  0.00    -0.450 C  
BRANCH  14  15
HETATM   15  C   UNL     1     -10.727  14.571  65.302  1.00  0.00    -0.390 C  
BRANCH  15  16
HETATM   16  C   UNL     1     -10.713  15.697  66.332  1.00  0.00    -0.291 C  
BRANCH  16  17
HETATM   17  C   UNL     1     -11.084  15.194  67.723  1.00  0.00    -0.313 C  
HETATM   18  C   UNL     1     -10.948  16.285  68.757  1.00  0.00    -0.343 C  
HETATM   19  O   UNL     1     -10.591  17.432  68.542  1.00  0.00    -0.364 OA 
HETATM   20  O   UNL     1     -11.271  15.854  70.001  1.00  0.00    -0.296 OA 
ENDBRANCH  16  17
ENDBRANCH  15  16
ENDBRANCH  14  15
ENDBRANCH  13  14
ENDBRANCH  12  13
ENDBRANCH  11  12
ENDBRANCH  10  11
ENDBRANCH   8   9
ENDBRANCH   7   8
ENDBRANCH   5   6
ENDBRANCH   4   5
ENDBRANCH   3   4
ENDBRANCH   2   3
TORSDOF 13
ENDMDL
MODEL       89
REMARK 921   NORMALIZED FREE ENERGY PREDICTED BY IDOCK:   -4.27 KCAL/MOL
REMARK 922        TOTAL FREE ENERGY PREDICTED BY IDOCK:   -9.26 KCAL/MOL
REMARK 923 INTER-LIGAND FREE ENERGY PREDICTED BY IDOCK:   -7.41 KCAL/MOL
REMARK 924 INTRA-LIGAND FREE ENERGY PREDICTED BY IDOCK:   -1.85 KCAL/MOL
REMARK 927      BINDING AFFINITY PREDICTED BY RF-SCORE:    0.00 PKD
ROOT
HETATM    1  C   UNL     1     -12.577  15.746  74.247  1.00  0.00    -0.734 C  
HETATM    2  C   UNL     1     -13.208  15.403  72.909  1.00  0.00    -0.622 C  
ENDROOT
BRANCH   2   3
HETATM    3  C   UNL     1     -12.150  14.999  71.890  1.00  0.00    -0.443 C  
BRANCH   3   4
HETATM    4  C   UNL     1     -12.051  16.024  70.761  1.00  0.00    -0.296 C  
BRANCH   4   5
HETATM    5  C   UNL     1     -12.138  15.315  69.416  1.00  0.00    -0.301 C  
BRANCH   5   6
HETATM    6  C   UNL     1     -10.959  14.434  69.131  1.00  0.00    -0.288 C  
HETATM    7  C   UNL     1     -10.622  14.060  67.886  1.00  0.00    -0.246 C  
BRANCH   7   8
HETATM    8  C   UNL     1     -11.383  14.447  66.652  1.00  0.00    -0.359 C  
BRANCH   8   9
HETATM    9  C   UNL     1     -12.243  13.326  66.152  1.00  0.00    -0.466 C  
HETATM   10  C   UNL     1     -11.795  12.311  65.397  1.00  0.00    -0.418 C  
BRANCH  10  11
HETATM   11  C   UNL     1     -10.369  12.211  64.946  1.00  0.00    -0.321 C  
BRANCH  11  12
HETATM   12  C   UNL     1      -9.538  11.263  65.795  1.00  0.00    -0.256 C  
BRANCH  12  13
HETATM   13  C   UNL     1     -10.395  10.074  66.224  1.00  0.00    -0.235 C  
BRANCH  13  14
HETATM   14  C   UNL     1      -9.926   9.534  67.567  1.00  0.00    -0.235 C  
BRANCH  14  15
HETATM   15  C   UNL     1     -10.062  10.584  68.666  1.00  0.00    -0.190 C  
BRANCH  15  16
HETATM   16  C   UNL     1     -10.949  10.060  69.790  1.00  0.00    -0.317 C  
BRANCH  16  17
HETATM   17  C   UNL     1     -11.886  11.140  70.320  1.00  0.00    -0.455 C  
HETATM   18  C   UNL     1     -12.693  10.642  71.494  1.00  0.00    -0.444 C  
HETATM   19  O   UNL     1     -12.629   9.526  71.981  1.00  0.00    -0.379 OA 
HETATM   20  O   UNL     1     -13.534  11.589  71.976  1.00  0.00    -0.405 OA 
ENDBRANCH  16  17
ENDBRANCH  15  16
ENDBRANCH  14  15
ENDBRANCH  13  14
ENDBRANCH  12  13
ENDBRANCH  11  12
ENDBRANCH  10  11
ENDBRANCH   8   9
ENDBRANCH   7   8
ENDBRANCH   5   6
ENDBRANCH   4   5
ENDBRANCH   3   4
ENDBRANCH   2   3
TORSDOF 13
ENDMDL
MODEL       90
REMARK 921   NORMALIZED FREE ENERGY PREDICTED BY IDOCK:   -4.27 KCAL/MOL
REMARK 922        TOTAL FREE ENERGY PREDICTED BY IDOCK:   -9.26 KCAL/MOL
REMARK 923 INTER-LIGAND FREE ENERGY PREDICTED BY IDOCK:   -7.10 KCAL/MOL
REMARK 924 INTRA-LIGAND FREE ENERGY PREDICTED BY IDOCK:   -2.16 KCAL/MOL
REMARK 927      BINDING AFFINITY PREDICTED BY RF-SCORE:    0.00 PKD
ROOT
HETATM    1  C   UNL     1      -9.561  11.423  63.095  1.00  0.00    -0.398 C  
HETATM    2  C   UNL     1     -10.761  11.329  64.020  1.00  0.00    -0.444 C  
ENDROOT
BRANCH   2   3
HETATM    3  C   UNL     1     -11.814  12.370  63.663  1.00  0.00    -0.610 C  
BRANCH   3   4
HETATM    4  C   UNL     1     -12.726  12.663  64.852  1.00  0.00    -0.450 C  
BRANCH   4   5
HETATM    5  C   UNL     1     -12.498  14.090  65.334  1.00  0.00    -0.520 C  
BRANCH   5   6
HETATM    6  C   UNL     1     -11.305  14.746  64.707  1.00  0.00    -0.399 C  
HETATM    7  C   UNL     1     -10.176  14.992  65.390  1.00  0.00    -0.411 C  
BRANCH   7   8
HETATM    8  C   UNL     1      -9.978  14.673  66.842  1.00  0.00    -0.254 C  
BRANCH   8   9
HETATM    9  C   UNL     1      -9.404  13.302  67.039  1.00  0.00    -0.242 C  
HETATM   10  C   UNL     1      -9.949  12.363  67.828  1.00  0.00    -0.205 C  
BRANCH  10  11
HETATM   11  C   UNL     1     -11.193  12.606  68.628  1.00  0.00    -0.323 C  
BRANCH  11  12
HETATM   12  C   UNL     1     -11.935  11.328  68.983  1.00  0.00    -0.393 C  
BRANCH  12  13
HETATM   13  C   UNL     1     -11.925  11.133  70.498  1.00  0.00    -0.475 C  
BRANCH  13  14
HETATM   14  C   UNL     1     -11.505   9.714  70.851  1.00  0.00    -0.427 C  
BRANCH  14  15
HETATM   15  C   UNL     1      -9.986   9.585  70.920  1.00  0.00    -0.308 C  
BRANCH  15  16
HETATM   16  C   UNL     1      -9.542   8.254  70.322  1.00  0.00    -0.169 C  
BRANCH  16  17
HETATM   17  C   UNL     1     -10.141   8.028  68.938  1.00  0.00    -0.209 C  
HETATM   18  C   UNL     1     -10.819   6.683  68.844  1.00  0.00    -0.277 C  
HETATM   19  O   UNL     1     -10.895   5.859  69.740  1.00  0.00    -0.317 OA 
HETATM   20  O   UNL     1     -11.355   6.465  67.619  1.00  0.00    -0.267 OA 
ENDBRANCH  16  17
ENDBRANCH  15  16
ENDBRANCH  14  15
ENDBRANCH  13  14
ENDBRANCH  12  13
ENDBRANCH  11  12
ENDBRANCH  10  11
ENDBRANCH   8   9
ENDBRANCH   7   8
ENDBRANCH   5   6
ENDBRANCH   4   5
ENDBRANCH   3   4
ENDBRANCH   2   3
TORSDOF 13
ENDMDL
MODEL       91
REMARK 921   NORMALIZED FREE ENERGY PREDICTED BY IDOCK:   -4.27 KCAL/MOL
REMARK 922        TOTAL FREE ENERGY PREDICTED BY IDOCK:   -9.26 KCAL/MOL
REMARK 923 INTER-LIGAND FREE ENERGY PREDICTED BY IDOCK:   -7.01 KCAL/MOL
REMARK 924 INTRA-LIGAND FREE ENERGY PREDICTED BY IDOCK:   -2.24 KCAL/MOL
REMARK 927      BINDING AFFINITY PREDICTED BY RF-SCORE:    0.00 PKD
ROOT
HETATM    1  C   UNL     1      -8.990   8.589  71.999  1.00  0.00    -0.301 C  
HETATM    2  C   UNL     1      -8.720   8.815  70.522  1.00  0.00    -0.196 C  
ENDROOT
BRANCH   2   3
HETATM    3  C   UNL     1      -9.028   7.564  69.709  1.00  0.00    -0.141 C  
BRANCH   3   4
HETATM    4  C   UNL     1     -10.292   7.747  68.872  1.00  0.00    -0.224 C  
BRANCH   4   5
HETATM    5  C   UNL     1     -11.244   6.584  69.120  1.00  0.00    -0.367 C  
BRANCH   5   6
HETATM    6  C   UNL     1     -11.181   6.052  70.520  1.00  0.00    -0.363 C  
HETATM    7  C   UNL     1     -11.990   6.492  71.497  1.00  0.00    -0.383 C  
BRANCH   7   8
HETATM    8  C   UNL     1     -13.020   7.569  71.321  1.00  0.00    -0.323 C  
BRANCH   8   9
HETATM    9  C   UNL     1     -12.770   8.734  72.232  1.00  0.00    -0.466 C  
HETATM   10  C   UNL     1     -12.586   9.995  71.810  1.00  0.00    -0.504 C  
BRANCH  10  11
HETATM   11  C   UNL     1     -12.584  10.365  70.358  1.00  0.00    -0.329 C  
BRANCH  11  12
HETATM   12  C   UNL     1     -11.412  11.252  69.969  1.00  0.00    -0.359 C  
BRANCH  12  13
HETATM   13  C   UNL     1     -11.930  12.612  69.504  1.00  0.00    -0.332 C  
BRANCH  13  14
HETATM   14  C   UNL     1     -11.196  13.063  68.251  1.00  0.00    -0.309 C  
BRANCH  14  15
HETATM   15  C   UNL     1     -11.970  14.153  67.515  1.00  0.00    -0.419 C  
BRANCH  15  16
HETATM   16  C   UNL     1     -12.050  13.830  66.026  1.00  0.00    -0.470 C  
BRANCH  16  17
HETATM   17  C   UNL     1     -11.794  12.352  65.754  1.00  0.00    -0.467 C  
HETATM   18  C   UNL     1     -10.886  12.160  64.564  1.00  0.00    -0.312 C  
HETATM   19  O   UNL     1     -10.402  13.051  63.885  1.00  0.00    -0.382 OA 
HETATM   20  O   UNL     1     -10.650  10.851  64.307  1.00  0.00    -0.368 OA 
ENDBRANCH  16  17
ENDBRANCH  15  16
ENDBRANCH  14  15
ENDBRANCH  13  14
ENDBRANCH  12  13
ENDBRANCH  11  12
ENDBRANCH  10  11
ENDBRANCH   8   9
ENDBRANCH   7   8
ENDBRANCH   5   6
ENDBRANCH   4   5
ENDBRANCH   3   4
ENDBRANCH   2   3
TORSDOF 13
ENDMDL
MODEL       92
REMARK 921   NORMALIZED FREE ENERGY PREDICTED BY IDOCK:   -4.25 KCAL/MOL
REMARK 922        TOTAL FREE ENERGY PREDICTED BY IDOCK:   -9.23 KCAL/MOL
REMARK 923 INTER-LIGAND FREE ENERGY PREDICTED BY IDOCK:   -7.20 KCAL/MOL
REMARK 924 INTRA-LIGAND FREE ENERGY PREDICTED BY IDOCK:   -2.03 KCAL/MOL
REMARK 927      BINDING AFFINITY PREDICTED BY RF-SCORE:    0.00 PKD
ROOT
HETATM    1  C   UNL     1     -12.828  13.918  65.576  1.00  0.00    -0.471 C  
HETATM    2  C   UNL     1     -12.159  13.595  64.251  1.00  0.00    -0.480 C  
ENDROOT
BRANCH   2   3
HETATM    3  C   UNL     1     -12.256  12.108  63.935  1.00  0.00    -0.587 C  
BRANCH   3   4
HETATM    4  C   UNL     1     -10.923  11.563  63.429  1.00  0.00    -0.397 C  
BRANCH   4   5
HETATM    5  C   UNL     1      -9.900  11.581  64.557  1.00  0.00    -0.278 C  
BRANCH   5   6
HETATM    6  C   UNL     1      -9.683  10.238  65.186  1.00  0.00    -0.364 C  
HETATM    7  C   UNL     1     -10.239   9.891  66.358  1.00  0.00    -0.292 C  
BRANCH   7   8
HETATM    8  C   UNL     1     -11.107  10.795  67.182  1.00  0.00    -0.297 C  
BRANCH   8   9
HETATM    9  C   UNL     1     -10.296  11.754  68.002  1.00  0.00    -0.212 C  
HETATM   10  C   UNL     1     -10.696  12.270  69.175  1.00  0.00    -0.089 C  
BRANCH  10  11
HETATM   11  C   UNL     1     -12.031  11.955  69.779  1.00  0.00    -0.377 C  
BRANCH  11  12
HETATM   12  C   UNL     1     -12.394  12.869  70.938  1.00  0.00    -0.365 C  
BRANCH  12  13
HETATM   13  C   UNL     1     -12.621  14.287  70.420  1.00  0.00    -0.405 C  
BRANCH  13  14
HETATM   14  C   UNL     1     -11.618  15.249  71.039  1.00  0.00    -0.399 C  
BRANCH  14  15
HETATM   15  C   UNL     1     -10.557  15.673  70.028  1.00  0.00    -0.342 C  
BRANCH  15  16
HETATM   16  C   UNL     1     -11.215  16.323  68.814  1.00  0.00    -0.343 C  
BRANCH  16  17
HETATM   17  C   UNL     1     -10.589  15.844  67.509  1.00  0.00    -0.315 C  
HETATM   18  C   UNL     1     -10.368  16.989  66.551  1.00  0.00    -0.298 C  
HETATM   19  O   UNL     1     -10.644  18.159  66.762  1.00  0.00    -0.357 OA 
HETATM   20  O   UNL     1      -9.814  16.580  65.383  1.00  0.00    -0.530 OA 
ENDBRANCH  16  17
ENDBRANCH  15  16
ENDBRANCH  14  15
ENDBRANCH  13  14
ENDBRANCH  12  13
ENDBRANCH  11  12
ENDBRANCH  10  11
ENDBRANCH   8   9
ENDBRANCH   7   8
ENDBRANCH   5   6
ENDBRANCH   4   5
ENDBRANCH   3   4
ENDBRANCH   2   3
TORSDOF 13
ENDMDL
MODEL       93
REMARK 921   NORMALIZED FREE ENERGY PREDICTED BY IDOCK:   -4.25 KCAL/MOL
REMARK 922        TOTAL FREE ENERGY PREDICTED BY IDOCK:   -9.23 KCAL/MOL
REMARK 923 INTER-LIGAND FREE ENERGY PREDICTED BY IDOCK:   -6.45 KCAL/MOL
REMARK 924 INTRA-LIGAND FREE ENERGY PREDICTED BY IDOCK:   -2.77 KCAL/MOL
REMARK 927      BINDING AFFINITY PREDICTED BY RF-SCORE:    0.00 PKD
ROOT
HETATM    1  C   UNL     1      -9.842  11.626  63.109  1.00  0.00    -0.407 C  
HETATM    2  C   UNL     1     -11.295  11.573  63.548  1.00  0.00    -0.375 C  
ENDROOT
BRANCH   2   3
HETATM    3  C   UNL     1     -11.849  12.972  63.784  1.00  0.00    -0.566 C  
BRANCH   3   4
HETATM    4  C   UNL     1     -12.588  13.055  65.118  1.00  0.00    -0.530 C  
BRANCH   4   5
HETATM    5  C   UNL     1     -12.099  14.266  65.901  1.00  0.00    -0.416 C  
BRANCH   5   6
HETATM    6  C   UNL     1     -10.644  14.561  65.693  1.00  0.00    -0.343 C  
HETATM    7  C   UNL     1      -9.981  15.474  66.421  1.00  0.00    -0.300 C  
BRANCH   7   8
HETATM    8  C   UNL     1     -10.606  16.317  67.493  1.00  0.00    -0.310 C  
BRANCH   8   9
HETATM    9  C   UNL     1      -9.975  16.075  68.832  1.00  0.00    -0.232 C  
HETATM   10  C   UNL     1     -10.593  15.471  69.859  1.00  0.00    -0.322 C  
BRANCH  10  11
HETATM   11  C   UNL     1     -12.012  14.996  69.777  1.00  0.00    -0.366 C  
BRANCH  11  12
HETATM   12  C   UNL     1     -12.164  13.513  70.075  1.00  0.00    -0.381 C  
BRANCH  12  13
HETATM   13  C   UNL     1     -11.318  12.704  69.094  1.00  0.00    -0.339 C  
BRANCH  13  14
HETATM   14  C   UNL     1     -11.897  11.308  68.914  1.00  0.00    -0.413 C  
BRANCH  14  15
HETATM   15  C   UNL     1     -11.263  10.592  67.725  1.00  0.00    -0.383 C  
BRANCH  15  16
HETATM   16  C   UNL     1      -9.962  11.283  67.326  1.00  0.00    -0.208 C  
BRANCH  16  17
HETATM   17  C   UNL     1      -9.053  10.356  66.526  1.00  0.00    -0.175 C  
HETATM   18  C   UNL     1      -7.663  10.929  66.392  1.00  0.00    -0.154 C  
HETATM   19  O   UNL     1      -7.283  11.993  66.852  1.00  0.00    -0.125 OA 
HETATM   20  O   UNL     1      -6.843  10.119  65.680  1.00  0.00    -0.109 OA 
ENDBRANCH  16  17
ENDBRANCH  15  16
ENDBRANCH  14  15
ENDBRANCH  13  14
ENDBRANCH  12  13
ENDBRANCH  11  12
ENDBRANCH  10  11
ENDBRANCH   8   9
ENDBRANCH   7   8
ENDBRANCH   5   6
ENDBRANCH   4   5
ENDBRANCH   3   4
ENDBRANCH   2   3
TORSDOF 13
ENDMDL
MODEL       94
REMARK 921   NORMALIZED FREE ENERGY PREDICTED BY IDOCK:   -4.24 KCAL/MOL
REMARK 922        TOTAL FREE ENERGY PREDICTED BY IDOCK:   -9.21 KCAL/MOL
REMARK 923 INTER-LIGAND FREE ENERGY PREDICTED BY IDOCK:   -7.28 KCAL/MOL
REMARK 924 INTRA-LIGAND FREE ENERGY PREDICTED BY IDOCK:   -1.93 KCAL/MOL
REMARK 927      BINDING AFFINITY PREDICTED BY RF-SCORE:    0.00 PKD
ROOT
HETATM    1  C   UNL     1     -12.594   8.265  71.524  1.00  0.00    -0.333 C  
HETATM    2  C   UNL     1     -13.448   9.498  71.764  1.00  0.00    -0.480 C  
ENDROOT
BRANCH   2   3
HETATM    3  C   UNL     1     -12.731  10.761  71.305  1.00  0.00    -0.546 C  
BRANCH   3   4
HETATM    4  C   UNL     1     -11.639  10.436  70.288  1.00  0.00    -0.410 C  
BRANCH   4   5
HETATM    5  C   UNL     1     -11.749  11.381  69.099  1.00  0.00    -0.410 C  
BRANCH   5   6
HETATM    6  C   UNL     1     -11.908  12.819  69.493  1.00  0.00    -0.379 C  
HETATM    7  C   UNL     1     -11.668  13.831  68.645  1.00  0.00    -0.391 C  
BRANCH   7   8
HETATM    8  C   UNL     1     -11.192  13.657  67.233  1.00  0.00    -0.329 C  
BRANCH   8   9
HETATM    9  C   UNL     1     -11.952  14.527  66.277  1.00  0.00    -0.335 C  
HETATM   10  C   UNL     1     -12.612  14.069  65.202  1.00  0.00    -0.453 C  
BRANCH  10  11
HETATM   11  C   UNL     1     -12.631  12.618  64.827  1.00  0.00    -0.530 C  
BRANCH  11  12
HETATM   12  C   UNL     1     -12.019  12.344  63.463  1.00  0.00    -0.627 C  
BRANCH  12  13
HETATM   13  C   UNL     1     -10.685  11.622  63.636  1.00  0.00    -0.500 C  
BRANCH  13  14
HETATM   14  C   UNL     1     -10.656  10.861  64.953  1.00  0.00    -0.304 C  
BRANCH  14  15
HETATM   15  C   UNL     1      -9.255  10.847  65.557  1.00  0.00    -0.232 C  
BRANCH  15  16
HETATM   16  C   UNL     1      -8.883   9.434  65.996  1.00  0.00    -0.185 C  
BRANCH  16  17
HETATM   17  C   UNL     1     -10.044   8.737  66.697  1.00  0.00    -0.358 C  
HETATM   18  C   UNL     1      -9.616   8.145  68.017  1.00  0.00    -0.156 C  
HETATM   19  O   UNL     1      -8.494   8.199  68.492  1.00  0.00    -0.125 OA 
HETATM   20  O   UNL     1     -10.636   7.518  68.652  1.00  0.00    -0.197 OA 
ENDBRANCH  16  17
ENDBRANCH  15  16
ENDBRANCH  14  15
ENDBRANCH  13  14
ENDBRANCH  12  13
ENDBRANCH  11  12
ENDBRANCH  10  11
ENDBRANCH   8   9
ENDBRANCH   7   8
ENDBRANCH   5   6
ENDBRANCH   4   5
ENDBRANCH   3   4
ENDBRANCH   2   3
TORSDOF 13
ENDMDL
MODEL       95
REMARK 921   NORMALIZED FREE ENERGY PREDICTED BY IDOCK:   -4.23 KCAL/MOL
REMARK 922        TOTAL FREE ENERGY PREDICTED BY IDOCK:   -9.19 KCAL/MOL
REMARK 923 INTER-LIGAND FREE ENERGY PREDICTED BY IDOCK:   -7.91 KCAL/MOL
REMARK 924 INTRA-LIGAND FREE ENERGY PREDICTED BY IDOCK:   -1.29 KCAL/MOL
REMARK 927      BINDING AFFINITY PREDICTED BY RF-SCORE:    0.00 PKD
ROOT
HETATM    1  C   UNL     1      -9.064   7.559  72.120  1.00  0.00    -0.165 C  
HETATM    2  C   UNL     1      -9.713   6.745  71.014  1.00  0.00    -0.182 C  
ENDROOT
BRANCH   2   3
HETATM    3  C   UNL     1     -10.751   5.783  71.577  1.00  0.00    -0.319 C  
BRANCH   3   4
HETATM    4  C   UNL     1     -11.924   6.539  72.197  1.00  0.00    -0.334 C  
BRANCH   4   5
HETATM    5  C   UNL     1     -12.688   7.283  71.110  1.00  0.00    -0.349 C  
BRANCH   5   6
HETATM    6  C   UNL     1     -13.585   8.359  71.643  1.00  0.00    -0.380 C  
HETATM    7  C   UNL     1     -13.178   9.630  71.792  1.00  0.00    -0.520 C  
BRANCH   7   8
HETATM    8  C   UNL     1     -11.795  10.118  71.477  1.00  0.00    -0.356 C  
BRANCH   8   9
HETATM    9  C   UNL     1     -11.704  10.678  70.089  1.00  0.00    -0.417 C  
HETATM   10  C   UNL     1     -11.966  11.956  69.773  1.00  0.00    -0.377 C  
BRANCH  10  11
HETATM   11  C   UNL     1     -12.412  12.961  70.791  1.00  0.00    -0.370 C  
BRANCH  11  12
HETATM   12  C   UNL     1     -12.411  14.387  70.264  1.00  0.00    -0.413 C  
BRANCH  12  13
HETATM   13  C   UNL     1     -11.249  14.573  69.290  1.00  0.00    -0.309 C  
BRANCH  13  14
HETATM   14  C   UNL     1     -11.660  15.472  68.134  1.00  0.00    -0.313 C  
BRANCH  14  15
HETATM   15  C   UNL     1     -10.537  16.432  67.750  1.00  0.00    -0.321 C  
BRANCH  15  16
HETATM   16  C   UNL     1     -10.000  16.089  66.364  1.00  0.00    -0.312 C  
BRANCH  16  17
HETATM   17  C   UNL     1     -10.938  15.151  65.611  1.00  0.00    -0.359 C  
HETATM   18  C   UNL     1     -11.649  15.868  64.489  1.00  0.00    -0.232 C  
HETATM   19  O   UNL     1     -11.514  17.044  64.196  1.00  0.00    -1.135 OA 
HETATM   20  O   UNL     1     -12.490  15.050  63.811  1.00  0.00    -0.745 OA 
ENDBRANCH  16  17
ENDBRANCH  15  16
ENDBRANCH  14  15
ENDBRANCH  13  14
ENDBRANCH  12  13
ENDBRANCH  11  12
ENDBRANCH  10  11
ENDBRANCH   8   9
ENDBRANCH   7   8
ENDBRANCH   5   6
ENDBRANCH   4   5
ENDBRANCH   3   4
ENDBRANCH   2   3
TORSDOF 13
ENDMDL
MODEL       96
REMARK 921   NORMALIZED FREE ENERGY PREDICTED BY IDOCK:   -4.22 KCAL/MOL
REMARK 922        TOTAL FREE ENERGY PREDICTED BY IDOCK:   -9.17 KCAL/MOL
REMARK 923 INTER-LIGAND FREE ENERGY PREDICTED BY IDOCK:   -7.25 KCAL/MOL
REMARK 924 INTRA-LIGAND FREE ENERGY PREDICTED BY IDOCK:   -1.92 KCAL/MOL
REMARK 927      BINDING AFFINITY PREDICTED BY RF-SCORE:    0.00 PKD
ROOT
HETATM    1  C   UNL     1     -12.779  11.784  63.673  1.00  0.00    -0.407 C  
HETATM    2  C   UNL     1     -11.632  12.719  63.330  1.00  0.00    -0.506 C  
ENDROOT
BRANCH   2   3
HETATM    3  C   UNL     1     -10.286  12.067  63.619  1.00  0.00    -0.482 C  
BRANCH   3   4
HETATM    4  C   UNL     1     -10.456  10.794  64.446  1.00  0.00    -0.344 C  
BRANCH   4   5
HETATM    5  C   UNL     1      -9.842  10.994  65.826  1.00  0.00    -0.282 C  
BRANCH   5   6
HETATM    6  C   UNL     1     -10.578  10.272  66.914  1.00  0.00    -0.282 C  
HETATM    7  C   UNL     1     -11.107  10.907  67.972  1.00  0.00    -0.351 C  
BRANCH   7   8
HETATM    8  C   UNL     1     -11.008  12.385  68.207  1.00  0.00    -0.269 C  
BRANCH   8   9
HETATM    9  C   UNL     1     -12.113  13.134  67.524  1.00  0.00    -0.300 C  
HETATM   10  C   UNL     1     -11.918  14.151  66.670  1.00  0.00    -0.470 C  
BRANCH  10  11
HETATM   11  C   UNL     1     -10.552  14.668  66.332  1.00  0.00    -0.301 C  
BRANCH  11  12
HETATM   12  C   UNL     1     -10.577  16.039  65.674  1.00  0.00    -0.392 C  
BRANCH  12  13
HETATM   13  C   UNL     1     -10.340  17.118  66.728  1.00  0.00    -0.302 C  
BRANCH  13  14
HETATM   14  C   UNL     1     -10.236  18.488  66.076  1.00  0.00    -0.371 C  
BRANCH  14  15
HETATM   15  C   UNL     1     -10.930  19.558  66.914  1.00  0.00    -0.422 C  
BRANCH  15  16
HETATM   16  C   UNL     1      -9.983  20.084  67.988  1.00  0.00    -0.550 C  
BRANCH  16  17
HETATM   17  C   UNL     1      -8.601  20.388  67.421  1.00  0.00    -0.403 C  
HETATM   18  C   UNL     1      -7.525  19.619  68.149  1.00  0.00    -0.304 C  
HETATM   19  O   UNL     1      -7.705  18.845  69.075  1.00  0.00    -0.306 OA 
HETATM   20  O   UNL     1      -6.289  19.881  67.660  1.00  0.00    -0.206 OA 
ENDBRANCH  16  17
ENDBRANCH  15  16
ENDBRANCH  14  15
ENDBRANCH  13  14
ENDBRANCH  12  13
ENDBRANCH  11  12
ENDBRANCH  10  11
ENDBRANCH   8   9
ENDBRANCH   7   8
ENDBRANCH   5   6
ENDBRANCH   4   5
ENDBRANCH   3   4
ENDBRANCH   2   3
TORSDOF 13
ENDMDL
MODEL       97
REMARK 921   NORMALIZED FREE ENERGY PREDICTED BY IDOCK:   -4.21 KCAL/MOL
REMARK 922        TOTAL FREE ENERGY PREDICTED BY IDOCK:   -9.16 KCAL/MOL
REMARK 923 INTER-LIGAND FREE ENERGY PREDICTED BY IDOCK:   -6.88 KCAL/MOL
REMARK 924 INTRA-LIGAND FREE ENERGY PREDICTED BY IDOCK:   -2.28 KCAL/MOL
REMARK 927      BINDING AFFINITY PREDICTED BY RF-SCORE:    0.00 PKD
ROOT
HETATM    1  C   UNL     1     -10.615  11.326  63.544  1.00  0.00    -0.436 C  
HETATM    2  C   UNL     1     -12.068  11.767  63.524  1.00  0.00    -0.485 C  
ENDROOT
BRANCH   2   3
HETATM    3  C   UNL     1     -12.187  13.274  63.710  1.00  0.00    -0.508 C  
BRANCH   3   4
HETATM    4  C   UNL     1     -12.881  13.615  65.028  1.00  0.00    -0.325 C  
BRANCH   4   5
HETATM    5  C   UNL     1     -11.842  14.023  66.064  1.00  0.00    -0.401 C  
BRANCH   5   6
HETATM    6  C   UNL     1     -12.141  13.510  67.440  1.00  0.00    -0.360 C  
HETATM    7  C   UNL     1     -11.716  12.312  67.872  1.00  0.00    -0.410 C  
BRANCH   7   8
HETATM    8  C   UNL     1     -10.928  11.344  67.041  1.00  0.00    -0.347 C  
BRANCH   8   9
HETATM    9  C   UNL     1      -9.768  10.771  67.800  1.00  0.00    -0.179 C  
HETATM   10  C   UNL     1      -8.577  11.376  67.926  1.00  0.00    -0.140 C  
BRANCH  10  11
HETATM   11  C   UNL     1      -8.272  12.696  67.284  1.00  0.00    -0.184 C  
BRANCH  11  12
HETATM   12  C   UNL     1      -7.927  13.784  68.288  1.00  0.00    -0.146 C  
BRANCH  12  13
HETATM   13  C   UNL     1      -8.831  14.994  68.063  1.00  0.00    -0.165 C  
BRANCH  13  14
HETATM   14  C   UNL     1      -9.152  15.675  69.385  1.00  0.00    -0.278 C  
BRANCH  14  15
HETATM   15  C   UNL     1     -10.538  16.312  69.361  1.00  0.00    -0.301 C  
BRANCH  15  16
HETATM   16  C   UNL     1     -10.801  16.951  68.000  1.00  0.00    -0.338 C  
BRANCH  16  17
HETATM   17  C   UNL     1     -10.475  18.440  68.003  1.00  0.00    -0.390 C  
HETATM   18  C   UNL     1     -10.309  18.971  66.600  1.00  0.00    -0.428 C  
HETATM   19  O   UNL     1     -10.416  18.319  65.574  1.00  0.00    -0.616 OA 
HETATM   20  O   UNL     1     -10.016  20.293  66.584  1.00  0.00    -0.442 OA 
ENDBRANCH  16  17
ENDBRANCH  15  16
ENDBRANCH  14  15
ENDBRANCH  13  14
ENDBRANCH  12  13
ENDBRANCH  11  12
ENDBRANCH  10  11
ENDBRANCH   8   9
ENDBRANCH   7   8
ENDBRANCH   5   6
ENDBRANCH   4   5
ENDBRANCH   3   4
ENDBRANCH   2   3
TORSDOF 13
ENDMDL
MODEL       98
REMARK 921   NORMALIZED FREE ENERGY PREDICTED BY IDOCK:   -4.21 KCAL/MOL
REMARK 922        TOTAL FREE ENERGY PREDICTED BY IDOCK:   -9.16 KCAL/MOL
REMARK 923 INTER-LIGAND FREE ENERGY PREDICTED BY IDOCK:   -7.50 KCAL/MOL
REMARK 924 INTRA-LIGAND FREE ENERGY PREDICTED BY IDOCK:   -1.65 KCAL/MOL
REMARK 927      BINDING AFFINITY PREDICTED BY RF-SCORE:    0.00 PKD
ROOT
HETATM    1  C   UNL     1     -13.824   8.354  72.075  1.00  0.00    -0.439 C  
HETATM    2  C   UNL     1     -12.375   8.619  71.706  1.00  0.00    -0.402 C  
ENDROOT
BRANCH   2   3
HETATM    3  C   UNL     1     -12.179  10.058  71.247  1.00  0.00    -0.498 C  
BRANCH   3   4
HETATM    4  C   UNL     1     -13.223  10.983  71.870  1.00  0.00    -0.503 C  
BRANCH   4   5
HETATM    5  C   UNL     1     -12.956  12.420  71.441  1.00  0.00    -0.348 C  
BRANCH   5   6
HETATM    6  C   UNL     1     -13.694  13.433  72.264  1.00  0.00    -0.705 C  
HETATM    7  C   UNL     1     -13.148  14.605  72.625  1.00  0.00    -0.549 C  
BRANCH   7   8
HETATM    8  C   UNL     1     -11.750  15.029  72.281  1.00  0.00    -0.423 C  
BRANCH   8   9
HETATM    9  C   UNL     1     -11.734  16.095  71.227  1.00  0.00    -0.480 C  
HETATM   10  C   UNL     1     -11.445  15.875  69.935  1.00  0.00    -0.344 C  
BRANCH  10  11
HETATM   11  C   UNL     1     -11.075  14.519  69.413  1.00  0.00    -0.297 C  
BRANCH  11  12
HETATM   12  C   UNL     1     -11.677  14.218  68.050  1.00  0.00    -0.386 C  
BRANCH  12  13
HETATM   13  C   UNL     1     -11.003  15.086  66.990  1.00  0.00    -0.318 C  
BRANCH  13  14
HETATM   14  C   UNL     1      -9.564  14.642  66.771  1.00  0.00    -0.266 C  
BRANCH  14  15
HETATM   15  C   UNL     1      -8.659  15.828  66.450  1.00  0.00    -0.346 C  
BRANCH  15  16
HETATM   16  C   UNL     1      -8.899  16.960  67.444  1.00  0.00    -0.212 C  
BRANCH  16  17
HETATM   17  C   UNL     1      -7.979  16.853  68.655  1.00  0.00    -0.256 C  
HETATM   18  C   UNL     1      -7.034  18.027  68.734  1.00  0.00    -0.263 C  
HETATM   19  O   UNL     1      -6.987  18.959  67.948  1.00  0.00    -0.224 OA 
HETATM   20  O   UNL     1      -6.206  17.946  69.804  1.00  0.00    -0.243 OA 
ENDBRANCH  16  17
ENDBRANCH  15  16
ENDBRANCH  14  15
ENDBRANCH  13  14
ENDBRANCH  12  13
ENDBRANCH  11  12
ENDBRANCH  10  11
ENDBRANCH   8   9
ENDBRANCH   7   8
ENDBRANCH   5   6
ENDBRANCH   4   5
ENDBRANCH   3   4
ENDBRANCH   2   3
TORSDOF 13
ENDMDL
MODEL       99
REMARK 921   NORMALIZED FREE ENERGY PREDICTED BY IDOCK:   -4.21 KCAL/MOL
REMARK 922        TOTAL FREE ENERGY PREDICTED BY IDOCK:   -9.15 KCAL/MOL
REMARK 923 INTER-LIGAND FREE ENERGY PREDICTED BY IDOCK:   -7.70 KCAL/MOL
REMARK 924 INTRA-LIGAND FREE ENERGY PREDICTED BY IDOCK:   -1.46 KCAL/MOL
REMARK 927      BINDING AFFINITY PREDICTED BY RF-SCORE:    0.00 PKD
ROOT
HETATM    1  C   UNL     1     -11.141  11.705  63.711  1.00  0.00    -0.499 C  
HETATM    2  C   UNL     1     -12.055  12.867  63.366  1.00  0.00    -0.610 C  
ENDROOT
BRANCH   2   3
HETATM    3  C   UNL     1     -12.150  13.855  64.522  1.00  0.00    -0.473 C  
BRANCH   3   4
HETATM    4  C   UNL     1     -10.817  14.565  64.751  1.00  0.00    -0.410 C  
BRANCH   4   5
HETATM    5  C   UNL     1     -10.495  14.583  66.239  1.00  0.00    -0.303 C  
BRANCH   5   6
HETATM    6  C   UNL     1      -9.705  13.393  66.692  1.00  0.00    -0.275 C  
HETATM    7  C   UNL     1     -10.243  12.407  67.428  1.00  0.00    -0.215 C  
BRANCH   7   8
HETATM    8  C   UNL     1     -11.665  12.387  67.905  1.00  0.00    -0.421 C  
BRANCH   8   9
HETATM    9  C   UNL     1     -11.822  13.085  69.223  1.00  0.00    -0.370 C  
HETATM   10  C   UNL     1     -12.069  12.458  70.384  1.00  0.00    -0.381 C  
BRANCH  10  11
HETATM   11  C   UNL     1     -12.244  10.972  70.474  1.00  0.00    -0.472 C  
BRANCH  11  12
HETATM   12  C   UNL     1     -13.090  10.541  71.661  1.00  0.00    -0.551 C  
BRANCH  12  13
HETATM   13  C   UNL     1     -13.332   9.034  71.597  1.00  0.00    -0.433 C  
BRANCH  13  14
HETATM   14  C   UNL     1     -12.107   8.276  72.087  1.00  0.00    -0.425 C  
BRANCH  14  15
HETATM   15  C   UNL     1     -11.829   7.051  71.221  1.00  0.00    -0.371 C  
BRANCH  15  16
HETATM   16  C   UNL     1     -10.877   7.413  70.085  1.00  0.00    -0.270 C  
BRANCH  16  17
HETATM   17  C   UNL     1     -10.806   6.310  69.035  1.00  0.00    -0.400 C  
HETATM   18  C   UNL     1     -10.678   6.881  67.643  1.00  0.00    -0.274 C  
HETATM   19  O   UNL     1     -10.635   8.067  67.361  1.00  0.00    -0.282 OA 
HETATM   20  O   UNL     1     -10.617   5.913  66.697  1.00  0.00    -0.263 OA 
ENDBRANCH  16  17
ENDBRANCH  15  16
ENDBRANCH  14  15
ENDBRANCH  13  14
ENDBRANCH  12  13
ENDBRANCH  11  12
ENDBRANCH  10  11
ENDBRANCH   8   9
ENDBRANCH   7   8
ENDBRANCH   5   6
ENDBRANCH   4   5
ENDBRANCH   3   4
ENDBRANCH   2   3
TORSDOF 13
ENDMDL
MODEL      100
REMARK 921   NORMALIZED FREE ENERGY PREDICTED BY IDOCK:   -4.21 KCAL/MOL
REMARK 922        TOTAL FREE ENERGY PREDICTED BY IDOCK:   -9.15 KCAL/MOL
REMARK 923 INTER-LIGAND FREE ENERGY PREDICTED BY IDOCK:   -6.74 KCAL/MOL
REMARK 924 INTRA-LIGAND FREE ENERGY PREDICTED BY IDOCK:   -2.41 KCAL/MOL
REMARK 927      BINDING AFFINITY PREDICTED BY RF-SCORE:    0.00 PKD
ROOT
HETATM    1  C   UNL     1      -8.760  10.605  63.226  1.00  0.00    -0.177 C  
HETATM    2  C   UNL     1      -9.919  11.580  63.118  1.00  0.00    -0.404 C  
ENDROOT
BRANCH   2   3
HETATM    3  C   UNL     1     -10.969  11.306  64.187  1.00  0.00    -0.376 C  
BRANCH   3   4
HETATM    4  C   UNL     1     -12.299  11.972  63.839  1.00  0.00    -0.553 C  
BRANCH   4   5
HETATM    5  C   UNL     1     -12.139  13.486  63.876  1.00  0.00    -0.493 C  
BRANCH   5   6
HETATM    6  C   UNL     1     -12.396  14.079  65.229  1.00  0.00    -0.480 C  
HETATM    7  C   UNL     1     -11.408  14.505  66.030  1.00  0.00    -0.341 C  
BRANCH   7   8
HETATM    8  C   UNL     1      -9.948  14.418  65.693  1.00  0.00    -0.365 C  
BRANCH   8   9
HETATM    9  C   UNL     1      -9.194  13.585  66.686  1.00  0.00    -0.221 C  
HETATM   10  C   UNL     1      -8.148  14.027  67.401  1.00  0.00    -0.199 C  
BRANCH  10  11
HETATM   11  C   UNL     1      -7.600  15.414  67.252  1.00  0.00    -0.246 C  
BRANCH  11  12
HETATM   12  C   UNL     1      -8.111  16.376  68.312  1.00  0.00    -0.171 C  
BRANCH  12  13
HETATM   13  C   UNL     1      -9.250  17.215  67.736  1.00  0.00    -0.241 C  
BRANCH  13  14
HETATM   14  C   UNL     1     -10.472  17.149  68.641  1.00  0.00    -0.366 C  
BRANCH  14  15
HETATM   15  C   UNL     1     -10.504  15.849  69.438  1.00  0.00    -0.265 C  
BRANCH  15  16
HETATM   16  C   UNL     1     -11.944  15.462  69.760  1.00  0.00    -0.381 C  
BRANCH  16  17
HETATM   17  C   UNL     1     -12.128  13.949  69.799  1.00  0.00    -0.404 C  
HETATM   18  C   UNL     1     -12.601  13.486  71.155  1.00  0.00    -0.355 C  
HETATM   19  O   UNL     1     -12.818  14.204  72.117  1.00  0.00    -0.337 OA 
HETATM   20  O   UNL     1     -12.766  12.143  71.208  1.00  0.00    -0.366 OA 
ENDBRANCH  16  17
ENDBRANCH  15  16
ENDBRANCH  14  15
ENDBRANCH  13  14
ENDBRANCH  12  13
ENDBRANCH  11  12
ENDBRANCH  10  11
ENDBRANCH   8   9
ENDBRANCH   7   8
ENDBRANCH   5   6
ENDBRANCH   4   5
ENDBRANCH   3   4
ENDBRANCH   2   3
TORSDOF 13
ENDMDL
MODEL      101
REMARK 921   NORMALIZED FREE ENERGY PREDICTED BY IDOCK:   -4.21 KCAL/MOL
REMARK 922        TOTAL FREE ENERGY PREDICTED BY IDOCK:   -9.15 KCAL/MOL
REMARK 923 INTER-LIGAND FREE ENERGY PREDICTED BY IDOCK:   -7.98 KCAL/MOL
REMARK 924 INTRA-LIGAND FREE ENERGY PREDICTED BY IDOCK:   -1.17 KCAL/MOL
REMARK 927      BINDING AFFINITY PREDICTED BY RF-SCORE:    0.00 PKD
ROOT
HETATM    1  C   UNL     1     -13.016  14.981  73.067  1.00  0.00    -0.590 C  
HETATM    2  C   UNL     1     -12.109  15.885  72.250  1.00  0.00    -0.597 C  
ENDROOT
BRANCH   2   3
HETATM    3  C   UNL     1     -12.331  15.681  70.757  1.00  0.00    -0.466 C  
BRANCH   3   4
HETATM    4  C   UNL     1     -11.004  15.537  70.016  1.00  0.00    -0.331 C  
BRANCH   4   5
HETATM    5  C   UNL     1     -11.184  15.937  68.558  1.00  0.00    -0.362 C  
BRANCH   5   6
HETATM    6  C   UNL     1     -10.473  17.207  68.197  1.00  0.00    -0.366 C  
HETATM    7  C   UNL     1      -9.796  17.353  67.048  1.00  0.00    -0.286 C  
BRANCH   7   8
HETATM    8  C   UNL     1      -9.644  16.278  66.012  1.00  0.00    -0.371 C  
BRANCH   8   9
HETATM    9  C   UNL     1     -10.880  16.129  65.177  1.00  0.00    -0.376 C  
HETATM   10  C   UNL     1     -11.306  14.965  64.661  1.00  0.00    -0.362 C  
BRANCH  10  11
HETATM   11  C   UNL     1     -10.557  13.680  64.847  1.00  0.00    -0.421 C  
BRANCH  11  12
HETATM   12  C   UNL     1     -10.507  13.221  66.295  1.00  0.00    -0.289 C  
BRANCH  12  13
HETATM   13  C   UNL     1     -11.831  12.560  66.669  1.00  0.00    -0.422 C  
BRANCH  13  14
HETATM   14  C   UNL     1     -11.901  12.315  68.169  1.00  0.00    -0.372 C  
BRANCH  14  15
HETATM   15  C   UNL     1     -11.289  10.968  68.541  1.00  0.00    -0.355 C  
BRANCH  15  16
HETATM   16  C   UNL     1     -11.246  10.809  70.058  1.00  0.00    -0.366 C  
BRANCH  16  17
HETATM   17  C   UNL     1     -12.639  10.607  70.644  1.00  0.00    -0.454 C  
HETATM   18  C   UNL     1     -12.648   9.505  71.676  1.00  0.00    -0.388 C  
HETATM   19  O   UNL     1     -11.683   8.843  72.020  1.00  0.00    -0.350 OA 
HETATM   20  O   UNL     1     -13.880   9.310  72.205  1.00  0.00    -0.453 OA 
ENDBRANCH  16  17
ENDBRANCH  15  16
ENDBRANCH  14  15
ENDBRANCH  13  14
ENDBRANCH  12  13
ENDBRANCH  11  12
ENDBRANCH  10  11
ENDBRANCH   8   9
ENDBRANCH   7   8
ENDBRANCH   5   6
ENDBRANCH   4   5
ENDBRANCH   3   4
ENDBRANCH   2   3
TORSDOF 13
ENDMDL
MODEL      102
REMARK 921   NORMALIZED FREE ENERGY PREDICTED BY IDOCK:   -4.20 KCAL/MOL
REMARK 922        TOTAL FREE ENERGY PREDICTED BY IDOCK:   -9.15 KCAL/MOL
REMARK 923 INTER-LIGAND FREE ENERGY PREDICTED BY IDOCK:   -7.48 KCAL/MOL
REMARK 924 INTRA-LIGAND FREE ENERGY PREDICTED BY IDOCK:   -1.66 KCAL/MOL
REMARK 927      BINDING AFFINITY PREDICTED BY RF-SCORE:    0.00 PKD
ROOT
HETATM    1  C   UNL     1     -11.308   5.372  72.709  1.00  0.00    -0.358 C  
HETATM    2  C   UNL     1     -12.140   6.354  71.903  1.00  0.00    -0.362 C  
ENDROOT
BRANCH   2   3
HETATM    3  C   UNL     1     -11.785   6.289  70.423  1.00  0.00    -0.290 C  
BRANCH   3   4
HETATM    4  C   UNL     1     -10.404   5.673  70.213  1.00  0.00    -0.336 C  
BRANCH   4   5
HETATM    5  C   UNL     1      -9.491   6.680  69.526  1.00  0.00    -0.148 C  
BRANCH   5   6
HETATM    6  C   UNL     1      -8.643   7.464  70.481  1.00  0.00    -0.139 C  
HETATM    7  C   UNL     1      -8.836   8.772  70.712  1.00  0.00    -0.228 C  
BRANCH   7   8
HETATM    8  C   UNL     1      -9.886   9.604  70.037  1.00  0.00    -0.286 C  
BRANCH   8   9
HETATM    9  C   UNL     1     -11.063   9.852  70.932  1.00  0.00    -0.418 C  
HETATM   10  C   UNL     1     -12.081  10.672  70.630  1.00  0.00    -0.461 C  
BRANCH  10  11
HETATM   11  C   UNL     1     -12.129  11.459  69.355  1.00  0.00    -0.358 C  
BRANCH  11  12
HETATM   12  C   UNL     1     -11.959  12.955  69.569  1.00  0.00    -0.346 C  
BRANCH  12  13
HETATM   13  C   UNL     1     -11.542  13.615  68.257  1.00  0.00    -0.374 C  
BRANCH  13  14
HETATM   14  C   UNL     1     -11.080  12.568  67.255  1.00  0.00    -0.319 C  
BRANCH  14  15
HETATM   15  C   UNL     1     -12.000  12.519  66.038  1.00  0.00    -0.456 C  
BRANCH  15  16
HETATM   16  C   UNL     1     -11.291  13.097  64.817  1.00  0.00    -0.352 C  
BRANCH  16  17
HETATM   17  C   UNL     1     -11.948  14.387  64.340  1.00  0.00    -0.471 C  
HETATM   18  C   UNL     1     -11.066  15.584  64.600  1.00  0.00    -0.359 C  
HETATM   19  O   UNL     1      -9.964  15.557  65.122  1.00  0.00    -0.316 OA 
HETATM   20  O   UNL     1     -11.637  16.740  64.185  1.00  0.00    -1.106 OA 
ENDBRANCH  16  17
ENDBRANCH  15  16
ENDBRANCH  14  15
ENDBRANCH  13  14
ENDBRANCH  12  13
ENDBRANCH  11  12
ENDBRANCH  10  11
ENDBRANCH   8   9
ENDBRANCH   7   8
ENDBRANCH   5   6
ENDBRANCH   4   5
ENDBRANCH   3   4
ENDBRANCH   2   3
TORSDOF 13
ENDMDL
MODEL      103
REMARK 921   NORMALIZED FREE ENERGY PREDICTED BY IDOCK:   -4.20 KCAL/MOL
REMARK 922        TOTAL FREE ENERGY PREDICTED BY IDOCK:   -9.14 KCAL/MOL
REMARK 923 INTER-LIGAND FREE ENERGY PREDICTED BY IDOCK:   -7.41 KCAL/MOL
REMARK 924 INTRA-LIGAND FREE ENERGY PREDICTED BY IDOCK:   -1.74 KCAL/MOL
REMARK 927      BINDING AFFINITY PREDICTED BY RF-SCORE:    0.00 PKD
ROOT
HETATM    1  C   UNL     1      -8.557  13.470  68.337  1.00  0.00    -0.142 C  
HETATM    2  C   UNL     1      -8.845  13.622  66.854  1.00  0.00    -0.201 C  
ENDROOT
BRANCH   2   3
HETATM    3  C   UNL     1      -9.391  12.328  66.265  1.00  0.00    -0.206 C  
BRANCH   3   4
HETATM    4  C   UNL     1      -8.763  11.108  66.936  1.00  0.00    -0.152 C  
BRANCH   4   5
HETATM    5  C   UNL     1      -9.856  10.227  67.526  1.00  0.00    -0.204 C  
BRANCH   5   6
HETATM    6  C   UNL     1     -11.210  10.871  67.514  1.00  0.00    -0.364 C  
HETATM    7  C   UNL     1     -11.894  11.133  68.639  1.00  0.00    -0.357 C  
BRANCH   7   8
HETATM    8  C   UNL     1     -11.413  10.797  70.020  1.00  0.00    -0.412 C  
BRANCH   8   9
HETATM    9  C   UNL     1     -12.521  10.277  70.886  1.00  0.00    -0.466 C  
HETATM   10  C   UNL     1     -13.214  11.028  71.755  1.00  0.00    -0.505 C  
BRANCH  10  11
HETATM   11  C   UNL     1     -12.925  12.483  71.971  1.00  0.00    -0.379 C  
BRANCH  11  12
HETATM   12  C   UNL     1     -14.159  13.289  72.343  1.00  0.00    -0.460 C  
BRANCH  12  13
HETATM   13  C   UNL     1     -13.926  14.762  72.014  1.00  0.00    -0.582 C  
BRANCH  13  14
HETATM   14  C   UNL     1     -13.201  15.457  73.157  1.00  0.00    -0.636 C  
BRANCH  14  15
HETATM   15  C   UNL     1     -11.997  16.247  72.654  1.00  0.00    -0.644 C  
BRANCH  15  16
HETATM   16  C   UNL     1     -11.277  15.469  71.557  1.00  0.00    -0.399 C  
BRANCH  16  17
HETATM   17  C   UNL     1     -11.044  16.325  70.317  1.00  0.00    -0.340 C  
HETATM   18  C   UNL     1     -11.434  15.590  69.058  1.00  0.00    -0.352 C  
HETATM   19  O   UNL     1     -11.881  14.456  69.004  1.00  0.00    -0.296 OA 
HETATM   20  O   UNL     1     -11.231  16.336  67.945  1.00  0.00    -0.309 OA 
ENDBRANCH  16  17
ENDBRANCH  15  16
ENDBRANCH  14  15
ENDBRANCH  13  14
ENDBRANCH  12  13
ENDBRANCH  11  12
ENDBRANCH  10  11
ENDBRANCH   8   9
ENDBRANCH   7   8
ENDBRANCH   5   6
ENDBRANCH   4   5
ENDBRANCH   3   4
ENDBRANCH   2   3
TORSDOF 13
ENDMDL
MODEL      104
REMARK 921   NORMALIZED FREE ENERGY PREDICTED BY IDOCK:   -4.19 KCAL/MOL
REMARK 922        TOTAL FREE ENERGY PREDICTED BY IDOCK:   -9.12 KCAL/MOL
REMARK 923 INTER-LIGAND FREE ENERGY PREDICTED BY IDOCK:   -7.29 KCAL/MOL
REMARK 924 INTRA-LIGAND FREE ENERGY PREDICTED BY IDOCK:   -1.83 KCAL/MOL
REMARK 927      BINDING AFFINITY PREDICTED BY RF-SCORE:    0.00 PKD
ROOT
HETATM    1  C   UNL     1     -14.400   7.736  71.477  1.00  0.00    -0.574 C  
HETATM    2  C   UNL     1     -13.194   8.383  72.134  1.00  0.00    -0.346 C  
ENDROOT
BRANCH   2   3
HETATM    3  C   UNL     1     -12.639   9.511  71.274  1.00  0.00    -0.425 C  
BRANCH   3   4
HETATM    4  C   UNL     1     -13.043  10.876  71.827  1.00  0.00    -0.564 C  
BRANCH   4   5
HETATM    5  C   UNL     1     -12.483  11.976  70.936  1.00  0.00    -0.384 C  
BRANCH   5   6
HETATM    6  C   UNL     1     -11.787  11.456  69.714  1.00  0.00    -0.435 C  
HETATM    7  C   UNL     1     -11.612  12.201  68.611  1.00  0.00    -0.372 C  
BRANCH   7   8
HETATM    8  C   UNL     1     -12.106  13.609  68.454  1.00  0.00    -0.312 C  
BRANCH   8   9
HETATM    9  C   UNL     1     -11.191  14.428  67.593  1.00  0.00    -0.328 C  
HETATM   10  C   UNL     1     -11.393  14.661  66.287  1.00  0.00    -0.347 C  
BRANCH  10  11
HETATM   11  C   UNL     1     -12.559  14.091  65.538  1.00  0.00    -0.543 C  
BRANCH  11  12
HETATM   12  C   UNL     1     -12.238  13.763  64.089  1.00  0.00    -0.443 C  
BRANCH  12  13
HETATM   13  C   UNL     1     -12.036  12.257  63.936  1.00  0.00    -0.598 C  
BRANCH  13  14
HETATM   14  C   UNL     1     -10.556  11.926  63.818  1.00  0.00    -0.475 C  
BRANCH  14  15
HETATM   15  C   UNL     1     -10.274  10.483  64.225  1.00  0.00    -0.314 C  
BRANCH  15  16
HETATM   16  C   UNL     1      -9.720  10.434  65.646  1.00  0.00    -0.294 C  
BRANCH  16  17
HETATM   17  C   UNL     1      -8.975  11.714  66.006  1.00  0.00    -0.149 C  
HETATM   18  C   UNL     1      -8.277  11.589  67.338  1.00  0.00    -0.149 C  
HETATM   19  O   UNL     1      -8.287  10.605  68.059  1.00  0.00    -0.114 OA 
HETATM   20  O   UNL     1      -7.612  12.721  67.675  1.00  0.00    -0.126 OA 
ENDBRANCH  16  17
ENDBRANCH  15  16
ENDBRANCH  14  15
ENDBRANCH  13  14
ENDBRANCH  12  13
ENDBRANCH  11  12
ENDBRANCH  10  11
ENDBRANCH   8   9
ENDBRANCH   7   8
ENDBRANCH   5   6
ENDBRANCH   4   5
ENDBRANCH   3   4
ENDBRANCH   2   3
TORSDOF 13
ENDMDL
MODEL      105
REMARK 921   NORMALIZED FREE ENERGY PREDICTED BY IDOCK:   -4.19 KCAL/MOL
REMARK 922        TOTAL FREE ENERGY PREDICTED BY IDOCK:   -9.12 KCAL/MOL
REMARK 923 INTER-LIGAND FREE ENERGY PREDICTED BY IDOCK:   -6.75 KCAL/MOL
REMARK 924 INTRA-LIGAND FREE ENERGY PREDICTED BY IDOCK:   -2.36 KCAL/MOL
REMARK 927      BINDING AFFINITY PREDICTED BY RF-SCORE:    0.00 PKD
ROOT
HETATM    1  C   UNL     1     -12.384  12.498  63.779  1.00  0.00    -0.595 C  
HETATM    2  C   UNL     1     -10.878  12.311  63.836  1.00  0.00    -0.464 C  
ENDROOT
BRANCH   2   3
HETATM    3  C   UNL     1     -10.514  10.983  64.488  1.00  0.00    -0.411 C  
BRANCH   3   4
HETATM    4  C   UNL     1      -9.895  11.198  65.868  1.00  0.00    -0.275 C  
BRANCH   4   5
HETATM    5  C   UNL     1     -10.990  11.203  66.926  1.00  0.00    -0.333 C  
BRANCH   5   6
HETATM    6  C   UNL     1     -10.866  12.333  67.904  1.00  0.00    -0.252 C  
HETATM    7  C   UNL     1     -11.458  12.311  69.109  1.00  0.00    -0.352 C  
BRANCH   7   8
HETATM    8  C   UNL     1     -12.321  11.191  69.608  1.00  0.00    -0.287 C  
BRANCH   8   9
HETATM    9  C   UNL     1     -12.601  11.313  71.076  1.00  0.00    -0.495 C  
HETATM   10  C   UNL     1     -13.129  10.334  71.828  1.00  0.00    -0.570 C  
BRANCH  10  11
HETATM   11  C   UNL     1     -13.524   9.006  71.257  1.00  0.00    -0.250 C  
BRANCH  11  12
HETATM   12  C   UNL     1     -12.799   7.837  71.903  1.00  0.00    -0.317 C  
BRANCH  12  13
HETATM   13  C   UNL     1     -11.419   8.288  72.377  1.00  0.00    -0.463 C  
BRANCH  13  14
HETATM   14  C   UNL     1     -10.338   7.771  71.440  1.00  0.00    -0.226 C  
BRANCH  14  15
HETATM   15  C   UNL     1      -9.511   8.914  70.860  1.00  0.00    -0.295 C  
BRANCH  15  16
HETATM   16  C   UNL     1      -9.452   8.804  69.339  1.00  0.00    -0.161 C  
BRANCH  16  17
HETATM   17  C   UNL     1     -10.521   7.861  68.799  1.00  0.00    -0.198 C  
HETATM   18  C   UNL     1     -10.269   7.512  67.353  1.00  0.00    -0.249 C  
HETATM   19  O   UNL     1      -9.339   7.915  66.674  1.00  0.00    -0.170 OA 
HETATM   20  O   UNL     1     -11.212   6.677  66.856  1.00  0.00    -0.391 OA 
ENDBRANCH  16  17
ENDBRANCH  15  16
ENDBRANCH  14  15
ENDBRANCH  13  14
ENDBRANCH  12  13
ENDBRANCH  11  12
ENDBRANCH  10  11
ENDBRANCH   8   9
ENDBRANCH   7   8
ENDBRANCH   5   6
ENDBRANCH   4   5
ENDBRANCH   3   4
ENDBRANCH   2   3
TORSDOF 13
ENDMDL
MODEL      106
REMARK 921   NORMALIZED FREE ENERGY PREDICTED BY IDOCK:   -4.17 KCAL/MOL
REMARK 922        TOTAL FREE ENERGY PREDICTED BY IDOCK:   -9.08 KCAL/MOL
REMARK 923 INTER-LIGAND FREE ENERGY PREDICTED BY IDOCK:   -7.00 KCAL/MOL
REMARK 924 INTRA-LIGAND FREE ENERGY PREDICTED BY IDOCK:   -2.08 KCAL/MOL
REMARK 927      BINDING AFFINITY PREDICTED BY RF-SCORE:    0.00 PKD
ROOT
HETATM    1  C   UNL     1     -10.396  13.077  68.249  1.00  0.00    -0.256 C  
HETATM    2  C   UNL     1     -11.710  13.101  67.488  1.00  0.00    -0.414 C  
ENDROOT
BRANCH   2   3
HETATM    3  C   UNL     1     -11.794  14.317  66.574  1.00  0.00    -0.433 C  
BRANCH   3   4
HETATM    4  C   UNL     1     -12.712  14.050  65.384  1.00  0.00    -0.499 C  
BRANCH   4   5
HETATM    5  C   UNL     1     -12.594  12.592  64.961  1.00  0.00    -0.504 C  
BRANCH   5   6
HETATM    6  C   UNL     1     -11.912  12.409  63.639  1.00  0.00    -0.626 C  
HETATM    7  C   UNL     1     -10.657  11.944  63.533  1.00  0.00    -0.507 C  
BRANCH   7   8
HETATM    8  C   UNL     1      -9.787  11.583  64.700  1.00  0.00    -0.283 C  
BRANCH   8   9
HETATM    9  C   UNL     1      -9.362  10.146  64.656  1.00  0.00    -0.334 C  
HETATM   10  C   UNL     1      -9.628   9.251  65.619  1.00  0.00    -0.324 C  
BRANCH  10  11
HETATM   11  C   UNL     1     -10.365   9.613  66.873  1.00  0.00    -0.307 C  
BRANCH  11  12
HETATM   12  C   UNL     1     -10.430   8.475  67.879  1.00  0.00    -0.262 C  
BRANCH  12  13
HETATM   13  C   UNL     1      -9.340   8.659  68.932  1.00  0.00    -0.145 C  
BRANCH  13  14
HETATM   14  C   UNL     1      -9.672   9.831  69.845  1.00  0.00    -0.273 C  
BRANCH  14  15
HETATM   15  C   UNL     1     -11.012   9.628  70.545  1.00  0.00    -0.374 C  
BRANCH  15  16
HETATM   16  C   UNL     1     -10.795   9.074  71.950  1.00  0.00    -0.413 C  
BRANCH  16  17
HETATM   17  C   UNL     1     -11.736   7.913  72.252  1.00  0.00    -0.408 C  
HETATM   18  C   UNL     1     -11.040   6.583  72.093  1.00  0.00    -0.260 C  
HETATM   19  O   UNL     1      -9.875   6.423  71.767  1.00  0.00    -0.164 OA 
HETATM   20  O   UNL     1     -11.863   5.540  72.354  1.00  0.00    -0.210 OA 
ENDBRANCH  16  17
ENDBRANCH  15  16
ENDBRANCH  14  15
ENDBRANCH  13  14
ENDBRANCH  12  13
ENDBRANCH  11  12
ENDBRANCH  10  11
ENDBRANCH   8   9
ENDBRANCH   7   8
ENDBRANCH   5   6
ENDBRANCH   4   5
ENDBRANCH   3   4
ENDBRANCH   2   3
TORSDOF 13
ENDMDL
MODEL      107
REMARK 921   NORMALIZED FREE ENERGY PREDICTED BY IDOCK:   -4.16 KCAL/MOL
REMARK 922        TOTAL FREE ENERGY PREDICTED BY IDOCK:   -9.06 KCAL/MOL
REMARK 923 INTER-LIGAND FREE ENERGY PREDICTED BY IDOCK:   -7.07 KCAL/MOL
REMARK 924 INTRA-LIGAND FREE ENERGY PREDICTED BY IDOCK:   -1.98 KCAL/MOL
REMARK 927      BINDING AFFINITY PREDICTED BY RF-SCORE:    0.00 PKD
ROOT
HETATM    1  C   UNL     1     -14.346  15.209  71.948  1.00  0.00    -0.693 C  
HETATM    2  C   UNL     1     -12.979  15.614  71.426  1.00  0.00    -0.555 C  
ENDROOT
BRANCH   2   3
HETATM    3  C   UNL     1     -12.134  14.391  71.094  1.00  0.00    -0.410 C  
BRANCH   3   4
HETATM    4  C   UNL     1     -11.739  14.377  69.618  1.00  0.00    -0.362 C  
BRANCH   4   5
HETATM    5  C   UNL     1     -11.769  12.948  69.093  1.00  0.00    -0.376 C  
BRANCH   5   6
HETATM    6  C   UNL     1     -12.146  12.854  67.645  1.00  0.00    -0.239 C  
HETATM    7  C   UNL     1     -11.648  11.911  66.830  1.00  0.00    -0.341 C  
BRANCH   7   8
HETATM    8  C   UNL     1     -10.651  10.871  67.248  1.00  0.00    -0.296 C  
BRANCH   8   9
HETATM    9  C   UNL     1      -9.427  10.892  66.383  1.00  0.00    -0.214 C  
HETATM   10  C   UNL     1      -8.379  11.708  66.578  1.00  0.00    -0.122 C  
BRANCH  10  11
HETATM   11  C   UNL     1      -8.342  12.720  67.683  1.00  0.00    -0.175 C  
BRANCH  11  12
HETATM   12  C   UNL     1      -7.048  13.516  67.722  1.00  0.00    -0.163 C  
BRANCH  12  13
HETATM   13  C   UNL     1      -7.337  14.979  67.391  1.00  0.00    -0.231 C  
BRANCH  13  14
HETATM   14  C   UNL     1      -8.828  15.194  67.179  1.00  0.00    -0.236 C  
BRANCH  14  15
HETATM   15  C   UNL     1      -9.106  16.533  66.502  1.00  0.00    -0.307 C  
BRANCH  15  16
HETATM   16  C   UNL     1     -10.366  16.440  65.646  1.00  0.00    -0.371 C  
BRANCH  16  17
HETATM   17  C   UNL     1     -10.675  15.000  65.252  1.00  0.00    -0.406 C  
HETATM   18  C   UNL     1     -11.792  14.934  64.239  1.00  0.00    -0.297 C  
HETATM   19  O   UNL     1     -12.392  15.891  63.776  1.00  0.00    -0.791 OA 
HETATM   20  O   UNL     1     -12.083  13.661  63.880  1.00  0.00    -0.488 OA 
ENDBRANCH  16  17
ENDBRANCH  15  16
ENDBRANCH  14  15
ENDBRANCH  13  14
ENDBRANCH  12  13
ENDBRANCH  11  12
ENDBRANCH  10  11
ENDBRANCH   8   9
ENDBRANCH   7   8
ENDBRANCH   5   6
ENDBRANCH   4   5
ENDBRANCH   3   4
ENDBRANCH   2   3
TORSDOF 13
ENDMDL
MODEL      108
REMARK 921   NORMALIZED FREE ENERGY PREDICTED BY IDOCK:   -4.16 KCAL/MOL
REMARK 922        TOTAL FREE ENERGY PREDICTED BY IDOCK:   -9.06 KCAL/MOL
REMARK 923 INTER-LIGAND FREE ENERGY PREDICTED BY IDOCK:   -7.12 KCAL/MOL
REMARK 924 INTRA-LIGAND FREE ENERGY PREDICTED BY IDOCK:   -1.94 KCAL/MOL
REMARK 927      BINDING AFFINITY PREDICTED BY RF-SCORE:    0.00 PKD
ROOT
HETATM    1  C   UNL     1     -11.040  11.566  63.456  1.00  0.00    -0.434 C  
HETATM    2  C   UNL     1     -11.734  12.900  63.668  1.00  0.00    -0.572 C  
ENDROOT
BRANCH   2   3
HETATM    3  C   UNL     1     -12.670  12.848  64.869  1.00  0.00    -0.474 C  
BRANCH   3   4
HETATM    4  C   UNL     1     -12.412  14.015  65.820  1.00  0.00    -0.523 C  
BRANCH   4   5
HETATM    5  C   UNL     1     -12.061  13.482  67.203  1.00  0.00    -0.386 C  
BRANCH   5   6
HETATM    6  C   UNL     1     -10.833  12.622  67.214  1.00  0.00    -0.277 C  
HETATM    7  C   UNL     1     -10.767  11.468  67.897  1.00  0.00    -0.241 C  
BRANCH   7   8
HETATM    8  C   UNL     1     -11.880  10.919  68.740  1.00  0.00    -0.305 C  
BRANCH   8   9
HETATM    9  C   UNL     1     -11.794  11.398  70.159  1.00  0.00    -0.440 C  
HETATM   10  C   UNL     1     -12.567  10.943  71.157  1.00  0.00    -0.532 C  
BRANCH  10  11
HETATM   11  C   UNL     1     -13.633   9.912  70.943  1.00  0.00    -0.084 C  
BRANCH  11  12
HETATM   12  C   UNL     1     -13.708   8.887  72.063  1.00  0.00    -0.509 C  
BRANCH  12  13
HETATM   13  C   UNL     1     -13.618   7.480  71.478  1.00  0.00    -0.439 C  
BRANCH  13  14
HETATM   14  C   UNL     1     -12.195   6.951  71.574  1.00  0.00    -0.415 C  
BRANCH  14  15
HETATM   15  C   UNL     1     -11.576   6.765  70.191  1.00  0.00    -0.397 C  
BRANCH  15  16
HETATM   16  C   UNL     1     -10.226   7.471  70.118  1.00  0.00    -0.206 C  
BRANCH  16  17
HETATM   17  C   UNL     1      -9.966   8.322  71.357  1.00  0.00    -0.250 C  
HETATM   18  C   UNL     1      -8.584   8.078  71.912  1.00  0.00    -0.137 C  
HETATM   19  O   UNL     1      -7.756   7.308  71.452  1.00  0.00    -0.086 OA 
HETATM   20  O   UNL     1      -8.337   8.824  73.015  1.00  0.00    -0.412 OA 
ENDBRANCH  16  17
ENDBRANCH  15  16
ENDBRANCH  14  15
ENDBRANCH  13  14
ENDBRANCH  12  13
ENDBRANCH  11  12
ENDBRANCH  10  11
ENDBRANCH   8   9
ENDBRANCH   7   8
ENDBRANCH   5   6
ENDBRANCH   4   5
ENDBRANCH   3   4
ENDBRANCH   2   3
TORSDOF 13
ENDMDL
MODEL      109
REMARK 921   NORMALIZED FREE ENERGY PREDICTED BY IDOCK:   -4.15 KCAL/MOL
REMARK 922        TOTAL FREE ENERGY PREDICTED BY IDOCK:   -9.06 KCAL/MOL
REMARK 923 INTER-LIGAND FREE ENERGY PREDICTED BY IDOCK:   -7.45 KCAL/MOL
REMARK 924 INTRA-LIGAND FREE ENERGY PREDICTED BY IDOCK:   -1.61 KCAL/MOL
REMARK 927      BINDING AFFINITY PREDICTED BY RF-SCORE:    0.00 PKD
ROOT
HETATM    1  C   UNL     1     -11.657  10.656  69.637  1.00  0.00    -0.368 C  
HETATM    2  C   UNL     1     -11.080   9.859  70.794  1.00  0.00    -0.417 C  
ENDROOT
BRANCH   2   3
HETATM    3  C   UNL     1     -12.165   9.475  71.791  1.00  0.00    -0.465 C  
BRANCH   3   4
HETATM    4  C   UNL     1     -11.957   8.055  72.314  1.00  0.00    -0.412 C  
BRANCH   4   5
HETATM    5  C   UNL     1     -10.608   7.528  71.843  1.00  0.00    -0.245 C  
BRANCH   5   6
HETATM    6  C   UNL     1     -10.636   6.078  71.461  1.00  0.00    -0.295 C  
HETATM    7  C   UNL     1     -10.947   5.664  70.223  1.00  0.00    -0.287 C  
BRANCH   7   8
HETATM    8  C   UNL     1     -11.326   6.578  69.095  1.00  0.00    -0.330 C  
BRANCH   8   9
HETATM    9  C   UNL     1     -10.688   6.164  67.803  1.00  0.00    -0.382 C  
HETATM   10  C   UNL     1     -10.330   7.017  66.830  1.00  0.00    -0.338 C  
BRANCH  10  11
HETATM   11  C   UNL     1     -10.564   8.494  66.930  1.00  0.00    -0.279 C  
BRANCH  11  12
HETATM   12  C   UNL     1      -9.410   9.320  66.386  1.00  0.00    -0.247 C  
BRANCH  12  13
HETATM   13  C   UNL     1      -9.942  10.637  65.825  1.00  0.00    -0.315 C  
BRANCH  13  14
HETATM   14  C   UNL     1      -9.872  10.638  64.305  1.00  0.00    -0.391 C  
BRANCH  14  15
HETATM   15  C   UNL     1     -10.943  11.540  63.700  1.00  0.00    -0.482 C  
BRANCH  15  16
HETATM   16  C   UNL     1     -11.593  12.390  64.787  1.00  0.00    -0.395 C  
BRANCH  16  17
HETATM   17  C   UNL     1     -11.790  13.833  64.334  1.00  0.00    -0.458 C  
HETATM   18  C   UNL     1     -10.773  14.752  64.964  1.00  0.00    -0.433 C  
HETATM   19  O   UNL     1      -9.894  14.417  65.740  1.00  0.00    -0.317 OA 
HETATM   20  O   UNL     1     -10.936  16.039  64.574  1.00  0.00    -0.592 OA 
ENDBRANCH  16  17
ENDBRANCH  15  16
ENDBRANCH  14  15
ENDBRANCH  13  14
ENDBRANCH  12  13
ENDBRANCH  11  12
ENDBRANCH  10  11
ENDBRANCH   8   9
ENDBRANCH   7   8
ENDBRANCH   5   6
ENDBRANCH   4   5
ENDBRANCH   3   4
ENDBRANCH   2   3
TORSDOF 13
ENDMDL
MODEL      110
REMARK 921   NORMALIZED FREE ENERGY PREDICTED BY IDOCK:   -4.15 KCAL/MOL
REMARK 922        TOTAL FREE ENERGY PREDICTED BY IDOCK:   -9.05 KCAL/MOL
REMARK 923 INTER-LIGAND FREE ENERGY PREDICTED BY IDOCK:   -7.01 KCAL/MOL
REMARK 924 INTRA-LIGAND FREE ENERGY PREDICTED BY IDOCK:   -2.04 KCAL/MOL
REMARK 927      BINDING AFFINITY PREDICTED BY RF-SCORE:    0.00 PKD
ROOT
HETATM    1  C   UNL     1     -11.101  14.738  64.763  1.00  0.00    -0.393 C  
HETATM    2  C   UNL     1     -12.403  14.224  65.351  1.00  0.00    -0.421 C  
ENDROOT
BRANCH   2   3
HETATM    3  C   UNL     1     -12.572  12.733  65.092  1.00  0.00    -0.513 C  
BRANCH   3   4
HETATM    4  C   UNL     1     -11.264  11.980  65.327  1.00  0.00    -0.374 C  
BRANCH   4   5
HETATM    5  C   UNL     1     -11.209  11.483  66.765  1.00  0.00    -0.350 C  
BRANCH   5   6
HETATM    6  C   UNL     1      -9.831  11.515  67.354  1.00  0.00    -0.202 C  
HETATM    7  C   UNL     1      -9.365  12.568  68.044  1.00  0.00    -0.205 C  
BRANCH   7   8
HETATM    8  C   UNL     1     -10.139  13.830  68.286  1.00  0.00    -0.239 C  
BRANCH   8   9
HETATM    9  C   UNL     1      -9.257  14.941  68.774  1.00  0.00    -0.193 C  
HETATM   10  C   UNL     1      -9.709  16.066  69.349  1.00  0.00    -0.248 C  
BRANCH  10  11
HETATM   11  C   UNL     1     -11.170  16.342  69.538  1.00  0.00    -0.308 C  
BRANCH  11  12
HETATM   12  C   UNL     1     -11.686  15.923  70.905  1.00  0.00    -0.456 C  
BRANCH  12  13
HETATM   13  C   UNL     1     -13.011  15.180  70.748  1.00  0.00    -0.468 C  
BRANCH  13  14
HETATM   14  C   UNL     1     -12.775  13.679  70.659  1.00  0.00    -0.303 C  
BRANCH  14  15
HETATM   15  C   UNL     1     -13.026  12.997  72.001  1.00  0.00    -0.395 C  
BRANCH  15  16
HETATM   16  C   UNL     1     -13.051  11.482  71.826  1.00  0.00    -0.503 C  
BRANCH  16  17
HETATM   17  C   UNL     1     -12.165  11.032  70.669  1.00  0.00    -0.481 C  
HETATM   18  C   UNL     1     -11.462   9.735  70.985  1.00  0.00    -0.383 C  
HETATM   19  O   UNL     1     -11.567   9.101  72.022  1.00  0.00    -0.361 OA 
HETATM   20  O   UNL     1     -10.668   9.323  69.967  1.00  0.00    -0.215 OA 
ENDBRANCH  16  17
ENDBRANCH  15  16
ENDBRANCH  14  15
ENDBRANCH  13  14
ENDBRANCH  12  13
ENDBRANCH  11  12
ENDBRANCH  10  11
ENDBRANCH   8   9
ENDBRANCH   7   8
ENDBRANCH   5   6
ENDBRANCH   4   5
ENDBRANCH   3   4
ENDBRANCH   2   3
TORSDOF 13
ENDMDL
MODEL      111
REMARK 921   NORMALIZED FREE ENERGY PREDICTED BY IDOCK:   -4.13 KCAL/MOL
REMARK 922        TOTAL FREE ENERGY PREDICTED BY IDOCK:   -9.02 KCAL/MOL
REMARK 923 INTER-LIGAND FREE ENERGY PREDICTED BY IDOCK:   -7.22 KCAL/MOL
REMARK 924 INTRA-LIGAND FREE ENERGY PREDICTED BY IDOCK:   -1.80 KCAL/MOL
REMARK 927      BINDING AFFINITY PREDICTED BY RF-SCORE:    0.00 PKD
ROOT
HETATM    1  C   UNL     1      -9.164   6.152  70.856  1.00  0.00    -0.163 C  
HETATM    2  C   UNL     1     -10.234   7.204  70.623  1.00  0.00    -0.205 C  
ENDROOT
BRANCH   2   3
HETATM    3  C   UNL     1     -11.572   6.560  70.283  1.00  0.00    -0.473 C  
BRANCH   3   4
HETATM    4  C   UNL     1     -12.677   7.059  71.213  1.00  0.00    -0.400 C  
BRANCH   4   5
HETATM    5  C   UNL     1     -12.160   8.228  72.042  1.00  0.00    -0.402 C  
BRANCH   5   6
HETATM    6  C   UNL     1     -13.075   9.415  72.031  1.00  0.00    -0.516 C  
HETATM    7  C   UNL     1     -12.809  10.524  71.323  1.00  0.00    -0.532 C  
BRANCH   7   8
HETATM    8  C   UNL     1     -11.575  10.723  70.493  1.00  0.00    -0.425 C  
BRANCH   8   9
HETATM    9  C   UNL     1     -11.844  11.574  69.288  1.00  0.00    -0.414 C  
HETATM   10  C   UNL     1     -11.554  11.212  68.029  1.00  0.00    -0.337 C  
BRANCH  10  11
HETATM   11  C   UNL     1     -10.893   9.908  67.699  1.00  0.00    -0.318 C  
BRANCH  11  12
HETATM   12  C   UNL     1     -10.007   9.981  66.466  1.00  0.00    -0.286 C  
BRANCH  12  13
HETATM   13  C   UNL     1      -9.732  11.443  66.119  1.00  0.00    -0.248 C  
BRANCH  13  14
HETATM   14  C   UNL     1      -9.931  11.684  64.629  1.00  0.00    -0.291 C  
BRANCH  14  15
HETATM   15  C   UNL     1     -11.364  11.382  64.203  1.00  0.00    -0.263 C  
BRANCH  15  16
HETATM   16  C   UNL     1     -12.251  12.602  64.432  1.00  0.00    -0.518 C  
BRANCH  16  17
HETATM   17  C   UNL     1     -11.502  13.903  64.165  1.00  0.00    -0.270 C  
HETATM   18  C   UNL     1     -11.382  14.737  65.417  1.00  0.00    -0.356 C  
HETATM   19  O   UNL     1     -11.817  14.439  66.517  1.00  0.00    -0.384 OA 
HETATM   20  O   UNL     1     -10.721  15.899  65.196  1.00  0.00    -0.414 OA 
ENDBRANCH  16  17
ENDBRANCH  15  16
ENDBRANCH  14  15
ENDBRANCH  13  14
ENDBRANCH  12  13
ENDBRANCH  11  12
ENDBRANCH  10  11
ENDBRANCH   8   9
ENDBRANCH   7   8
ENDBRANCH   5   6
ENDBRANCH   4   5
ENDBRANCH   3   4
ENDBRANCH   2   3
TORSDOF 13
ENDMDL
MODEL      112
REMARK 921   NORMALIZED FREE ENERGY PREDICTED BY IDOCK:   -4.13 KCAL/MOL
REMARK 922        TOTAL FREE ENERGY PREDICTED BY IDOCK:   -9.02 KCAL/MOL
REMARK 923 INTER-LIGAND FREE ENERGY PREDICTED BY IDOCK:   -6.86 KCAL/MOL
REMARK 924 INTRA-LIGAND FREE ENERGY PREDICTED BY IDOCK:   -2.15 KCAL/MOL
REMARK 927      BINDING AFFINITY PREDICTED BY RF-SCORE:    0.00 PKD
ROOT
HETATM    1  C   UNL     1     -12.615  12.577  64.726  1.00  0.00    -0.493 C  
HETATM    2  C   UNL     1     -11.730  12.190  65.898  1.00  0.00    -0.393 C  
ENDROOT
BRANCH   2   3
HETATM    3  C   UNL     1     -11.917  13.147  67.068  1.00  0.00    -0.412 C  
BRANCH   3   4
HETATM    4  C   UNL     1     -11.186  12.647  68.312  1.00  0.00    -0.312 C  
BRANCH   4   5
HETATM    5  C   UNL     1     -12.093  11.709  69.098  1.00  0.00    -0.315 C  
BRANCH   5   6
HETATM    6  C   UNL     1     -12.160  12.033  70.560  1.00  0.00    -0.402 C  
HETATM    7  C   UNL     1     -12.681  11.187  71.463  1.00  0.00    -0.499 C  
BRANCH   7   8
HETATM    8  C   UNL     1     -13.275   9.851  71.126  1.00  0.00    -0.424 C  
BRANCH   8   9
HETATM    9  C   UNL     1     -13.002   8.834  72.194  1.00  0.00    -0.457 C  
HETATM   10  C   UNL     1     -11.905   8.061  72.236  1.00  0.00    -0.424 C  
BRANCH  10  11
HETATM   11  C   UNL     1     -10.839   8.119  71.184  1.00  0.00    -0.268 C  
BRANCH  11  12
HETATM   12  C   UNL     1      -9.626   8.932  71.605  1.00  0.00    -0.363 C  
BRANCH  12  13
HETATM   13  C   UNL     1      -8.607   8.958  70.469  1.00  0.00    -0.208 C  
BRANCH  13  14
HETATM   14  C   UNL     1      -8.943  10.059  69.474  1.00  0.00    -0.220 C  
BRANCH  14  15
HETATM   15  C   UNL     1      -8.926   9.537  68.040  1.00  0.00    -0.123 C  
BRANCH  15  16
HETATM   16  C   UNL     1     -10.248   8.848  67.714  1.00  0.00    -0.283 C  
BRANCH  16  17
HETATM   17  C   UNL     1     -10.051   7.669  66.767  1.00  0.00    -0.325 C  
HETATM   18  C   UNL     1     -10.663   6.407  67.325  1.00  0.00    -0.353 C  
HETATM   19  O   UNL     1     -11.246   6.309  68.392  1.00  0.00    -0.335 OA 
HETATM   20  O   UNL     1     -10.494   5.348  66.497  1.00  0.00    -0.252 OA 
ENDBRANCH  16  17
ENDBRANCH  15  16
ENDBRANCH  14  15
ENDBRANCH  13  14
ENDBRANCH  12  13
ENDBRANCH  11  12
ENDBRANCH  10  11
ENDBRANCH   8   9
ENDBRANCH   7   8
ENDBRANCH   5   6
ENDBRANCH   4   5
ENDBRANCH   3   4
ENDBRANCH   2   3
TORSDOF 13
ENDMDL
MODEL      113
REMARK 921   NORMALIZED FREE ENERGY PREDICTED BY IDOCK:   -4.12 KCAL/MOL
REMARK 922        TOTAL FREE ENERGY PREDICTED BY IDOCK:   -9.00 KCAL/MOL
REMARK 923 INTER-LIGAND FREE ENERGY PREDICTED BY IDOCK:   -6.72 KCAL/MOL
REMARK 924 INTRA-LIGAND FREE ENERGY PREDICTED BY IDOCK:   -2.29 KCAL/MOL
REMARK 927      BINDING AFFINITY PREDICTED BY RF-SCORE:    0.00 PKD
ROOT
HETATM    1  C   UNL     1      -8.613  10.284  63.397  1.00  0.00    -0.194 C  
HETATM    2  C   UNL     1      -9.584  11.412  63.094  1.00  0.00    -0.398 C  
ENDROOT
BRANCH   2   3
HETATM    3  C   UNL     1     -10.803  11.346  64.005  1.00  0.00    -0.450 C  
BRANCH   3   4
HETATM    4  C   UNL     1     -12.065  11.794  63.272  1.00  0.00    -0.375 C  
BRANCH   4   5
HETATM    5  C   UNL     1     -12.395  13.232  63.650  1.00  0.00    -0.456 C  
BRANCH   5   6
HETATM    6  C   UNL     1     -12.798  13.392  65.085  1.00  0.00    -0.380 C  
HETATM    7  C   UNL     1     -12.236  14.302  65.896  1.00  0.00    -0.422 C  
BRANCH   7   8
HETATM    8  C   UNL     1     -11.136  15.236  65.485  1.00  0.00    -0.330 C  
BRANCH   8   9
HETATM    9  C   UNL     1      -9.780  14.637  65.714  1.00  0.00    -0.331 C  
HETATM   10  C   UNL     1      -8.842  15.176  66.508  1.00  0.00    -0.312 C  
BRANCH  10  11
HETATM   11  C   UNL     1      -9.050  16.471  67.235  1.00  0.00    -0.214 C  
BRANCH  11  12
HETATM   12  C   UNL     1      -9.443  16.282  68.692  1.00  0.00    -0.228 C  
BRANCH  12  13
HETATM   13  C   UNL     1     -10.894  16.715  68.891  1.00  0.00    -0.321 C  
BRANCH  13  14
HETATM   14  C   UNL     1     -11.727  15.560  69.426  1.00  0.00    -0.382 C  
BRANCH  14  15
HETATM   15  C   UNL     1     -10.989  14.232  69.290  1.00  0.00    -0.271 C  
BRANCH  15  16
HETATM   16  C   UNL     1     -11.984  13.076  69.242  1.00  0.00    -0.331 C  
BRANCH  16  17
HETATM   17  C   UNL     1     -11.327  11.749  69.605  1.00  0.00    -0.287 C  
HETATM   18  C   UNL     1     -11.371  10.779  68.450  1.00  0.00    -0.302 C  
HETATM   19  O   UNL     1     -11.862  10.996  67.354  1.00  0.00    -0.523 OA 
HETATM   20  O   UNL     1     -10.794   9.592  68.757  1.00  0.00    -0.211 OA 
ENDBRANCH  16  17
ENDBRANCH  15  16
ENDBRANCH  14  15
ENDBRANCH  13  14
ENDBRANCH  12  13
ENDBRANCH  11  12
ENDBRANCH  10  11
ENDBRANCH   8   9
ENDBRANCH   7   8
ENDBRANCH   5   6
ENDBRANCH   4   5
ENDBRANCH   3   4
ENDBRANCH   2   3
TORSDOF 13
ENDMDL
MODEL      114
REMARK 921   NORMALIZED FREE ENERGY PREDICTED BY IDOCK:   -4.12 KCAL/MOL
REMARK 922        TOTAL FREE ENERGY PREDICTED BY IDOCK:   -8.99 KCAL/MOL
REMARK 923 INTER-LIGAND FREE ENERGY PREDICTED BY IDOCK:   -7.00 KCAL/MOL
REMARK 924 INTRA-LIGAND FREE ENERGY PREDICTED BY IDOCK:   -1.98 KCAL/MOL
REMARK 927      BINDING AFFINITY PREDICTED BY RF-SCORE:    0.00 PKD
ROOT
HETATM    1  C   UNL     1     -10.077  20.085  66.512  1.00  0.00    -0.606 C  
HETATM    2  C   UNL     1     -10.676  19.105  67.505  1.00  0.00    -0.555 C  
ENDROOT
BRANCH   2   3
HETATM    3  C   UNL     1      -9.587  18.355  68.262  1.00  0.00    -0.355 C  
BRANCH   3   4
HETATM    4  C   UNL     1      -9.946  16.880  68.428  1.00  0.00    -0.275 C  
BRANCH   4   5
HETATM    5  C   UNL     1     -10.632  16.374  67.167  1.00  0.00    -0.276 C  
BRANCH   5   6
HETATM    6  C   UNL     1      -9.743  15.534  66.301  1.00  0.00    -0.328 C  
HETATM    7  C   UNL     1      -9.623  14.207  66.463  1.00  0.00    -0.310 C  
BRANCH   7   8
HETATM    8  C   UNL     1     -10.328  13.417  67.526  1.00  0.00    -0.226 C  
BRANCH   8   9
HETATM    9  C   UNL     1      -9.365  12.818  68.507  1.00  0.00    -0.078 C  
HETATM   10  C   UNL     1      -9.199  11.499  68.692  1.00  0.00    -0.136 C  
BRANCH  10  11
HETATM   11  C   UNL     1      -9.996  10.475  67.942  1.00  0.00    -0.193 C  
BRANCH  11  12
HETATM   12  C   UNL     1      -9.131   9.488  67.175  1.00  0.00    -0.152 C  
BRANCH  12  13
HETATM   13  C   UNL     1      -9.565   9.455  65.712  1.00  0.00    -0.340 C  
BRANCH  13  14
HETATM   14  C   UNL     1     -10.354  10.708  65.360  1.00  0.00    -0.303 C  
BRANCH  14  15
HETATM   15  C   UNL     1     -10.367  10.952  63.854  1.00  0.00    -0.397 C  
BRANCH  15  16
HETATM   16  C   UNL     1     -11.515  11.885  63.481  1.00  0.00    -0.523 C  
BRANCH  16  17
HETATM   17  C   UNL     1     -12.286  12.352  64.711  1.00  0.00    -0.493 C  
HETATM   18  C   UNL     1     -12.700  13.798  64.586  1.00  0.00    -0.145 C  
HETATM   19  O   UNL     1     -12.465  14.527  63.636  1.00  0.00    -0.782 OA 
HETATM   20  O   UNL     1     -13.383  14.231  65.672  1.00  0.00    -0.529 OA 
ENDBRANCH  16  17
ENDBRANCH  15  16
ENDBRANCH  14  15
ENDBRANCH  13  14
ENDBRANCH  12  13
ENDBRANCH  11  12
ENDBRANCH  10  11
ENDBRANCH   8   9
ENDBRANCH   7   8
ENDBRANCH   5   6
ENDBRANCH   4   5
ENDBRANCH   3   4
ENDBRANCH   2   3
TORSDOF 13
ENDMDL
MODEL      115
REMARK 921   NORMALIZED FREE ENERGY PREDICTED BY IDOCK:   -4.11 KCAL/MOL
REMARK 922        TOTAL FREE ENERGY PREDICTED BY IDOCK:   -8.98 KCAL/MOL
REMARK 923 INTER-LIGAND FREE ENERGY PREDICTED BY IDOCK:   -7.01 KCAL/MOL
REMARK 924 INTRA-LIGAND FREE ENERGY PREDICTED BY IDOCK:   -1.97 KCAL/MOL
REMARK 927      BINDING AFFINITY PREDICTED BY RF-SCORE:    0.00 PKD
ROOT
HETATM    1  C   UNL     1     -12.529  14.079  65.301  1.00  0.00    -0.495 C  
HETATM    2  C   UNL     1     -12.399  12.568  65.224  1.00  0.00    -0.469 C  
ENDROOT
BRANCH   2   3
HETATM    3  C   UNL     1     -12.143  12.111  63.794  1.00  0.00    -0.620 C  
BRANCH   3   4
HETATM    4  C   UNL     1     -10.819  11.358  63.683  1.00  0.00    -0.459 C  
BRANCH   4   5
HETATM    5  C   UNL     1     -10.215  11.176  65.069  1.00  0.00    -0.354 C  
BRANCH   5   6
HETATM    6  C   UNL     1      -9.636   9.812  65.292  1.00  0.00    -0.368 C  
HETATM    7  C   UNL     1      -9.903   9.084  66.388  1.00  0.00    -0.356 C  
BRANCH   7   8
HETATM    8  C   UNL     1     -10.774   9.547  67.518  1.00  0.00    -0.311 C  
BRANCH   8   9
HETATM    9  C   UNL     1     -10.011  10.374  68.509  1.00  0.00    -0.179 C  
HETATM   10  C   UNL     1     -10.557  10.944  69.595  1.00  0.00    -0.178 C  
BRANCH  10  11
HETATM   11  C   UNL     1     -12.017  10.831  69.915  1.00  0.00    -0.418 C  
BRANCH  11  12
HETATM   12  C   UNL     1     -12.291  10.633  71.397  1.00  0.00    -0.455 C  
BRANCH  12  13
HETATM   13  C   UNL     1     -13.081   9.342  71.604  1.00  0.00    -0.471 C  
BRANCH  13  14
HETATM   14  C   UNL     1     -12.164   8.225  72.080  1.00  0.00    -0.398 C  
BRANCH  14  15
HETATM   15  C   UNL     1     -12.548   6.887  71.456  1.00  0.00    -0.412 C  
BRANCH  15  16
HETATM   16  C   UNL     1     -11.596   6.544  70.314  1.00  0.00    -0.473 C  
BRANCH  16  17
HETATM   17  C   UNL     1     -10.244   7.230  70.481  1.00  0.00    -0.203 C  
HETATM   18  C   UNL     1      -9.298   6.862  69.364  1.00  0.00    -0.146 C  
HETATM   19  O   UNL     1      -9.550   6.116  68.433  1.00  0.00    -0.118 OA 
HETATM   20  O   UNL     1      -8.090   7.461  69.499  1.00  0.00    -0.124 OA 
ENDBRANCH  16  17
ENDBRANCH  15  16
ENDBRANCH  14  15
ENDBRANCH  13  14
ENDBRANCH  12  13
ENDBRANCH  11  12
ENDBRANCH  10  11
ENDBRANCH   8   9
ENDBRANCH   7   8
ENDBRANCH   5   6
ENDBRANCH   4   5
ENDBRANCH   3   4
ENDBRANCH   2   3
TORSDOF 13
ENDMDL
MODEL      116
REMARK 921   NORMALIZED FREE ENERGY PREDICTED BY IDOCK:   -4.10 KCAL/MOL
REMARK 922        TOTAL FREE ENERGY PREDICTED BY IDOCK:   -8.96 KCAL/MOL
REMARK 923 INTER-LIGAND FREE ENERGY PREDICTED BY IDOCK:   -7.12 KCAL/MOL
REMARK 924 INTRA-LIGAND FREE ENERGY PREDICTED BY IDOCK:   -1.84 KCAL/MOL
REMARK 927      BINDING AFFINITY PREDICTED BY RF-SCORE:    0.00 PKD
ROOT
HETATM    1  C   UNL     1     -10.624   5.543  71.565  1.00  0.00    -0.302 C  
HETATM    2  C   UNL     1     -11.465   6.697  72.081  1.00  0.00    -0.323 C  
ENDROOT
BRANCH   2   3
HETATM    3  C   UNL     1     -11.832   7.656  70.956  1.00  0.00    -0.306 C  
BRANCH   3   4
HETATM    4  C   UNL     1     -10.582   8.251  70.309  1.00  0.00    -0.230 C  
BRANCH   4   5
HETATM    5  C   UNL     1     -10.563   9.758  70.523  1.00  0.00    -0.376 C  
BRANCH   5   6
HETATM    6  C   UNL     1     -11.765  10.455  69.961  1.00  0.00    -0.366 C  
HETATM    7  C   UNL     1     -11.774  11.006  68.737  1.00  0.00    -0.383 C  
BRANCH   7   8
HETATM    8  C   UNL     1     -10.597  11.019  67.807  1.00  0.00    -0.250 C  
BRANCH   8   9
HETATM    9  C   UNL     1     -10.462   9.726  67.060  1.00  0.00    -0.295 C  
HETATM   10  C   UNL     1      -9.886   9.609  65.853  1.00  0.00    -0.358 C  
BRANCH  10  11
HETATM   11  C   UNL     1      -9.337  10.786  65.106  1.00  0.00    -0.254 C  
BRANCH  11  12
HETATM   12  C   UNL     1      -9.878  10.901  63.690  1.00  0.00    -0.403 C  
BRANCH  12  13
HETATM   13  C   UNL     1     -10.670  12.199  63.548  1.00  0.00    -0.509 C  
BRANCH  13  14
HETATM   14  C   UNL     1     -12.098  12.009  64.039  1.00  0.00    -0.506 C  
BRANCH  14  15
HETATM   15  C   UNL     1     -12.413  12.944  65.204  1.00  0.00    -0.561 C  
BRANCH  15  16
HETATM   16  C   UNL     1     -11.253  13.908  65.435  1.00  0.00    -0.306 C  
BRANCH  16  17
HETATM   17  C   UNL     1     -11.428  14.702  66.725  1.00  0.00    -0.371 C  
HETATM   18  C   UNL     1     -10.594  15.960  66.715  1.00  0.00    -0.309 C  
HETATM   19  O   UNL     1      -9.864  16.324  65.808  1.00  0.00    -0.380 OA 
HETATM   20  O   UNL     1     -10.736  16.677  67.856  1.00  0.00    -0.336 OA 
ENDBRANCH  16  17
ENDBRANCH  15  16
ENDBRANCH  14  15
ENDBRANCH  13  14
ENDBRANCH  12  13
ENDBRANCH  11  12
ENDBRANCH  10  11
ENDBRANCH   8   9
ENDBRANCH   7   8
ENDBRANCH   5   6
ENDBRANCH   4   5
ENDBRANCH   3   4
ENDBRANCH   2   3
TORSDOF 13
ENDMDL
MODEL      117
REMARK 921   NORMALIZED FREE ENERGY PREDICTED BY IDOCK:   -4.09 KCAL/MOL
REMARK 922        TOTAL FREE ENERGY PREDICTED BY IDOCK:   -8.95 KCAL/MOL
REMARK 923 INTER-LIGAND FREE ENERGY PREDICTED BY IDOCK:   -6.80 KCAL/MOL
REMARK 924 INTRA-LIGAND FREE ENERGY PREDICTED BY IDOCK:   -2.15 KCAL/MOL
REMARK 927      BINDING AFFINITY PREDICTED BY RF-SCORE:    0.00 PKD
ROOT
HETATM    1  C   UNL     1     -12.620  13.844  65.628  1.00  0.00    -0.553 C  
HETATM    2  C   UNL     1     -11.656  12.716  65.304  1.00  0.00    -0.389 C  
ENDROOT
BRANCH   2   3
HETATM    3  C   UNL     1     -10.308  12.935  65.978  1.00  0.00    -0.294 C  
BRANCH   3   4
HETATM    4  C   UNL     1      -9.643  11.605  66.325  1.00  0.00    -0.241 C  
BRANCH   4   5
HETATM    5  C   UNL     1     -10.090  11.153  67.709  1.00  0.00    -0.200 C  
BRANCH   5   6
HETATM    6  C   UNL     1     -10.657   9.766  67.728  1.00  0.00    -0.320 C  
HETATM    7  C   UNL     1     -10.467   8.922  68.755  1.00  0.00    -0.223 C  
BRANCH   7   8
HETATM    8  C   UNL     1      -9.658   9.245  69.976  1.00  0.00    -0.235 C  
BRANCH   8   9
HETATM    9  C   UNL     1      -9.466   8.044  70.852  1.00  0.00    -0.178 C  
HETATM   10  C   UNL     1     -10.259   7.733  71.890  1.00  0.00    -0.250 C  
BRANCH  10  11
HETATM   11  C   UNL     1     -11.419   8.588  72.301  1.00  0.00    -0.445 C  
BRANCH  11  12
HETATM   12  C   UNL     1     -12.755   8.069  71.793  1.00  0.00    -0.352 C  
BRANCH  12  13
HETATM   13  C   UNL     1     -13.629   9.243  71.358  1.00  0.00    -0.358 C  
BRANCH  13  14
HETATM   14  C   UNL     1     -12.959  10.565  71.704  1.00  0.00    -0.581 C  
BRANCH  14  15
HETATM   15  C   UNL     1     -12.637  11.370  70.449  1.00  0.00    -0.267 C  
BRANCH  15  16
HETATM   16  C   UNL     1     -12.409  12.836  70.807  1.00  0.00    -0.375 C  
BRANCH  16  17
HETATM   17  C   UNL     1     -11.955  13.648  69.599  1.00  0.00    -0.402 C  
HETATM   18  C   UNL     1     -12.237  15.119  69.787  1.00  0.00    -0.289 C  
HETATM   19  O   UNL     1     -12.758  15.625  70.766  1.00  0.00    -0.458 OA 
HETATM   20  O   UNL     1     -11.842  15.855  68.720  1.00  0.00    -0.393 OA 
ENDBRANCH  16  17
ENDBRANCH  15  16
ENDBRANCH  14  15
ENDBRANCH  13  14
ENDBRANCH  12  13
ENDBRANCH  11  12
ENDBRANCH  10  11
ENDBRANCH   8   9
ENDBRANCH   7   8
ENDBRANCH   5   6
ENDBRANCH   4   5
ENDBRANCH   3   4
ENDBRANCH   2   3
TORSDOF 13
ENDMDL
MODEL      118
REMARK 921   NORMALIZED FREE ENERGY PREDICTED BY IDOCK:   -4.09 KCAL/MOL
REMARK 922        TOTAL FREE ENERGY PREDICTED BY IDOCK:   -8.95 KCAL/MOL
REMARK 923 INTER-LIGAND FREE ENERGY PREDICTED BY IDOCK:   -6.75 KCAL/MOL
REMARK 924 INTRA-LIGAND FREE ENERGY PREDICTED BY IDOCK:   -2.20 KCAL/MOL
REMARK 927      BINDING AFFINITY PREDICTED BY RF-SCORE:    0.00 PKD
ROOT
HETATM    1  C   UNL     1      -9.053   7.293  66.148  1.00  0.00    -0.160 C  
HETATM    2  C   UNL     1      -9.181   6.818  67.585  1.00  0.00    -0.118 C  
ENDROOT
BRANCH   2   3
HETATM    3  C   UNL     1     -10.639   6.582  67.957  1.00  0.00    -0.310 C  
BRANCH   3   4
HETATM    4  C   UNL     1     -10.763   6.012  69.368  1.00  0.00    -0.403 C  
BRANCH   4   5
HETATM    5  C   UNL     1     -11.862   6.747  70.123  1.00  0.00    -0.321 C  
BRANCH   5   6
HETATM    6  C   UNL     1     -11.908   6.411  71.584  1.00  0.00    -0.361 C  
HETATM    7  C   UNL     1     -11.452   7.245  72.531  1.00  0.00    -0.322 C  
BRANCH   7   8
HETATM    8  C   UNL     1     -10.826   8.580  72.253  1.00  0.00    -0.418 C  
BRANCH   8   9
HETATM    9  C   UNL     1      -9.333   8.487  72.155  1.00  0.00    -0.353 C  
HETATM   10  C   UNL     1      -8.618   8.919  71.104  1.00  0.00    -0.263 C  
BRANCH  10  11
HETATM   11  C   UNL     1      -9.255   9.522  69.890  1.00  0.00    -0.242 C  
BRANCH  11  12
HETATM   12  C   UNL     1      -8.309  10.406  69.094  1.00  0.00    -0.160 C  
BRANCH  12  13
HETATM   13  C   UNL     1      -9.070  11.070  67.948  1.00  0.00    -0.147 C  
BRANCH  13  14
HETATM   14  C   UNL     1     -10.414  10.389  67.734  1.00  0.00    -0.268 C  
BRANCH  14  15
HETATM   15  C   UNL     1     -11.544  11.409  67.632  1.00  0.00    -0.315 C  
BRANCH  15  16
HETATM   16  C   UNL     1     -11.187  12.491  66.617  1.00  0.00    -0.357 C  
BRANCH  16  17
HETATM   17  C   UNL     1     -11.359  12.000  65.184  1.00  0.00    -0.359 C  
HETATM   18  C   UNL     1     -12.531  12.669  64.508  1.00  0.00    -0.448 C  
HETATM   19  O   UNL     1     -13.267  13.500  65.015  1.00  0.00    -0.721 OA 
HETATM   20  O   UNL     1     -12.700  12.241  63.234  1.00  0.00    -0.699 OA 
ENDBRANCH  16  17
ENDBRANCH  15  16
ENDBRANCH  14  15
ENDBRANCH  13  14
ENDBRANCH  12  13
ENDBRANCH  11  12
ENDBRANCH  10  11
ENDBRANCH   8   9
ENDBRANCH   7   8
ENDBRANCH   5   6
ENDBRANCH   4   5
ENDBRANCH   3   4
ENDBRANCH   2   3
TORSDOF 13
ENDMDL
MODEL      119
REMARK 921   NORMALIZED FREE ENERGY PREDICTED BY IDOCK:   -4.09 KCAL/MOL
REMARK 922        TOTAL FREE ENERGY PREDICTED BY IDOCK:   -8.95 KCAL/MOL
REMARK 923 INTER-LIGAND FREE ENERGY PREDICTED BY IDOCK:   -7.54 KCAL/MOL
REMARK 924 INTRA-LIGAND FREE ENERGY PREDICTED BY IDOCK:   -1.41 KCAL/MOL
REMARK 927      BINDING AFFINITY PREDICTED BY RF-SCORE:    0.00 PKD
ROOT
HETATM    1  C   UNL     1     -10.601   7.707  67.081  1.00  0.00    -0.410 C  
HETATM    2  C   UNL     1     -10.198   9.026  67.716  1.00  0.00    -0.284 C  
ENDROOT
BRANCH   2   3
HETATM    3  C   UNL     1     -10.482  10.195  66.781  1.00  0.00    -0.270 C  
BRANCH   3   4
HETATM    4  C   UNL     1      -9.879   9.955  65.398  1.00  0.00    -0.384 C  
BRANCH   4   5
HETATM    5  C   UNL     1      -9.582  11.290  64.730  1.00  0.00    -0.269 C  
BRANCH   5   6
HETATM    6  C   UNL     1     -10.482  11.587  63.568  1.00  0.00    -0.486 C  
HETATM    7  C   UNL     1     -11.481  12.481  63.639  1.00  0.00    -0.568 C  
BRANCH   7   8
HETATM    8  C   UNL     1     -11.834  13.259  64.873  1.00  0.00    -0.398 C  
BRANCH   8   9
HETATM    9  C   UNL     1     -11.922  14.731  64.597  1.00  0.00    -0.448 C  
HETATM   10  C   UNL     1     -11.036  15.636  65.040  1.00  0.00    -0.445 C  
BRANCH  10  11
HETATM   11  C   UNL     1      -9.863  15.262  65.895  1.00  0.00    -0.385 C  
BRANCH  11  12
HETATM   12  C   UNL     1      -9.109  16.465  66.437  1.00  0.00    -0.341 C  
BRANCH  12  13
HETATM   13  C   UNL     1     -10.104  17.532  66.887  1.00  0.00    -0.324 C  
BRANCH  13  14
HETATM   14  C   UNL     1     -10.141  17.622  68.406  1.00  0.00    -0.368 C  
BRANCH  14  15
HETATM   15  C   UNL     1      -9.295  16.526  69.048  1.00  0.00    -0.239 C  
BRANCH  15  16
HETATM   16  C   UNL     1     -10.192  15.497  69.728  1.00  0.00    -0.301 C  
BRANCH  16  17
HETATM   17  C   UNL     1     -11.463  16.134  70.281  1.00  0.00    -0.319 C  
HETATM   18  C   UNL     1     -12.532  15.099  70.535  1.00  0.00    -0.379 C  
HETATM   19  O   UNL     1     -12.425  13.900  70.335  1.00  0.00    -0.336 OA 
HETATM   20  O   UNL     1     -13.670  15.648  71.023  1.00  0.00    -0.582 OA 
ENDBRANCH  16  17
ENDBRANCH  15  16
ENDBRANCH  14  15
ENDBRANCH  13  14
ENDBRANCH  12  13
ENDBRANCH  11  12
ENDBRANCH  10  11
ENDBRANCH   8   9
ENDBRANCH   7   8
ENDBRANCH   5   6
ENDBRANCH   4   5
ENDBRANCH   3   4
ENDBRANCH   2   3
TORSDOF 13
ENDMDL
MODEL      120
REMARK 921   NORMALIZED FREE ENERGY PREDICTED BY IDOCK:   -4.09 KCAL/MOL
REMARK 922        TOTAL FREE ENERGY PREDICTED BY IDOCK:   -8.95 KCAL/MOL
REMARK 923 INTER-LIGAND FREE ENERGY PREDICTED BY IDOCK:   -6.27 KCAL/MOL
REMARK 924 INTRA-LIGAND FREE ENERGY PREDICTED BY IDOCK:   -2.68 KCAL/MOL
REMARK 927      BINDING AFFINITY PREDICTED BY RF-SCORE:    0.00 PKD
ROOT
HETATM    1  C   UNL     1     -10.207  19.325  68.298  1.00  0.00    -0.513 C  
HETATM    2  C   UNL     1     -10.574  18.347  67.196  1.00  0.00    -0.416 C  
ENDROOT
BRANCH   2   3
HETATM    3  C   UNL     1      -9.434  17.375  66.921  1.00  0.00    -0.275 C  
BRANCH   3   4
HETATM    4  C   UNL     1      -8.500  17.265  68.125  1.00  0.00    -0.238 C  
BRANCH   4   5
HETATM    5  C   UNL     1      -8.727  15.933  68.828  1.00  0.00    -0.213 C  
BRANCH   5   6
HETATM    6  C   UNL     1      -7.493  15.085  68.907  1.00  0.00    -0.143 C  
HETATM    7  C   UNL     1      -7.336  13.969  68.177  1.00  0.00    -0.128 C  
BRANCH   7   8
HETATM    8  C   UNL     1      -8.366  13.427  67.229  1.00  0.00    -0.183 C  
BRANCH   8   9
HETATM    9  C   UNL     1      -8.953  12.138  67.721  1.00  0.00    -0.179 C  
HETATM   10  C   UNL     1      -9.560  11.237  66.934  1.00  0.00    -0.210 C  
BRANCH  10  11
HETATM   11  C   UNL     1      -9.741  11.447  65.461  1.00  0.00    -0.263 C  
BRANCH  11  12
HETATM   12  C   UNL     1     -11.093  12.042  65.103  1.00  0.00    -0.369 C  
BRANCH  12  13
HETATM   13  C   UNL     1     -10.895  13.405  64.444  1.00  0.00    -0.422 C  
BRANCH  13  14
HETATM   14  C   UNL     1     -11.349  14.520  65.374  1.00  0.00    -0.341 C  
BRANCH  14  15
HETATM   15  C   UNL     1     -12.267  13.989  66.472  1.00  0.00    -0.485 C  
BRANCH  15  16
HETATM   16  C   UNL     1     -11.869  14.577  67.822  1.00  0.00    -0.390 C  
BRANCH  16  17
HETATM   17  C   UNL     1     -12.028  13.562  68.949  1.00  0.00    -0.378 C  
HETATM   18  C   UNL     1     -12.506  14.220  70.220  1.00  0.00    -0.361 C  
HETATM   19  O   UNL     1     -12.743  15.408  70.362  1.00  0.00    -0.404 OA 
HETATM   20  O   UNL     1     -12.649  13.332  71.233  1.00  0.00    -0.358 OA 
ENDBRANCH  16  17
ENDBRANCH  15  16
ENDBRANCH  14  15
ENDBRANCH  13  14
ENDBRANCH  12  13
ENDBRANCH  11  12
ENDBRANCH  10  11
ENDBRANCH   8   9
ENDBRANCH   7   8
ENDBRANCH   5   6
ENDBRANCH   4   5
ENDBRANCH   3   4
ENDBRANCH   2   3
TORSDOF 13
ENDMDL
MODEL      121
REMARK 921   NORMALIZED FREE ENERGY PREDICTED BY IDOCK:   -4.09 KCAL/MOL
REMARK 922        TOTAL FREE ENERGY PREDICTED BY IDOCK:   -8.95 KCAL/MOL
REMARK 923 INTER-LIGAND FREE ENERGY PREDICTED BY IDOCK:   -6.43 KCAL/MOL
REMARK 924 INTRA-LIGAND FREE ENERGY PREDICTED BY IDOCK:   -2.52 KCAL/MOL
REMARK 927      BINDING AFFINITY PREDICTED BY RF-SCORE:    0.00 PKD
ROOT
HETATM    1  C   UNL     1      -9.325  11.849  67.184  1.00  0.00    -0.180 C  
HETATM    2  C   UNL     1     -10.675  11.229  67.500  1.00  0.00    -0.275 C  
ENDROOT
BRANCH   2   3
HETATM    3  C   UNL     1     -10.588   9.709  67.532  1.00  0.00    -0.339 C  
BRANCH   3   4
HETATM    4  C   UNL     1      -9.216   9.225  67.066  1.00  0.00    -0.169 C  
BRANCH   4   5
HETATM    5  C   UNL     1      -9.351   8.518  65.724  1.00  0.00    -0.187 C  
BRANCH   5   6
HETATM    6  C   UNL     1      -8.170   8.722  64.823  1.00  0.00    -0.163 C  
HETATM    7  C   UNL     1      -8.237   9.453  63.699  1.00  0.00    -0.169 C  
BRANCH   7   8
HETATM    8  C   UNL     1      -9.482  10.123  63.199  1.00  0.00    -0.296 C  
BRANCH   8   9
HETATM    9  C   UNL     1      -9.432  11.610  63.391  1.00  0.00    -0.233 C  
HETATM   10  C   UNL     1     -10.507  12.376  63.630  1.00  0.00    -0.460 C  
BRANCH  10  11
HETATM   11  C   UNL     1     -11.895  11.815  63.700  1.00  0.00    -0.498 C  
BRANCH  11  12
HETATM   12  C   UNL     1     -12.784  12.541  64.698  1.00  0.00    -0.434 C  
BRANCH  12  13
HETATM   13  C   UNL     1     -12.278  13.968  64.890  1.00  0.00    -0.455 C  
BRANCH  13  14
HETATM   14  C   UNL     1     -12.242  14.327  66.369  1.00  0.00    -0.426 C  
BRANCH  14  15
HETATM   15  C   UNL     1     -10.991  15.129  66.715  1.00  0.00    -0.321 C  
BRANCH  15  16
HETATM   16  C   UNL     1     -10.736  15.086  68.219  1.00  0.00    -0.253 C  
BRANCH  16  17
HETATM   17  C   UNL     1     -11.821  15.823  68.997  1.00  0.00    -0.367 C  
HETATM   18  C   UNL     1     -12.347  14.985  70.136  1.00  0.00    -0.333 C  
HETATM   19  O   UNL     1     -11.975  13.860  70.425  1.00  0.00    -0.313 OA 
HETATM   20  O   UNL     1     -13.315  15.624  70.837  1.00  0.00    -0.556 OA 
ENDBRANCH  16  17
ENDBRANCH  15  16
ENDBRANCH  14  15
ENDBRANCH  13  14
ENDBRANCH  12  13
ENDBRANCH  11  12
ENDBRANCH  10  11
ENDBRANCH   8   9
ENDBRANCH   7   8
ENDBRANCH   5   6
ENDBRANCH   4   5
ENDBRANCH   3   4
ENDBRANCH   2   3
TORSDOF 13
ENDMDL
MODEL      122
REMARK 921   NORMALIZED FREE ENERGY PREDICTED BY IDOCK:   -4.09 KCAL/MOL
REMARK 922        TOTAL FREE ENERGY PREDICTED BY IDOCK:   -8.94 KCAL/MOL
REMARK 923 INTER-LIGAND FREE ENERGY PREDICTED BY IDOCK:   -6.48 KCAL/MOL
REMARK 924 INTRA-LIGAND FREE ENERGY PREDICTED BY IDOCK:   -2.46 KCAL/MOL
REMARK 927      BINDING AFFINITY PREDICTED BY RF-SCORE:    0.00 PKD
ROOT
HETATM    1  C   UNL     1     -12.138  12.541  63.495  1.00  0.00    -0.653 C  
HETATM    2  C   UNL     1     -10.785  12.628  64.178  1.00  0.00    -0.435 C  
ENDROOT
BRANCH   2   3
HETATM    3  C   UNL     1     -10.636  13.941  64.937  1.00  0.00    -0.436 C  
BRANCH   3   4
HETATM    4  C   UNL     1     -11.772  14.129  65.941  1.00  0.00    -0.369 C  
BRANCH   4   5
HETATM    5  C   UNL     1     -11.806  12.950  66.903  1.00  0.00    -0.444 C  
BRANCH   5   6
HETATM    6  C   UNL     1     -11.872  13.359  68.344  1.00  0.00    -0.401 C  
HETATM    7  C   UNL     1     -11.893  12.468  69.347  1.00  0.00    -0.368 C  
BRANCH   7   8
HETATM    8  C   UNL     1     -11.883  10.980  69.157  1.00  0.00    -0.407 C  
BRANCH   8   9
HETATM    9  C   UNL     1     -10.890  10.309  70.059  1.00  0.00    -0.364 C  
HETATM   10  C   UNL     1      -9.593  10.137  69.757  1.00  0.00    -0.213 C  
BRANCH  10  11
HETATM   11  C   UNL     1      -9.005  10.581  68.452  1.00  0.00    -0.141 C  
BRANCH  11  12
HETATM   12  C   UNL     1      -8.205  11.869  68.564  1.00  0.00    -0.126 C  
BRANCH  12  13
HETATM   13  C   UNL     1      -8.181  12.576  67.211  1.00  0.00    -0.184 C  
BRANCH  13  14
HETATM   14  C   UNL     1      -8.004  14.076  67.394  1.00  0.00    -0.191 C  
BRANCH  14  15
HETATM   15  C   UNL     1      -8.747  14.576  68.629  1.00  0.00    -0.172 C  
BRANCH  15  16
HETATM   16  C   UNL     1      -8.719  16.101  68.680  1.00  0.00    -0.214 C  
BRANCH  16  17
HETATM   17  C   UNL     1      -9.853  16.714  67.867  1.00  0.00    -0.248 C  
HETATM   18  C   UNL     1      -9.863  18.219  67.983  1.00  0.00    -0.330 C  
HETATM   19  O   UNL     1      -9.079  18.889  68.635  1.00  0.00    -0.340 OA 
HETATM   20  O   UNL     1     -10.868  18.780  67.268  1.00  0.00    -0.443 OA 
ENDBRANCH  16  17
ENDBRANCH  15  16
ENDBRANCH  14  15
ENDBRANCH  13  14
ENDBRANCH  12  13
ENDBRANCH  11  12
ENDBRANCH  10  11
ENDBRANCH   8   9
ENDBRANCH   7   8
ENDBRANCH   5   6
ENDBRANCH   4   5
ENDBRANCH   3   4
ENDBRANCH   2   3
TORSDOF 13
ENDMDL
MODEL      123
REMARK 921   NORMALIZED FREE ENERGY PREDICTED BY IDOCK:   -4.09 KCAL/MOL
REMARK 922        TOTAL FREE ENERGY PREDICTED BY IDOCK:   -8.94 KCAL/MOL
REMARK 923 INTER-LIGAND FREE ENERGY PREDICTED BY IDOCK:   -6.63 KCAL/MOL
REMARK 924 INTRA-LIGAND FREE ENERGY PREDICTED BY IDOCK:   -2.31 KCAL/MOL
REMARK 927      BINDING AFFINITY PREDICTED BY RF-SCORE:    0.00 PKD
ROOT
HETATM    1  C   UNL     1      -8.468   9.921  69.623  1.00  0.00    -0.198 C  
HETATM    2  C   UNL     1      -9.963  10.140  69.471  1.00  0.00    -0.257 C  
ENDROOT
BRANCH   2   3
HETATM    3  C   UNL     1     -10.732   8.842  69.677  1.00  0.00    -0.212 C  
BRANCH   3   4
HETATM    4  C   UNL     1     -10.078   7.687  68.920  1.00  0.00    -0.202 C  
BRANCH   4   5
HETATM    5  C   UNL     1     -10.484   7.741  67.453  1.00  0.00    -0.362 C  
BRANCH   5   6
HETATM    6  C   UNL     1      -9.320   7.867  66.518  1.00  0.00    -0.255 C  
HETATM    7  C   UNL     1      -9.109   8.962  65.771  1.00  0.00    -0.276 C  
BRANCH   7   8
HETATM    8  C   UNL     1     -10.008  10.163  65.759  1.00  0.00    -0.339 C  
BRANCH   8   9
HETATM    9  C   UNL     1      -9.393  11.312  65.017  1.00  0.00    -0.200 C  
HETATM   10  C   UNL     1      -9.961  11.919  63.963  1.00  0.00    -0.318 C  
BRANCH  10  11
HETATM   11  C   UNL     1     -11.277  11.482  63.395  1.00  0.00    -0.342 C  
BRANCH  11  12
HETATM   12  C   UNL     1     -12.462  12.229  63.984  1.00  0.00    -0.556 C  
BRANCH  12  13
HETATM   13  C   UNL     1     -12.121  13.712  64.110  1.00  0.00    -0.484 C  
BRANCH  13  14
HETATM   14  C   UNL     1     -12.427  14.214  65.513  1.00  0.00    -0.495 C  
BRANCH  14  15
HETATM   15  C   UNL     1     -12.281  13.100  66.546  1.00  0.00    -0.358 C  
BRANCH  15  16
HETATM   16  C   UNL     1     -11.245  13.487  67.597  1.00  0.00    -0.304 C  
BRANCH  16  17
HETATM   17  C   UNL     1     -11.894  13.790  68.944  1.00  0.00    -0.396 C  
HETATM   18  C   UNL     1     -11.943  15.275  69.210  1.00  0.00    -0.299 C  
HETATM   19  O   UNL     1     -11.526  16.147  68.466  1.00  0.00    -0.376 OA 
HETATM   20  O   UNL     1     -12.514  15.562  70.405  1.00  0.00    -0.400 OA 
ENDBRANCH  16  17
ENDBRANCH  15  16
ENDBRANCH  14  15
ENDBRANCH  13  14
ENDBRANCH  12  13
ENDBRANCH  11  12
ENDBRANCH  10  11
ENDBRANCH   8   9
ENDBRANCH   7   8
ENDBRANCH   5   6
ENDBRANCH   4   5
ENDBRANCH   3   4
ENDBRANCH   2   3
TORSDOF 13
ENDMDL
MODEL      124
REMARK 921   NORMALIZED FREE ENERGY PREDICTED BY IDOCK:   -4.09 KCAL/MOL
REMARK 922        TOTAL FREE ENERGY PREDICTED BY IDOCK:   -8.94 KCAL/MOL
REMARK 923 INTER-LIGAND FREE ENERGY PREDICTED BY IDOCK:   -7.07 KCAL/MOL
REMARK 924 INTRA-LIGAND FREE ENERGY PREDICTED BY IDOCK:   -1.87 KCAL/MOL
REMARK 927      BINDING AFFINITY PREDICTED BY RF-SCORE:    0.00 PKD
ROOT
HETATM    1  C   UNL     1     -11.447  12.273  63.488  1.00  0.00    -0.558 C  
HETATM    2  C   UNL     1     -12.110  13.554  63.963  1.00  0.00    -0.494 C  
ENDROOT
BRANCH   2   3
HETATM    3  C   UNL     1     -12.231  13.578  65.482  1.00  0.00    -0.490 C  
BRANCH   3   4
HETATM    4  C   UNL     1     -11.795  12.248  66.092  1.00  0.00    -0.398 C  
BRANCH   4   5
HETATM    5  C   UNL     1     -11.707  12.382  67.606  1.00  0.00    -0.412 C  
BRANCH   5   6
HETATM    6  C   UNL     1     -11.616  11.065  68.316  1.00  0.00    -0.354 C  
HETATM    7  C   UNL     1     -10.542  10.266  68.221  1.00  0.00    -0.255 C  
BRANCH   7   8
HETATM    8  C   UNL     1      -9.333  10.570  67.387  1.00  0.00    -0.158 C  
BRANCH   8   9
HETATM    9  C   UNL     1      -8.182  11.044  68.224  1.00  0.00    -0.130 C  
HETATM   10  C   UNL     1      -7.802  12.327  68.327  1.00  0.00    -0.153 C  
BRANCH  10  11
HETATM   11  C   UNL     1      -8.486  13.431  67.578  1.00  0.00    -0.192 C  
BRANCH  11  12
HETATM   12  C   UNL     1      -8.723  14.671  68.424  1.00  0.00    -0.175 C  
BRANCH  12  13
HETATM   13  C   UNL     1      -9.666  15.621  67.690  1.00  0.00    -0.225 C  
BRANCH  13  14
HETATM   14  C   UNL     1     -10.525  16.393  68.681  1.00  0.00    -0.293 C  
BRANCH  14  15
HETATM   15  C   UNL     1     -11.770  15.603  69.071  1.00  0.00    -0.408 C  
BRANCH  15  16
HETATM   16  C   UNL     1     -11.716  15.228  70.549  1.00  0.00    -0.355 C  
BRANCH  16  17
HETATM   17  C   UNL     1     -12.702  14.116  70.886  1.00  0.00    -0.432 C  
HETATM   18  C   UNL     1     -13.188  14.223  72.311  1.00  0.00    -0.417 C  
HETATM   19  O   UNL     1     -12.855  15.078  73.115  1.00  0.00    -0.431 OA 
HETATM   20  O   UNL     1     -14.064  13.240  72.628  1.00  0.00    -0.744 OA 
ENDBRANCH  16  17
ENDBRANCH  15  16
ENDBRANCH  14  15
ENDBRANCH  13  14
ENDBRANCH  12  13
ENDBRANCH  11  12
ENDBRANCH  10  11
ENDBRANCH   8   9
ENDBRANCH   7   8
ENDBRANCH   5   6
ENDBRANCH   4   5
ENDBRANCH   3   4
ENDBRANCH   2   3
TORSDOF 13
ENDMDL
MODEL      125
REMARK 921   NORMALIZED FREE ENERGY PREDICTED BY IDOCK:   -4.08 KCAL/MOL
REMARK 922        TOTAL FREE ENERGY PREDICTED BY IDOCK:   -8.93 KCAL/MOL
REMARK 923 INTER-LIGAND FREE ENERGY PREDICTED BY IDOCK:   -7.27 KCAL/MOL
REMARK 924 INTRA-LIGAND FREE ENERGY PREDICTED BY IDOCK:   -1.67 KCAL/MOL
REMARK 927      BINDING AFFINITY PREDICTED BY RF-SCORE:    0.00 PKD
ROOT
HETATM    1  C   UNL     1      -9.549  12.730  68.237  1.00  0.00    -0.211 C  
HETATM    2  C   UNL     1     -10.950  12.696  67.652  1.00  0.00    -0.275 C  
ENDROOT
BRANCH   2   3
HETATM    3  C   UNL     1     -11.205  11.388  66.914  1.00  0.00    -0.331 C  
BRANCH   3   4
HETATM    4  C   UNL     1     -10.126  10.355  67.233  1.00  0.00    -0.244 C  
BRANCH   4   5
HETATM    5  C   UNL     1     -10.777   9.018  67.560  1.00  0.00    -0.239 C  
BRANCH   5   6
HETATM    6  C   UNL     1      -9.938   7.837  67.175  1.00  0.00    -0.298 C  
HETATM    7  C   UNL     1     -10.026   6.654  67.803  1.00  0.00    -0.158 C  
BRANCH   7   8
HETATM    8  C   UNL     1     -10.937   6.377  68.963  1.00  0.00    -0.410 C  
BRANCH   8   9
HETATM    9  C   UNL     1     -10.183   6.296  70.257  1.00  0.00    -0.244 C  
HETATM   10  C   UNL     1     -10.456   7.045  71.336  1.00  0.00    -0.225 C  
BRANCH  10  11
HETATM   11  C   UNL     1     -11.543   8.077  71.346  1.00  0.00    -0.301 C  
BRANCH  11  12
HETATM   12  C   UNL     1     -11.014   9.503  71.324  1.00  0.00    -0.440 C  
BRANCH  12  13
HETATM   13  C   UNL     1     -11.973  10.393  70.537  1.00  0.00    -0.427 C  
BRANCH  13  14
HETATM   14  C   UNL     1     -12.840  11.212  71.483  1.00  0.00    -0.542 C  
BRANCH  14  15
HETATM   15  C   UNL     1     -12.611  12.708  71.290  1.00  0.00    -0.339 C  
BRANCH  15  16
HETATM   16  C   UNL     1     -13.670  13.505  72.047  1.00  0.00    -0.568 C  
BRANCH  16  17
HETATM   17  C   UNL     1     -13.042  14.488  73.028  1.00  0.00    -0.611 C  
HETATM   18  C   UNL     1     -12.529  15.720  72.323  1.00  0.00    -0.450 C  
HETATM   19  O   UNL     1     -12.593  15.933  71.123  1.00  0.00    -0.456 OA 
HETATM   20  O   UNL     1     -11.965  16.604  73.181  1.00  0.00    -0.500 OA 
ENDBRANCH  16  17
ENDBRANCH  15  16
ENDBRANCH  14  15
ENDBRANCH  13  14
ENDBRANCH  12  13
ENDBRANCH  11  12
ENDBRANCH  10  11
ENDBRANCH   8   9
ENDBRANCH   7   8
ENDBRANCH   5   6
ENDBRANCH   4   5
ENDBRANCH   3   4
ENDBRANCH   2   3
TORSDOF 13
ENDMDL
MODEL      126
REMARK 921   NORMALIZED FREE ENERGY PREDICTED BY IDOCK:   -4.08 KCAL/MOL
REMARK 922        TOTAL FREE ENERGY PREDICTED BY IDOCK:   -8.93 KCAL/MOL
REMARK 923 INTER-LIGAND FREE ENERGY PREDICTED BY IDOCK:   -7.28 KCAL/MOL
REMARK 924 INTRA-LIGAND FREE ENERGY PREDICTED BY IDOCK:   -1.65 KCAL/MOL
REMARK 927      BINDING AFFINITY PREDICTED BY RF-SCORE:    0.00 PKD
ROOT
HETATM    1  C   UNL     1     -10.288  11.946  68.341  1.00  0.00    -0.216 C  
HETATM    2  C   UNL     1     -11.365  12.320  67.339  1.00  0.00    -0.389 C  
ENDROOT
BRANCH   2   3
HETATM    3  C   UNL     1     -11.970  13.680  67.664  1.00  0.00    -0.386 C  
BRANCH   3   4
HETATM    4  C   UNL     1     -11.054  14.485  68.584  1.00  0.00    -0.272 C  
BRANCH   4   5
HETATM    5  C   UNL     1     -11.831  15.643  69.195  1.00  0.00    -0.378 C  
BRANCH   5   6
HETATM    6  C   UNL     1     -11.480  15.906  70.628  1.00  0.00    -0.426 C  
HETATM    7  C   UNL     1     -12.315  15.625  71.640  1.00  0.00    -0.494 C  
BRANCH   7   8
HETATM    8  C   UNL     1     -13.689  15.048  71.466  1.00  0.00    -0.553 C  
BRANCH   8   9
HETATM    9  C   UNL     1     -13.937  13.904  72.404  1.00  0.00    -0.633 C  
HETATM   10  C   UNL     1     -13.476  12.658  72.212  1.00  0.00    -0.541 C  
BRANCH  10  11
HETATM   11  C   UNL     1     -12.678  12.273  71.004  1.00  0.00    -0.319 C  
BRANCH  11  12
HETATM   12  C   UNL     1     -12.677  10.776  70.740  1.00  0.00    -0.451 C  
BRANCH  12  13
HETATM   13  C   UNL     1     -13.620  10.082  71.721  1.00  0.00    -0.330 C  
BRANCH  13  14
HETATM   14  C   UNL     1     -12.917   8.919  72.405  1.00  0.00    -0.467 C  
BRANCH  14  15
HETATM   15  C   UNL     1     -11.649   8.517  71.656  1.00  0.00    -0.364 C  
BRANCH  15  16
HETATM   16  C   UNL     1     -10.557   8.118  72.644  1.00  0.00    -0.414 C  
BRANCH  16  17
HETATM   17  C   UNL     1     -10.387   6.604  72.716  1.00  0.00    -0.226 C  
HETATM   18  C   UNL     1      -9.435   6.105  71.657  1.00  0.00    -0.148 C  
HETATM   19  O   UNL     1      -8.858   6.797  70.834  1.00  0.00    -0.144 OA 
HETATM   20  O   UNL     1      -9.275   4.761  71.705  1.00  0.00    -0.133 OA 
ENDBRANCH  16  17
ENDBRANCH  15  16
ENDBRANCH  14  15
ENDBRANCH  13  14
ENDBRANCH  12  13
ENDBRANCH  11  12
ENDBRANCH  10  11
ENDBRANCH   8   9
ENDBRANCH   7   8
ENDBRANCH   5   6
ENDBRANCH   4   5
ENDBRANCH   3   4
ENDBRANCH   2   3
TORSDOF 13
ENDMDL
MODEL      127
REMARK 921   NORMALIZED FREE ENERGY PREDICTED BY IDOCK:   -4.08 KCAL/MOL
REMARK 922        TOTAL FREE ENERGY PREDICTED BY IDOCK:   -8.93 KCAL/MOL
REMARK 923 INTER-LIGAND FREE ENERGY PREDICTED BY IDOCK:   -7.11 KCAL/MOL
REMARK 924 INTRA-LIGAND FREE ENERGY PREDICTED BY IDOCK:   -1.82 KCAL/MOL
REMARK 927      BINDING AFFINITY PREDICTED BY RF-SCORE:    0.00 PKD
ROOT
HETATM    1  C   UNL     1     -12.849  12.563  64.528  1.00  0.00    -0.352 C  
HETATM    2  C   UNL     1     -12.140  11.725  63.478  1.00  0.00    -0.485 C  
ENDROOT
BRANCH   2   3
HETATM    3  C   UNL     1     -10.634  11.947  63.524  1.00  0.00    -0.507 C  
BRANCH   3   4
HETATM    4  C   UNL     1      -9.887  10.631  63.732  1.00  0.00    -0.394 C  
BRANCH   4   5
HETATM    5  C   UNL     1      -9.198  10.642  65.089  1.00  0.00    -0.241 C  
BRANCH   5   6
HETATM    6  C   UNL     1      -9.574   9.480  65.958  1.00  0.00    -0.316 C  
HETATM    7  C   UNL     1     -10.557   9.548  66.869  1.00  0.00    -0.241 C  
BRANCH   7   8
HETATM    8  C   UNL     1     -11.369  10.779  67.147  1.00  0.00    -0.110 C  
BRANCH   8   9
HETATM    9  C   UNL     1     -11.578  10.989  68.617  1.00  0.00    -0.385 C  
HETATM   10  C   UNL     1     -11.614  12.193  69.209  1.00  0.00    -0.377 C  
BRANCH  10  11
HETATM   11  C   UNL     1     -11.416  13.469  68.450  1.00  0.00    -0.346 C  
BRANCH  11  12
HETATM   12  C   UNL     1      -9.952  13.846  68.284  1.00  0.00    -0.238 C  
BRANCH  12  13
HETATM   13  C   UNL     1      -9.660  15.124  69.066  1.00  0.00    -0.229 C  
BRANCH  13  14
HETATM   14  C   UNL     1     -10.756  16.154  68.834  1.00  0.00    -0.280 C  
BRANCH  14  15
HETATM   15  C   UNL     1     -10.179  17.482  68.354  1.00  0.00    -0.372 C  
BRANCH  15  16
HETATM   16  C   UNL     1      -9.488  17.300  67.006  1.00  0.00    -0.264 C  
BRANCH  16  17
HETATM   17  C   UNL     1     -10.421  17.629  65.845  1.00  0.00    -0.247 C  
HETATM   18  C   UNL     1     -10.640  16.428  64.957  1.00  0.00    -0.193 C  
HETATM   19  O   UNL     1     -10.149  15.322  65.120  1.00  0.00    -0.345 OA 
HETATM   20  O   UNL     1     -11.464  16.703  63.918  1.00  0.00    -1.186 OA 
ENDBRANCH  16  17
ENDBRANCH  15  16
ENDBRANCH  14  15
ENDBRANCH  13  14
ENDBRANCH  12  13
ENDBRANCH  11  12
ENDBRANCH  10  11
ENDBRANCH   8   9
ENDBRANCH   7   8
ENDBRANCH   5   6
ENDBRANCH   4   5
ENDBRANCH   3   4
ENDBRANCH   2   3
TORSDOF 13
ENDMDL
MODEL      128
REMARK 921   NORMALIZED FREE ENERGY PREDICTED BY IDOCK:   -4.07 KCAL/MOL
REMARK 922        TOTAL FREE ENERGY PREDICTED BY IDOCK:   -8.92 KCAL/MOL
REMARK 923 INTER-LIGAND FREE ENERGY PREDICTED BY IDOCK:   -7.16 KCAL/MOL
REMARK 924 INTRA-LIGAND FREE ENERGY PREDICTED BY IDOCK:   -1.76 KCAL/MOL
REMARK 927      BINDING AFFINITY PREDICTED BY RF-SCORE:    0.00 PKD
ROOT
HETATM    1  C   UNL     1     -11.935  14.750  64.370  1.00  0.00    -0.433 C  
HETATM    2  C   UNL     1     -11.742  13.253  64.198  1.00  0.00    -0.470 C  
ENDROOT
BRANCH   2   3
HETATM    3  C   UNL     1     -12.152  12.499  65.456  1.00  0.00    -0.481 C  
BRANCH   3   4
HETATM    4  C   UNL     1     -11.312  12.930  66.657  1.00  0.00    -0.361 C  
BRANCH   4   5
HETATM    5  C   UNL     1     -11.657  12.065  67.861  1.00  0.00    -0.405 C  
BRANCH   5   6
HETATM    6  C   UNL     1     -11.913  12.855  69.109  1.00  0.00    -0.308 C  
HETATM    7  C   UNL     1     -12.040  12.280  70.315  1.00  0.00    -0.376 C  
BRANCH   7   8
HETATM    8  C   UNL     1     -11.971  10.801  70.557  1.00  0.00    -0.456 C  
BRANCH   8   9
HETATM    9  C   UNL     1     -13.071  10.332  71.462  1.00  0.00    -0.534 C  
HETATM   10  C   UNL     1     -13.043   9.180  72.151  1.00  0.00    -0.516 C  
BRANCH  10  11
HETATM   11  C   UNL     1     -11.899   8.216  72.059  1.00  0.00    -0.392 C  
BRANCH  11  12
HETATM   12  C   UNL     1     -12.303   6.859  71.506  1.00  0.00    -0.420 C  
BRANCH  12  13
HETATM   13  C   UNL     1     -11.772   6.707  70.083  1.00  0.00    -0.412 C  
BRANCH  13  14
HETATM   14  C   UNL     1     -10.269   6.470  70.095  1.00  0.00    -0.226 C  
BRANCH  14  15
HETATM   15  C   UNL     1      -9.592   7.124  68.894  1.00  0.00    -0.142 C  
BRANCH  15  16
HETATM   16  C   UNL     1     -10.338   8.394  68.496  1.00  0.00    -0.232 C  
BRANCH  16  17
HETATM   17  C   UNL     1     -10.518   8.493  66.986  1.00  0.00    -0.362 C  
HETATM   18  C   UNL     1      -9.566   9.497  66.382  1.00  0.00    -0.213 C  
HETATM   19  O   UNL     1      -8.745  10.159  66.995  1.00  0.00    -0.132 OA 
HETATM   20  O   UNL     1      -9.715   9.599  65.039  1.00  0.00    -0.289 OA 
ENDBRANCH  16  17
ENDBRANCH  15  16
ENDBRANCH  14  15
ENDBRANCH  13  14
ENDBRANCH  12  13
ENDBRANCH  11  12
ENDBRANCH  10  11
ENDBRANCH   8   9
ENDBRANCH   7   8
ENDBRANCH   5   6
ENDBRANCH   4   5
ENDBRANCH   3   4
ENDBRANCH   2   3
TORSDOF 13
ENDMDL
MODEL      129
REMARK 921   NORMALIZED FREE ENERGY PREDICTED BY IDOCK:   -4.07 KCAL/MOL
REMARK 922        TOTAL FREE ENERGY PREDICTED BY IDOCK:   -8.90 KCAL/MOL
REMARK 923 INTER-LIGAND FREE ENERGY PREDICTED BY IDOCK:   -6.03 KCAL/MOL
REMARK 924 INTRA-LIGAND FREE ENERGY PREDICTED BY IDOCK:   -2.87 KCAL/MOL
REMARK 927      BINDING AFFINITY PREDICTED BY RF-SCORE:    0.00 PKD
ROOT
HETATM    1  C   UNL     1     -12.333  12.250  63.732  1.00  0.00    -0.637 C  
HETATM    2  C   UNL     1     -12.357  13.720  64.112  1.00  0.00    -0.382 C  
ENDROOT
BRANCH   2   3
HETATM    3  C   UNL     1     -11.723  13.944  65.479  1.00  0.00    -0.356 C  
BRANCH   3   4
HETATM    4  C   UNL     1     -10.265  14.378  65.347  1.00  0.00    -0.408 C  
BRANCH   4   5
HETATM    5  C   UNL     1      -9.413  13.628  66.362  1.00  0.00    -0.248 C  
BRANCH   5   6
HETATM    6  C   UNL     1      -9.477  12.138  66.208  1.00  0.00    -0.238 C  
HETATM    7  C   UNL     1      -9.847  11.325  67.210  1.00  0.00    -0.203 C  
BRANCH   7   8
HETATM    8  C   UNL     1     -10.207  11.792  68.590  1.00  0.00    -0.211 C  
BRANCH   8   9
HETATM    9  C   UNL     1     -11.687  11.983  68.745  1.00  0.00    -0.377 C  
HETATM   10  C   UNL     1     -12.258  13.112  69.194  1.00  0.00    -0.137 C  
BRANCH  10  11
HETATM   11  C   UNL     1     -11.457  14.305  69.620  1.00  0.00    -0.334 C  
BRANCH  11  12
HETATM   12  C   UNL     1     -11.731  15.541  68.779  1.00  0.00    -0.372 C  
BRANCH  12  13
HETATM   13  C   UNL     1     -10.462  16.384  68.679  1.00  0.00    -0.293 C  
BRANCH  13  14
HETATM   14  C   UNL     1      -9.314  15.712  69.417  1.00  0.00    -0.279 C  
BRANCH  14  15
HETATM   15  C   UNL     1      -7.979  15.973  68.726  1.00  0.00    -0.196 C  
BRANCH  15  16
HETATM   16  C   UNL     1      -8.133  17.073  67.679  1.00  0.00    -0.190 C  
BRANCH  16  17
HETATM   17  C   UNL     1      -7.012  18.102  67.772  1.00  0.00    -0.207 C  
HETATM   18  C   UNL     1      -7.454  19.330  68.530  1.00  0.00    -0.325 C  
HETATM   19  O   UNL     1      -8.557  19.508  69.019  1.00  0.00    -0.340 OA 
HETATM   20  O   UNL     1      -6.470  20.257  68.619  1.00  0.00    -0.297 OA 
ENDBRANCH  16  17
ENDBRANCH  15  16
ENDBRANCH  14  15
ENDBRANCH  13  14
ENDBRANCH  12  13
ENDBRANCH  11  12
ENDBRANCH  10  11
ENDBRANCH   8   9
ENDBRANCH   7   8
ENDBRANCH   5   6
ENDBRANCH   4   5
ENDBRANCH   3   4
ENDBRANCH   2   3
TORSDOF 13
ENDMDL
MODEL      130
REMARK 921   NORMALIZED FREE ENERGY PREDICTED BY IDOCK:   -4.06 KCAL/MOL
REMARK 922        TOTAL FREE ENERGY PREDICTED BY IDOCK:   -8.89 KCAL/MOL
REMARK 923 INTER-LIGAND FREE ENERGY PREDICTED BY IDOCK:   -6.99 KCAL/MOL
REMARK 924 INTRA-LIGAND FREE ENERGY PREDICTED BY IDOCK:   -1.90 KCAL/MOL
REMARK 927      BINDING AFFINITY PREDICTED BY RF-SCORE:    0.00 PKD
ROOT
HETATM    1  C   UNL     1      -6.845   8.682  63.644  1.00  0.00    -0.088 C  
HETATM    2  C   UNL     1      -8.220   8.159  64.020  1.00  0.00    -0.077 C  
ENDROOT
BRANCH   2   3
HETATM    3  C   UNL     1      -8.917   9.100  64.995  1.00  0.00    -0.221 C  
BRANCH   3   4
HETATM    4  C   UNL     1      -8.912  10.536  64.475  1.00  0.00    -0.231 C  
BRANCH   4   5
HETATM    5  C   UNL     1     -10.280  10.878  63.899  1.00  0.00    -0.418 C  
BRANCH   5   6
HETATM    6  C   UNL     1     -10.428  12.324  63.535  1.00  0.00    -0.459 C  
HETATM    7  C   UNL     1     -11.349  13.120  64.101  1.00  0.00    -0.440 C  
BRANCH   7   8
HETATM    8  C   UNL     1     -12.343  12.666  65.129  1.00  0.00    -0.547 C  
BRANCH   8   9
HETATM    9  C   UNL     1     -11.965  13.115  66.508  1.00  0.00    -0.459 C  
HETATM   10  C   UNL     1     -11.518  12.296  67.472  1.00  0.00    -0.414 C  
BRANCH  10  11
HETATM   11  C   UNL     1     -11.377  10.817  67.270  1.00  0.00    -0.173 C  
BRANCH  11  12
HETATM   12  C   UNL     1     -10.368  10.178  68.211  1.00  0.00    -0.215 C  
BRANCH  12  13
HETATM   13  C   UNL     1     -10.485  10.813  69.595  1.00  0.00    -0.183 C  
BRANCH  13  14
HETATM   14  C   UNL     1     -10.459   9.744  70.677  1.00  0.00    -0.358 C  
BRANCH  14  15
HETATM   15  C   UNL     1     -11.805   9.640  71.388  1.00  0.00    -0.484 C  
BRANCH  15  16
HETATM   16  C   UNL     1     -12.776  10.678  70.834  1.00  0.00    -0.498 C  
BRANCH  16  17
HETATM   17  C   UNL     1     -13.381  11.534  71.942  1.00  0.00    -0.408 C  
HETATM   18  C   UNL     1     -13.114  13.001  71.712  1.00  0.00    -0.373 C  
HETATM   19  O   UNL     1     -12.497  13.475  70.772  1.00  0.00    -0.351 OA 
HETATM   20  O   UNL     1     -13.642  13.776  72.689  1.00  0.00    -0.597 OA 
ENDBRANCH  16  17
ENDBRANCH  15  16
ENDBRANCH  14  15
ENDBRANCH  13  14
ENDBRANCH  12  13
ENDBRANCH  11  12
ENDBRANCH  10  11
ENDBRANCH   8   9
ENDBRANCH   7   8
ENDBRANCH   5   6
ENDBRANCH   4   5
ENDBRANCH   3   4
ENDBRANCH   2   3
TORSDOF 13
ENDMDL
MODEL      131
REMARK 921   NORMALIZED FREE ENERGY PREDICTED BY IDOCK:   -4.06 KCAL/MOL
REMARK 922        TOTAL FREE ENERGY PREDICTED BY IDOCK:   -8.89 KCAL/MOL
REMARK 923 INTER-LIGAND FREE ENERGY PREDICTED BY IDOCK:   -7.40 KCAL/MOL
REMARK 924 INTRA-LIGAND FREE ENERGY PREDICTED BY IDOCK:   -1.49 KCAL/MOL
REMARK 927      BINDING AFFINITY PREDICTED BY RF-SCORE:    0.00 PKD
ROOT
HETATM    1  C   UNL     1     -10.963  11.482  63.783  1.00  0.00    -0.485 C  
HETATM    2  C   UNL     1     -11.939  12.590  63.427  1.00  0.00    -0.602 C  
ENDROOT
BRANCH   2   3
HETATM    3  C   UNL     1     -11.985  13.653  64.516  1.00  0.00    -0.454 C  
BRANCH   3   4
HETATM    4  C   UNL     1     -12.414  13.055  65.854  1.00  0.00    -0.323 C  
BRANCH   4   5
HETATM    5  C   UNL     1     -11.786  13.845  66.994  1.00  0.00    -0.447 C  
BRANCH   5   6
HETATM    6  C   UNL     1     -10.588  14.642  66.576  1.00  0.00    -0.300 C  
HETATM    7  C   UNL     1     -10.318  15.857  67.080  1.00  0.00    -0.300 C  
BRANCH   7   8
HETATM    8  C   UNL     1     -11.177  16.566  68.084  1.00  0.00    -0.241 C  
BRANCH   8   9
HETATM    9  C   UNL     1     -10.550  16.580  69.446  1.00  0.00    -0.329 C  
HETATM   10  C   UNL     1     -11.073  15.976  70.524  1.00  0.00    -0.370 C  
BRANCH  10  11
HETATM   11  C   UNL     1     -12.378  15.239  70.479  1.00  0.00    -0.434 C  
BRANCH  11  12
HETATM   12  C   UNL     1     -12.479  14.138  71.522  1.00  0.00    -0.423 C  
BRANCH  12  13
HETATM   13  C   UNL     1     -12.411  12.775  70.836  1.00  0.00    -0.373 C  
BRANCH  13  14
HETATM   14  C   UNL     1     -13.009  11.698  71.730  1.00  0.00    -0.483 C  
BRANCH  14  15
HETATM   15  C   UNL     1     -12.546  10.306  71.308  1.00  0.00    -0.522 C  
BRANCH  15  16
HETATM   16  C   UNL     1     -11.164  10.382  70.666  1.00  0.00    -0.358 C  
BRANCH  16  17
HETATM   17  C   UNL     1     -10.245   9.274  71.171  1.00  0.00    -0.387 C  
HETATM   18  C   UNL     1     -10.047   8.204  70.126  1.00  0.00    -0.194 C  
HETATM   19  O   UNL     1     -10.543   8.195  69.011  1.00  0.00    -0.215 OA 
HETATM   20  O   UNL     1      -9.235   7.210  70.559  1.00  0.00    -0.158 OA 
ENDBRANCH  16  17
ENDBRANCH  15  16
ENDBRANCH  14  15
ENDBRANCH  13  14
ENDBRANCH  12  13
ENDBRANCH  11  12
ENDBRANCH  10  11
ENDBRANCH   8   9
ENDBRANCH   7   8
ENDBRANCH   5   6
ENDBRANCH   4   5
ENDBRANCH   3   4
ENDBRANCH   2   3
TORSDOF 13
ENDMDL
MODEL      132
REMARK 921   NORMALIZED FREE ENERGY PREDICTED BY IDOCK:   -4.05 KCAL/MOL
REMARK 922        TOTAL FREE ENERGY PREDICTED BY IDOCK:   -8.88 KCAL/MOL
REMARK 923 INTER-LIGAND FREE ENERGY PREDICTED BY IDOCK:   -7.17 KCAL/MOL
REMARK 924 INTRA-LIGAND FREE ENERGY PREDICTED BY IDOCK:   -1.71 KCAL/MOL
REMARK 927      BINDING AFFINITY PREDICTED BY RF-SCORE:    0.00 PKD
ROOT
HETATM    1  C   UNL     1     -11.309   3.106  73.457  1.00  0.00    -0.237 C  
HETATM    2  C   UNL     1     -11.179   4.606  73.262  1.00  0.00    -0.411 C  
ENDROOT
BRANCH   2   3
HETATM    3  C   UNL     1      -9.718   5.036  73.262  1.00  0.00    -0.161 C  
BRANCH   3   4
HETATM    4  C   UNL     1      -9.545   6.405  73.916  1.00  0.00    -0.199 C  
BRANCH   4   5
HETATM    5  C   UNL     1     -10.634   7.349  73.424  1.00  0.00    -0.427 C  
BRANCH   5   6
HETATM    6  C   UNL     1     -10.160   8.312  72.378  1.00  0.00    -0.383 C  
HETATM    7  C   UNL     1     -10.577   8.256  71.103  1.00  0.00    -0.258 C  
BRANCH   7   8
HETATM    8  C   UNL     1     -11.528   7.226  70.569  1.00  0.00    -0.310 C  
BRANCH   8   9
HETATM    9  C   UNL     1     -10.806   6.078  69.931  1.00  0.00    -0.434 C  
HETATM   10  C   UNL     1     -10.463   6.029  68.634  1.00  0.00    -0.297 C  
BRANCH  10  11
HETATM   11  C   UNL     1     -10.800   7.126  67.671  1.00  0.00    -0.279 C  
BRANCH  11  12
HETATM   12  C   UNL     1      -9.674   8.131  67.491  1.00  0.00    -0.207 C  
BRANCH  12  13
HETATM   13  C   UNL     1     -10.219   9.400  66.837  1.00  0.00    -0.318 C  
BRANCH  13  14
HETATM   14  C   UNL     1     -10.949  10.256  67.861  1.00  0.00    -0.350 C  
BRANCH  14  15
HETATM   15  C   UNL     1     -11.260  11.643  67.305  1.00  0.00    -0.365 C  
BRANCH  15  16
HETATM   16  C   UNL     1     -10.852  11.727  65.837  1.00  0.00    -0.339 C  
BRANCH  16  17
HETATM   17  C   UNL     1     -10.995  13.143  65.292  1.00  0.00    -0.304 C  
HETATM   18  C   UNL     1     -12.371  13.377  64.718  1.00  0.00    -0.396 C  
HETATM   19  O   UNL     1     -13.276  12.559  64.681  1.00  0.00    -0.848 OA 
HETATM   20  O   UNL     1     -12.514  14.631  64.226  1.00  0.00    -0.648 OA 
ENDBRANCH  16  17
ENDBRANCH  15  16
ENDBRANCH  14  15
ENDBRANCH  13  14
ENDBRANCH  12  13
ENDBRANCH  11  12
ENDBRANCH  10  11
ENDBRANCH   8   9
ENDBRANCH   7   8
ENDBRANCH   5   6
ENDBRANCH   4   5
ENDBRANCH   3   4
ENDBRANCH   2   3
TORSDOF 13
ENDMDL
MODEL      133
REMARK 921   NORMALIZED FREE ENERGY PREDICTED BY IDOCK:   -4.04 KCAL/MOL
REMARK 922        TOTAL FREE ENERGY PREDICTED BY IDOCK:   -8.86 KCAL/MOL
REMARK 923 INTER-LIGAND FREE ENERGY PREDICTED BY IDOCK:   -6.88 KCAL/MOL
REMARK 924 INTRA-LIGAND FREE ENERGY PREDICTED BY IDOCK:   -1.98 KCAL/MOL
REMARK 927      BINDING AFFINITY PREDICTED BY RF-SCORE:    0.00 PKD
ROOT
HETATM    1  C   UNL     1     -10.389  19.908  68.201  1.00  0.00    -0.533 C  
HETATM    2  C   UNL     1     -10.459  19.540  66.729  1.00  0.00    -0.590 C  
ENDROOT
BRANCH   2   3
HETATM    3  C   UNL     1      -9.167  19.906  66.010  1.00  0.00    -0.345 C  
BRANCH   3   4
HETATM    4  C   UNL     1      -8.101  20.379  66.996  1.00  0.00    -0.351 C  
BRANCH   4   5
HETATM    5  C   UNL     1      -6.922  19.416  66.977  1.00  0.00    -0.212 C  
BRANCH   5   6
HETATM    6  C   UNL     1      -6.441  19.037  68.345  1.00  0.00    -0.255 C  
HETATM    7  C   UNL     1      -6.945  17.994  69.024  1.00  0.00    -0.252 C  
BRANCH   7   8
HETATM    8  C   UNL     1      -8.050  17.112  68.522  1.00  0.00    -0.260 C  
BRANCH   8   9
HETATM    9  C   UNL     1      -7.529  15.806  68.001  1.00  0.00    -0.136 C  
HETATM   10  C   UNL     1      -7.982  15.201  66.893  1.00  0.00    -0.155 C  
BRANCH  10  11
HETATM   11  C   UNL     1      -9.096  15.767  66.065  1.00  0.00    -0.361 C  
BRANCH  11  12
HETATM   12  C   UNL     1     -10.460  15.203  66.431  1.00  0.00    -0.300 C  
BRANCH  12  13
HETATM   13  C   UNL     1     -10.295  13.804  67.018  1.00  0.00    -0.260 C  
BRANCH  13  14
HETATM   14  C   UNL     1     -11.603  13.322  67.627  1.00  0.00    -0.386 C  
BRANCH  14  15
HETATM   15  C   UNL     1     -11.477  13.127  69.135  1.00  0.00    -0.358 C  
BRANCH  15  16
HETATM   16  C   UNL     1     -11.556  14.473  69.849  1.00  0.00    -0.340 C  
BRANCH  16  17
HETATM   17  C   UNL     1     -12.775  14.558  70.760  1.00  0.00    -0.425 C  
HETATM   18  C   UNL     1     -12.563  15.558  71.871  1.00  0.00    -0.405 C  
HETATM   19  O   UNL     1     -11.559  16.227  72.046  1.00  0.00    -0.457 OA 
HETATM   20  O   UNL     1     -13.637  15.644  72.693  1.00  0.00    -0.500 OA 
ENDBRANCH  16  17
ENDBRANCH  15  16
ENDBRANCH  14  15
ENDBRANCH  13  14
ENDBRANCH  12  13
ENDBRANCH  11  12
ENDBRANCH  10  11
ENDBRANCH   8   9
ENDBRANCH   7   8
ENDBRANCH   5   6
ENDBRANCH   4   5
ENDBRANCH   3   4
ENDBRANCH   2   3
TORSDOF 13
ENDMDL
MODEL      134
REMARK 921   NORMALIZED FREE ENERGY PREDICTED BY IDOCK:   -4.04 KCAL/MOL
REMARK 922        TOTAL FREE ENERGY PREDICTED BY IDOCK:   -8.85 KCAL/MOL
REMARK 923 INTER-LIGAND FREE ENERGY PREDICTED BY IDOCK:   -6.46 KCAL/MOL
REMARK 924 INTRA-LIGAND FREE ENERGY PREDICTED BY IDOCK:   -2.40 KCAL/MOL
REMARK 927      BINDING AFFINITY PREDICTED BY RF-SCORE:    0.00 PKD
ROOT
HETATM    1  C   UNL     1     -12.691  12.495  64.616  1.00  0.00    -0.434 C  
HETATM    2  C   UNL     1     -11.972  12.594  63.283  1.00  0.00    -0.526 C  
ENDROOT
BRANCH   2   3
HETATM    3  C   UNL     1     -10.485  12.303  63.438  1.00  0.00    -0.408 C  
BRANCH   3   4
HETATM    4  C   UNL     1     -10.246  10.849  63.842  1.00  0.00    -0.418 C  
BRANCH   4   5
HETATM    5  C   UNL     1      -9.269  10.795  65.009  1.00  0.00    -0.241 C  
BRANCH   5   6
HETATM    6  C   UNL     1      -8.984   9.402  65.482  1.00  0.00    -0.248 C  
HETATM    7  C   UNL     1      -9.721   8.795  66.425  1.00  0.00    -0.335 C  
BRANCH   7   8
HETATM    8  C   UNL     1     -10.884   9.430  67.130  1.00  0.00    -0.132 C  
BRANCH   8   9
HETATM    9  C   UNL     1     -10.635   9.571  68.602  1.00  0.00    -0.239 C  
HETATM   10  C   UNL     1     -10.306  10.724  69.204  1.00  0.00    -0.238 C  
BRANCH  10  11
HETATM   11  C   UNL     1     -10.124  12.004  68.446  1.00  0.00    -0.211 C  
BRANCH  11  12
HETATM   12  C   UNL     1     -11.400  12.823  68.338  1.00  0.00    -0.331 C  
BRANCH  12  13
HETATM   13  C   UNL     1     -11.224  13.908  67.278  1.00  0.00    -0.329 C  
BRANCH  13  14
HETATM   14  C   UNL     1      -9.781  13.955  66.796  1.00  0.00    -0.282 C  
BRANCH  14  15
HETATM   15  C   UNL     1      -9.549  15.131  65.851  1.00  0.00    -0.373 C  
BRANCH  15  16
HETATM   16  C   UNL     1     -10.760  16.059  65.856  1.00  0.00    -0.287 C  
BRANCH  16  17
HETATM   17  C   UNL     1     -10.359  17.507  66.115  1.00  0.00    -0.330 C  
HETATM   18  C   UNL     1     -10.512  17.870  67.572  1.00  0.00    -0.390 C  
HETATM   19  O   UNL     1     -10.903  17.124  68.455  1.00  0.00    -0.349 OA 
HETATM   20  O   UNL     1     -10.163  19.155  67.819  1.00  0.00    -0.357 OA 
ENDBRANCH  16  17
ENDBRANCH  15  16
ENDBRANCH  14  15
ENDBRANCH  13  14
ENDBRANCH  12  13
ENDBRANCH  11  12
ENDBRANCH  10  11
ENDBRANCH   8   9
ENDBRANCH   7   8
ENDBRANCH   5   6
ENDBRANCH   4   5
ENDBRANCH   3   4
ENDBRANCH   2   3
TORSDOF 13
ENDMDL
MODEL      135
REMARK 921   NORMALIZED FREE ENERGY PREDICTED BY IDOCK:   -4.03 KCAL/MOL
REMARK 922        TOTAL FREE ENERGY PREDICTED BY IDOCK:   -8.84 KCAL/MOL
REMARK 923 INTER-LIGAND FREE ENERGY PREDICTED BY IDOCK:   -7.07 KCAL/MOL
REMARK 924 INTRA-LIGAND FREE ENERGY PREDICTED BY IDOCK:   -1.76 KCAL/MOL
REMARK 927      BINDING AFFINITY PREDICTED BY RF-SCORE:    0.00 PKD
ROOT
HETATM    1  C   UNL     1     -13.509   9.268  72.169  1.00  0.00    -0.539 C  
HETATM    2  C   UNL     1     -12.243   8.658  71.594  1.00  0.00    -0.388 C  
ENDROOT
BRANCH   2   3
HETATM    3  C   UNL     1     -12.449   7.190  71.245  1.00  0.00    -0.425 C  
BRANCH   3   4
HETATM    4  C   UNL     1     -11.356   6.687  70.304  1.00  0.00    -0.431 C  
BRANCH   4   5
HETATM    5  C   UNL     1     -10.750   7.862  69.548  1.00  0.00    -0.195 C  
BRANCH   5   6
HETATM    6  C   UNL     1     -10.387   7.534  68.131  1.00  0.00    -0.244 C  
HETATM    7  C   UNL     1     -10.350   8.462  67.162  1.00  0.00    -0.381 C  
BRANCH   7   8
HETATM    8  C   UNL     1     -10.689   9.910  67.364  1.00  0.00    -0.323 C  
BRANCH   8   9
HETATM    9  C   UNL     1      -9.609  10.813  66.848  1.00  0.00    -0.198 C  
HETATM   10  C   UNL     1      -9.585  11.328  65.609  1.00  0.00    -0.260 C  
BRANCH  10  11
HETATM   11  C   UNL     1     -10.641  11.023  64.590  1.00  0.00    -0.369 C  
BRANCH  11  12
HETATM   12  C   UNL     1     -11.059  12.239  63.779  1.00  0.00    -0.507 C  
BRANCH  12  13
HETATM   13  C   UNL     1     -12.296  12.875  64.409  1.00  0.00    -0.468 C  
BRANCH  13  14
HETATM   14  C   UNL     1     -12.089  14.370  64.604  1.00  0.00    -0.485 C  
BRANCH  14  15
HETATM   15  C   UNL     1     -11.406  14.668  65.935  1.00  0.00    -0.338 C  
BRANCH  15  16
HETATM   16  C   UNL     1     -12.066  13.871  67.057  1.00  0.00    -0.451 C  
BRANCH  16  17
HETATM   17  C   UNL     1     -11.205  13.848  68.315  1.00  0.00    -0.298 C  
HETATM   18  C   UNL     1     -11.482  15.044  69.194  1.00  0.00    -0.301 C  
HETATM   19  O   UNL     1     -12.284  15.932  68.958  1.00  0.00    -0.253 OA 
HETATM   20  O   UNL     1     -10.723  15.040  70.316  1.00  0.00    -0.218 OA 
ENDBRANCH  16  17
ENDBRANCH  15  16
ENDBRANCH  14  15
ENDBRANCH  13  14
ENDBRANCH  12  13
ENDBRANCH  11  12
ENDBRANCH  10  11
ENDBRANCH   8   9
ENDBRANCH   7   8
ENDBRANCH   5   6
ENDBRANCH   4   5
ENDBRANCH   3   4
ENDBRANCH   2   3
TORSDOF 13
ENDMDL
MODEL      136
REMARK 921   NORMALIZED FREE ENERGY PREDICTED BY IDOCK:   -4.02 KCAL/MOL
REMARK 922        TOTAL FREE ENERGY PREDICTED BY IDOCK:   -8.82 KCAL/MOL
REMARK 923 INTER-LIGAND FREE ENERGY PREDICTED BY IDOCK:   -6.64 KCAL/MOL
REMARK 924 INTRA-LIGAND FREE ENERGY PREDICTED BY IDOCK:   -2.17 KCAL/MOL
REMARK 927      BINDING AFFINITY PREDICTED BY RF-SCORE:    0.00 PKD
ROOT
HETATM    1  C   UNL     1      -6.149  10.942  67.711  1.00  0.00    -0.046 C  
HETATM    2  C   UNL     1      -7.383  11.724  68.125  1.00  0.00    -0.094 C  
ENDROOT
BRANCH   2   3
HETATM    3  C   UNL     1      -8.258  10.910  69.069  1.00  0.00    -0.126 C  
BRANCH   3   4
HETATM    4  C   UNL     1      -9.231  10.024  68.293  1.00  0.00    -0.129 C  
BRANCH   4   5
HETATM    5  C   UNL     1      -9.772   8.933  69.208  1.00  0.00    -0.165 C  
BRANCH   5   6
HETATM    6  C   UNL     1      -9.421   9.138  70.651  1.00  0.00    -0.316 C  
HETATM    7  C   UNL     1     -10.311   8.971  71.641  1.00  0.00    -0.420 C  
BRANCH   7   8
HETATM    8  C   UNL     1     -11.748   8.594  71.432  1.00  0.00    -0.355 C  
BRANCH   8   9
HETATM    9  C   UNL     1     -12.682   9.582  72.063  1.00  0.00    -0.479 C  
HETATM   10  C   UNL     1     -13.035  10.750  71.504  1.00  0.00    -0.562 C  
BRANCH  10  11
HETATM   11  C   UNL     1     -12.497  11.204  70.181  1.00  0.00    -0.316 C  
BRANCH  11  12
HETATM   12  C   UNL     1     -11.913  12.606  70.222  1.00  0.00    -0.363 C  
BRANCH  12  13
HETATM   13  C   UNL     1     -11.971  13.227  68.828  1.00  0.00    -0.335 C  
BRANCH  13  14
HETATM   14  C   UNL     1     -10.580  13.633  68.365  1.00  0.00    -0.260 C  
BRANCH  14  15
HETATM   15  C   UNL     1     -10.565  13.966  66.876  1.00  0.00    -0.280 C  
BRANCH  15  16
HETATM   16  C   UNL     1     -10.609  12.685  66.048  1.00  0.00    -0.294 C  
BRANCH  16  17
HETATM   17  C   UNL     1     -11.953  12.511  65.348  1.00  0.00    -0.492 C  
HETATM   18  C   UNL     1     -11.777  12.284  63.867  1.00  0.00    -0.451 C  
HETATM   19  O   UNL     1     -10.712  12.240  63.274  1.00  0.00    -0.427 OA 
HETATM   20  O   UNL     1     -12.962  12.131  63.228  1.00  0.00    -0.735 OA 
ENDBRANCH  16  17
ENDBRANCH  15  16
ENDBRANCH  14  15
ENDBRANCH  13  14
ENDBRANCH  12  13
ENDBRANCH  11  12
ENDBRANCH  10  11
ENDBRANCH   8   9
ENDBRANCH   7   8
ENDBRANCH   5   6
ENDBRANCH   4   5
ENDBRANCH   3   4
ENDBRANCH   2   3
TORSDOF 13
ENDMDL
MODEL      137
REMARK 921   NORMALIZED FREE ENERGY PREDICTED BY IDOCK:   -4.02 KCAL/MOL
REMARK 922        TOTAL FREE ENERGY PREDICTED BY IDOCK:   -8.81 KCAL/MOL
REMARK 923 INTER-LIGAND FREE ENERGY PREDICTED BY IDOCK:   -6.91 KCAL/MOL
REMARK 924 INTRA-LIGAND FREE ENERGY PREDICTED BY IDOCK:   -1.91 KCAL/MOL
REMARK 927      BINDING AFFINITY PREDICTED BY RF-SCORE:    0.00 PKD
ROOT
HETATM    1  C   UNL     1      -9.502   7.869  66.524  1.00  0.00    -0.277 C  
HETATM    2  C   UNL     1     -10.295   6.979  67.464  1.00  0.00    -0.288 C  
ENDROOT
BRANCH   2   3
HETATM    3  C   UNL     1     -10.436   7.619  68.839  1.00  0.00    -0.211 C  
BRANCH   3   4
HETATM    4  C   UNL     1      -9.278   8.572  69.126  1.00  0.00    -0.150 C  
BRANCH   4   5
HETATM    5  C   UNL     1      -9.772   9.742  69.966  1.00  0.00    -0.292 C  
BRANCH   5   6
HETATM    6  C   UNL     1     -11.237  10.015  69.802  1.00  0.00    -0.307 C  
HETATM    7  C   UNL     1     -11.705  10.990  69.007  1.00  0.00    -0.402 C  
BRANCH   7   8
HETATM    8  C   UNL     1     -10.839  11.927  68.218  1.00  0.00    -0.261 C  
BRANCH   8   9
HETATM    9  C   UNL     1     -10.438  11.339  66.898  1.00  0.00    -0.286 C  
HETATM   10  C   UNL     1     -11.007  11.660  65.726  1.00  0.00    -0.329 C  
BRANCH  10  11
HETATM   11  C   UNL     1     -12.141  12.635  65.621  1.00  0.00    -0.502 C  
BRANCH  11  12
HETATM   12  C   UNL     1     -11.974  13.628  64.482  1.00  0.00    -0.454 C  
BRANCH  12  13
HETATM   13  C   UNL     1     -11.103  14.795  64.943  1.00  0.00    -0.416 C  
BRANCH  13  14
HETATM   14  C   UNL     1     -11.278  15.035  66.435  1.00  0.00    -0.310 C  
BRANCH  14  15
HETATM   15  C   UNL     1      -9.951  15.392  67.100  1.00  0.00    -0.234 C  
BRANCH  15  16
HETATM   16  C   UNL     1      -9.237  16.478  66.302  1.00  0.00    -0.345 C  
BRANCH  16  17
HETATM   17  C   UNL     1      -9.492  17.865  66.883  1.00  0.00    -0.279 C  
HETATM   18  C   UNL     1     -10.471  18.644  66.040  1.00  0.00    -0.414 C  
HETATM   19  O   UNL     1     -11.008  18.246  65.019  1.00  0.00    -0.684 OA 
HETATM   20  O   UNL     1     -10.707  19.881  66.541  1.00  0.00    -0.463 OA 
ENDBRANCH  16  17
ENDBRANCH  15  16
ENDBRANCH  14  15
ENDBRANCH  13  14
ENDBRANCH  12  13
ENDBRANCH  11  12
ENDBRANCH  10  11
ENDBRANCH   8   9
ENDBRANCH   7   8
ENDBRANCH   5   6
ENDBRANCH   4   5
ENDBRANCH   3   4
ENDBRANCH   2   3
TORSDOF 13
ENDMDL
MODEL      138
REMARK 921   NORMALIZED FREE ENERGY PREDICTED BY IDOCK:   -4.01 KCAL/MOL
REMARK 922        TOTAL FREE ENERGY PREDICTED BY IDOCK:   -8.81 KCAL/MOL
REMARK 923 INTER-LIGAND FREE ENERGY PREDICTED BY IDOCK:   -7.44 KCAL/MOL
REMARK 924 INTRA-LIGAND FREE ENERGY PREDICTED BY IDOCK:   -1.36 KCAL/MOL
REMARK 927      BINDING AFFINITY PREDICTED BY RF-SCORE:    0.00 PKD
ROOT
HETATM    1  C   UNL     1      -9.519   6.028  69.504  1.00  0.00    -0.161 C  
HETATM    2  C   UNL     1     -10.975   5.869  69.907  1.00  0.00    -0.444 C  
ENDROOT
BRANCH   2   3
HETATM    3  C   UNL     1     -11.450   7.060  70.729  1.00  0.00    -0.360 C  
BRANCH   3   4
HETATM    4  C   UNL     1     -10.322   8.066  70.947  1.00  0.00    -0.221 C  
BRANCH   4   5
HETATM    5  C   UNL     1     -10.883   9.338  71.567  1.00  0.00    -0.442 C  
BRANCH   5   6
HETATM    6  C   UNL     1     -12.375   9.442  71.467  1.00  0.00    -0.452 C  
HETATM    7  C   UNL     1     -12.989  10.482  70.882  1.00  0.00    -0.455 C  
BRANCH   7   8
HETATM    8  C   UNL     1     -12.275  11.662  70.290  1.00  0.00    -0.401 C  
BRANCH   8   9
HETATM    9  C   UNL     1     -11.895  11.424  68.860  1.00  0.00    -0.413 C  
HETATM   10  C   UNL     1     -11.649  12.400  67.972  1.00  0.00    -0.403 C  
BRANCH  10  11
HETATM   11  C   UNL     1     -11.760  13.853  68.323  1.00  0.00    -0.396 C  
BRANCH  11  12
HETATM   12  C   UNL     1     -10.801  14.733  67.538  1.00  0.00    -0.287 C  
BRANCH  12  13
HETATM   13  C   UNL     1     -10.191  13.930  66.392  1.00  0.00    -0.292 C  
BRANCH  13  14
HETATM   14  C   UNL     1     -10.611  14.511  65.049  1.00  0.00    -0.458 C  
BRANCH  14  15
HETATM   15  C   UNL     1     -11.865  13.824  64.515  1.00  0.00    -0.445 C  
BRANCH  15  16
HETATM   16  C   UNL     1     -11.495  12.828  63.421  1.00  0.00    -0.454 C  
BRANCH  16  17
HETATM   17  C   UNL     1     -11.115  11.469  63.999  1.00  0.00    -0.441 C  
HETATM   18  C   UNL     1      -9.807  10.975  63.431  1.00  0.00    -0.363 C  
HETATM   19  O   UNL     1      -9.118  11.562  62.613  1.00  0.00    -0.322 OA 
HETATM   20  O   UNL     1      -9.455   9.767  63.932  1.00  0.00    -0.232 OA 
ENDBRANCH  16  17
ENDBRANCH  15  16
ENDBRANCH  14  15
ENDBRANCH  13  14
ENDBRANCH  12  13
ENDBRANCH  11  12
ENDBRANCH  10  11
ENDBRANCH   8   9
ENDBRANCH   7   8
ENDBRANCH   5   6
ENDBRANCH   4   5
ENDBRANCH   3   4
ENDBRANCH   2   3
TORSDOF 13
ENDMDL
MODEL      139
REMARK 921   NORMALIZED FREE ENERGY PREDICTED BY IDOCK:   -4.01 KCAL/MOL
REMARK 922        TOTAL FREE ENERGY PREDICTED BY IDOCK:   -8.80 KCAL/MOL
REMARK 923 INTER-LIGAND FREE ENERGY PREDICTED BY IDOCK:   -6.52 KCAL/MOL
REMARK 924 INTRA-LIGAND FREE ENERGY PREDICTED BY IDOCK:   -2.28 KCAL/MOL
REMARK 927      BINDING AFFINITY PREDICTED BY RF-SCORE:    0.00 PKD
ROOT
HETATM    1  C   UNL     1     -12.480  12.554  64.801  1.00  0.00    -0.532 C  
HETATM    2  C   UNL     1     -11.345  11.870  64.061  1.00  0.00    -0.475 C  
ENDROOT
BRANCH   2   3
HETATM    3  C   UNL     1     -10.152  11.636  64.979  1.00  0.00    -0.305 C  
BRANCH   3   4
HETATM    4  C   UNL     1     -10.064  10.173  65.408  1.00  0.00    -0.342 C  
BRANCH   4   5
HETATM    5  C   UNL     1     -10.470  10.042  66.870  1.00  0.00    -0.284 C  
BRANCH   5   6
HETATM    6  C   UNL     1      -9.985  11.173  67.725  1.00  0.00    -0.193 C  
HETATM    7  C   UNL     1     -10.629  11.565  68.836  1.00  0.00    -0.236 C  
BRANCH   7   8
HETATM    8  C   UNL     1     -11.903  10.951  69.336  1.00  0.00    -0.400 C  
BRANCH   8   9
HETATM    9  C   UNL     1     -12.340  11.553  70.638  1.00  0.00    -0.457 C  
HETATM   10  C   UNL     1     -12.988  10.880  71.601  1.00  0.00    -0.569 C  
BRANCH  10  11
HETATM   11  C   UNL     1     -13.374   9.439  71.456  1.00  0.00    -0.458 C  
BRANCH  11  12
HETATM   12  C   UNL     1     -12.280   8.480  71.897  1.00  0.00    -0.411 C  
BRANCH  12  13
HETATM   13  C   UNL     1     -12.610   7.069  71.413  1.00  0.00    -0.428 C  
BRANCH  13  14
HETATM   14  C   UNL     1     -11.461   6.504  70.592  1.00  0.00    -0.433 C  
BRANCH  14  15
HETATM   15  C   UNL     1     -10.908   7.542  69.620  1.00  0.00    -0.210 C  
BRANCH  15  16
HETATM   16  C   UNL     1      -9.382   7.518  69.635  1.00  0.00    -0.153 C  
BRANCH  16  17
HETATM   17  C   UNL     1      -8.809   8.633  70.504  1.00  0.00    -0.182 C  
HETATM   18  C   UNL     1      -7.661   9.331  69.817  1.00  0.00    -0.082 C  
HETATM   19  O   UNL     1      -7.223   9.064  68.710  1.00  0.00    -0.072 OA 
HETATM   20  O   UNL     1      -7.137  10.323  70.577  1.00  0.00    -0.298 OA 
ENDBRANCH  16  17
ENDBRANCH  15  16
ENDBRANCH  14  15
ENDBRANCH  13  14
ENDBRANCH  12  13
ENDBRANCH  11  12
ENDBRANCH  10  11
ENDBRANCH   8   9
ENDBRANCH   7   8
ENDBRANCH   5   6
ENDBRANCH   4   5
ENDBRANCH   3   4
ENDBRANCH   2   3
TORSDOF 13
ENDMDL
MODEL      140
REMARK 921   NORMALIZED FREE ENERGY PREDICTED BY IDOCK:   -4.01 KCAL/MOL
REMARK 922        TOTAL FREE ENERGY PREDICTED BY IDOCK:   -8.80 KCAL/MOL
REMARK 923 INTER-LIGAND FREE ENERGY PREDICTED BY IDOCK:   -6.86 KCAL/MOL
REMARK 924 INTRA-LIGAND FREE ENERGY PREDICTED BY IDOCK:   -1.93 KCAL/MOL
REMARK 927      BINDING AFFINITY PREDICTED BY RF-SCORE:    0.00 PKD
ROOT
HETATM    1  C   UNL     1     -10.761  19.497  66.394  1.00  0.00    -0.528 C  
HETATM    2  C   UNL     1     -10.075  18.632  67.436  1.00  0.00    -0.397 C  
ENDROOT
BRANCH   2   3
HETATM    3  C   UNL     1     -10.881  17.371  67.722  1.00  0.00    -0.257 C  
BRANCH   3   4
HETATM    4  C   UNL     1     -10.073  16.375  68.551  1.00  0.00    -0.248 C  
BRANCH   4   5
HETATM    5  C   UNL     1     -10.232  14.977  67.970  1.00  0.00    -0.228 C  
BRANCH   5   6
HETATM    6  C   UNL     1     -11.642  14.652  67.577  1.00  0.00    -0.396 C  
HETATM    7  C   UNL     1     -11.939  13.716  66.662  1.00  0.00    -0.458 C  
BRANCH   7   8
HETATM    8  C   UNL     1     -10.917  12.913  65.912  1.00  0.00    -0.300 C  
BRANCH   8   9
HETATM    9  C   UNL     1     -11.116  11.439  66.103  1.00  0.00    -0.259 C  
HETATM   10  C   UNL     1     -10.385  10.680  66.934  1.00  0.00    -0.288 C  
BRANCH  10  11
HETATM   11  C   UNL     1      -9.255  11.237  67.747  1.00  0.00    -0.156 C  
BRANCH  11  12
HETATM   12  C   UNL     1      -9.209  10.687  69.163  1.00  0.00    -0.162 C  
BRANCH  12  13
HETATM   13  C   UNL     1     -10.362   9.707  69.370  1.00  0.00    -0.226 C  
BRANCH  13  14
HETATM   14  C   UNL     1     -11.278  10.188  70.485  1.00  0.00    -0.411 C  
BRANCH  14  15
HETATM   15  C   UNL     1     -12.260  11.242  69.982  1.00  0.00    -0.389 C  
BRANCH  15  16
HETATM   16  C   UNL     1     -12.725  12.124  71.137  1.00  0.00    -0.351 C  
BRANCH  16  17
HETATM   17  C   UNL     1     -12.512  13.604  70.838  1.00  0.00    -0.448 C  
HETATM   18  C   UNL     1     -12.867  14.463  72.027  1.00  0.00    -0.343 C  
HETATM   19  O   UNL     1     -13.275  14.057  73.103  1.00  0.00    -0.589 OA 
HETATM   20  O   UNL     1     -12.686  15.782  71.778  1.00  0.00    -0.426 OA 
ENDBRANCH  16  17
ENDBRANCH  15  16
ENDBRANCH  14  15
ENDBRANCH  13  14
ENDBRANCH  12  13
ENDBRANCH  11  12
ENDBRANCH  10  11
ENDBRANCH   8   9
ENDBRANCH   7   8
ENDBRANCH   5   6
ENDBRANCH   4   5
ENDBRANCH   3   4
ENDBRANCH   2   3
TORSDOF 13
ENDMDL
MODEL      141
REMARK 921   NORMALIZED FREE ENERGY PREDICTED BY IDOCK:   -4.00 KCAL/MOL
REMARK 922        TOTAL FREE ENERGY PREDICTED BY IDOCK:   -8.79 KCAL/MOL
REMARK 923 INTER-LIGAND FREE ENERGY PREDICTED BY IDOCK:   -7.04 KCAL/MOL
REMARK 924 INTRA-LIGAND FREE ENERGY PREDICTED BY IDOCK:   -1.76 KCAL/MOL
REMARK 927      BINDING AFFINITY PREDICTED BY RF-SCORE:    0.00 PKD
ROOT
HETATM    1  C   UNL     1      -7.180   8.262  64.203  1.00  0.00    -0.089 C  
HETATM    2  C   UNL     1      -8.387   8.225  65.123  1.00  0.00    -0.167 C  
ENDROOT
BRANCH   2   3
HETATM    3  C   UNL     1      -8.256   9.248  66.244  1.00  0.00    -0.107 C  
BRANCH   3   4
HETATM    4  C   UNL     1      -8.824  10.602  65.824  1.00  0.00    -0.198 C  
BRANCH   4   5
HETATM    5  C   UNL     1     -10.000  10.394  64.879  1.00  0.00    -0.409 C  
BRANCH   5   6
HETATM    6  C   UNL     1      -9.892  11.185  63.611  1.00  0.00    -0.387 C  
HETATM    7  C   UNL     1     -10.879  11.983  63.171  1.00  0.00    -0.275 C  
BRANCH   7   8
HETATM    8  C   UNL     1     -12.197  12.158  63.865  1.00  0.00    -0.587 C  
BRANCH   8   9
HETATM    9  C   UNL     1     -12.411  13.575  64.307  1.00  0.00    -0.392 C  
HETATM   10  C   UNL     1     -12.284  13.996  65.575  1.00  0.00    -0.455 C  
BRANCH  10  11
HETATM   11  C   UNL     1     -11.939  13.068  66.701  1.00  0.00    -0.453 C  
BRANCH  11  12
HETATM   12  C   UNL     1     -10.503  13.214  67.177  1.00  0.00    -0.247 C  
BRANCH  12  13
HETATM   13  C   UNL     1     -10.372  12.649  68.590  1.00  0.00    -0.192 C  
BRANCH  13  14
HETATM   14  C   UNL     1     -11.706  12.098  69.071  1.00  0.00    -0.377 C  
BRANCH  14  15
HETATM   15  C   UNL     1     -12.104  12.699  70.416  1.00  0.00    -0.381 C  
BRANCH  15  16
HETATM   16  C   UNL     1     -12.004  14.220  70.364  1.00  0.00    -0.402 C  
BRANCH  16  17
HETATM   17  C   UNL     1     -13.173  14.887  71.081  1.00  0.00    -0.476 C  
HETATM   18  C   UNL     1     -12.746  15.475  72.404  1.00  0.00    -0.397 C  
HETATM   19  O   UNL     1     -11.618  15.439  72.869  1.00  0.00    -0.454 OA 
HETATM   20  O   UNL     1     -13.774  16.069  73.056  1.00  0.00    -0.590 OA 
ENDBRANCH  16  17
ENDBRANCH  15  16
ENDBRANCH  14  15
ENDBRANCH  13  14
ENDBRANCH  12  13
ENDBRANCH  11  12
ENDBRANCH  10  11
ENDBRANCH   8   9
ENDBRANCH   7   8
ENDBRANCH   5   6
ENDBRANCH   4   5
ENDBRANCH   3   4
ENDBRANCH   2   3
TORSDOF 13
ENDMDL
MODEL      142
REMARK 921   NORMALIZED FREE ENERGY PREDICTED BY IDOCK:   -4.00 KCAL/MOL
REMARK 922        TOTAL FREE ENERGY PREDICTED BY IDOCK:   -8.79 KCAL/MOL
REMARK 923 INTER-LIGAND FREE ENERGY PREDICTED BY IDOCK:   -6.52 KCAL/MOL
REMARK 924 INTRA-LIGAND FREE ENERGY PREDICTED BY IDOCK:   -2.27 KCAL/MOL
REMARK 927      BINDING AFFINITY PREDICTED BY RF-SCORE:    0.00 PKD
ROOT
HETATM    1  C   UNL     1     -11.682  13.637  67.926  1.00  0.00    -0.395 C  
HETATM    2  C   UNL     1     -11.813  12.779  69.172  1.00  0.00    -0.352 C  
ENDROOT
BRANCH   2   3
HETATM    3  C   UNL     1     -11.949  11.305  68.811  1.00  0.00    -0.350 C  
BRANCH   3   4
HETATM    4  C   UNL     1     -11.262  10.996  67.482  1.00  0.00    -0.372 C  
BRANCH   4   5
HETATM    5  C   UNL     1     -10.213   9.911  67.687  1.00  0.00    -0.255 C  
BRANCH   5   6
HETATM    6  C   UNL     1     -10.277   8.820  66.662  1.00  0.00    -0.340 C  
HETATM    7  C   UNL     1     -10.080   7.528  66.970  1.00  0.00    -0.332 C  
BRANCH   7   8
HETATM    8  C   UNL     1      -9.750   7.027  68.345  1.00  0.00    -0.139 C  
BRANCH   8   9
HETATM    9  C   UNL     1     -10.931   6.378  69.001  1.00  0.00    -0.410 C  
HETATM   10  C   UNL     1     -10.855   5.593  70.088  1.00  0.00    -0.356 C  
BRANCH  10  11
HETATM   11  C   UNL     1      -9.551   5.259  70.748  1.00  0.00    -0.234 C  
BRANCH  11  12
HETATM   12  C   UNL     1      -9.456   5.769  72.176  1.00  0.00    -0.164 C  
BRANCH  12  13
HETATM   13  C   UNL     1      -8.426   6.895  72.251  1.00  0.00    -0.111 C  
BRANCH  13  14
HETATM   14  C   UNL     1      -9.108   8.223  72.544  1.00  0.00    -0.323 C  
BRANCH  14  15
HETATM   15  C   UNL     1      -9.581   8.900  71.261  1.00  0.00    -0.348 C  
BRANCH  15  16
HETATM   16  C   UNL     1     -10.853   9.699  71.524  1.00  0.00    -0.205 C  
BRANCH  16  17
HETATM   17  C   UNL     1     -12.045   8.789  71.799  1.00  0.00    -0.418 C  
HETATM   18  C   UNL     1     -13.287   9.586  72.112  1.00  0.00    -0.461 C  
HETATM   19  O   UNL     1     -13.363  10.804  72.148  1.00  0.00    -0.442 OA 
HETATM   20  O   UNL     1     -14.356   8.792  72.362  1.00  0.00    -0.509 OA 
ENDBRANCH  16  17
ENDBRANCH  15  16
ENDBRANCH  14  15
ENDBRANCH  13  14
ENDBRANCH  12  13
ENDBRANCH  11  12
ENDBRANCH  10  11
ENDBRANCH   8   9
ENDBRANCH   7   8
ENDBRANCH   5   6
ENDBRANCH   4   5
ENDBRANCH   3   4
ENDBRANCH   2   3
TORSDOF 13
ENDMDL
MODEL      143
REMARK 921   NORMALIZED FREE ENERGY PREDICTED BY IDOCK:   -3.99 KCAL/MOL
REMARK 922        TOTAL FREE ENERGY PREDICTED BY IDOCK:   -8.77 KCAL/MOL
REMARK 923 INTER-LIGAND FREE ENERGY PREDICTED BY IDOCK:   -6.48 KCAL/MOL
REMARK 924 INTRA-LIGAND FREE ENERGY PREDICTED BY IDOCK:   -2.29 KCAL/MOL
REMARK 927      BINDING AFFINITY PREDICTED BY RF-SCORE:    0.00 PKD
ROOT
HETATM    1  C   UNL     1     -12.456   8.775  71.782  1.00  0.00    -0.407 C  
HETATM    2  C   UNL     1     -11.371   7.716  71.692  1.00  0.00    -0.286 C  
ENDROOT
BRANCH   2   3
HETATM    3  C   UNL     1     -11.692   6.691  70.612  1.00  0.00    -0.452 C  
BRANCH   3   4
HETATM    4  C   UNL     1     -10.528   5.723  70.407  1.00  0.00    -0.342 C  
BRANCH   4   5
HETATM    5  C   UNL     1      -9.863   5.998  69.065  1.00  0.00    -0.182 C  
BRANCH   5   6
HETATM    6  C   UNL     1     -10.819   5.977  67.911  1.00  0.00    -0.378 C  
HETATM    7  C   UNL     1     -10.910   6.985  67.030  1.00  0.00    -0.413 C  
BRANCH   7   8
HETATM    8  C   UNL     1     -10.103   8.248  67.103  1.00  0.00    -0.334 C  
BRANCH   8   9
HETATM    9  C   UNL     1     -10.786   9.300  67.924  1.00  0.00    -0.181 C  
HETATM   10  C   UNL     1     -10.220   9.930  68.966  1.00  0.00    -0.213 C  
BRANCH  10  11
HETATM   11  C   UNL     1      -8.833   9.616  69.438  1.00  0.00    -0.183 C  
BRANCH  11  12
HETATM   12  C   UNL     1      -7.843  10.740  69.176  1.00  0.00    -0.142 C  
BRANCH  12  13
HETATM   13  C   UNL     1      -7.559  10.833  67.678  1.00  0.00    -0.096 C  
BRANCH  13  14
HETATM   14  C   UNL     1      -8.033  12.170  67.127  1.00  0.00    -0.170 C  
BRANCH  14  15
HETATM   15  C   UNL     1      -9.184  11.989  66.142  1.00  0.00    -0.181 C  
BRANCH  15  16
HETATM   16  C   UNL     1     -10.030  13.257  66.081  1.00  0.00    -0.295 C  
BRANCH  16  17
HETATM   17  C   UNL     1     -10.534  13.531  64.668  1.00  0.00    -0.439 C  
HETATM   18  C   UNL     1     -11.963  13.076  64.495  1.00  0.00    -0.394 C  
HETATM   19  O   UNL     1     -12.654  12.553  65.354  1.00  0.00    -0.656 OA 
HETATM   20  O   UNL     1     -12.426  13.310  63.243  1.00  0.00    -0.736 OA 
ENDBRANCH  16  17
ENDBRANCH  15  16
ENDBRANCH  14  15
ENDBRANCH  13  14
ENDBRANCH  12  13
ENDBRANCH  11  12
ENDBRANCH  10  11
ENDBRANCH   8   9
ENDBRANCH   7   8
ENDBRANCH   5   6
ENDBRANCH   4   5
ENDBRANCH   3   4
ENDBRANCH   2   3
TORSDOF 13
ENDMDL
MODEL      144
REMARK 921   NORMALIZED FREE ENERGY PREDICTED BY IDOCK:   -3.99 KCAL/MOL
REMARK 922        TOTAL FREE ENERGY PREDICTED BY IDOCK:   -8.77 KCAL/MOL
REMARK 923 INTER-LIGAND FREE ENERGY PREDICTED BY IDOCK:   -6.66 KCAL/MOL
REMARK 924 INTRA-LIGAND FREE ENERGY PREDICTED BY IDOCK:   -2.10 KCAL/MOL
REMARK 927      BINDING AFFINITY PREDICTED BY RF-SCORE:    0.00 PKD
ROOT
HETATM    1  C   UNL     1     -10.711  14.943  64.997  1.00  0.00    -0.451 C  
HETATM    2  C   UNL     1     -11.685  14.314  65.977  1.00  0.00    -0.384 C  
ENDROOT
BRANCH   2   3
HETATM    3  C   UNL     1     -12.511  13.223  65.307  1.00  0.00    -0.543 C  
BRANCH   3   4
HETATM    4  C   UNL     1     -12.204  13.137  63.814  1.00  0.00    -0.528 C  
BRANCH   4   5
HETATM    5  C   UNL     1     -11.732  11.731  63.467  1.00  0.00    -0.485 C  
BRANCH   5   6
HETATM    6  C   UNL     1     -10.261  11.648  63.192  1.00  0.00    -0.396 C  
HETATM    7  C   UNL     1      -9.420  10.945  63.967  1.00  0.00    -0.298 C  
BRANCH   7   8
HETATM    8  C   UNL     1      -9.833  10.192  65.197  1.00  0.00    -0.394 C  
BRANCH   8   9
HETATM    9  C   UNL     1      -9.265   8.804  65.218  1.00  0.00    -0.099 C  
HETATM   10  C   UNL     1      -9.454   7.927  66.216  1.00  0.00    -0.220 C  
BRANCH  10  11
HETATM   11  C   UNL     1     -10.242   8.265  67.446  1.00  0.00    -0.326 C  
BRANCH  11  12
HETATM   12  C   UNL     1      -9.374   8.458  68.678  1.00  0.00    -0.143 C  
BRANCH  12  13
HETATM   13  C   UNL     1      -8.707   9.830  68.626  1.00  0.00    -0.122 C  
BRANCH  13  14
HETATM   14  C   UNL     1      -9.499  10.841  69.442  1.00  0.00    -0.037 C  
BRANCH  14  15
HETATM   15  C   UNL     1     -10.358  11.728  68.546  1.00  0.00    -0.228 C  
BRANCH  15  16
HETATM   16  C   UNL     1     -11.709  11.992  69.204  1.00  0.00    -0.389 C  
BRANCH  16  17
HETATM   17  C   UNL     1     -12.251  10.749  69.900  1.00  0.00    -0.384 C  
HETATM   18  C   UNL     1     -12.891  11.092  71.223  1.00  0.00    -0.425 C  
HETATM   19  O   UNL     1     -12.980  12.210  71.703  1.00  0.00    -0.399 OA 
HETATM   20  O   UNL     1     -13.376   9.996  71.856  1.00  0.00    -0.413 OA 
ENDBRANCH  16  17
ENDBRANCH  15  16
ENDBRANCH  14  15
ENDBRANCH  13  14
ENDBRANCH  12  13
ENDBRANCH  11  12
ENDBRANCH  10  11
ENDBRANCH   8   9
ENDBRANCH   7   8
ENDBRANCH   5   6
ENDBRANCH   4   5
ENDBRANCH   3   4
ENDBRANCH   2   3
TORSDOF 13
ENDMDL
MODEL      145
REMARK 921   NORMALIZED FREE ENERGY PREDICTED BY IDOCK:   -3.98 KCAL/MOL
REMARK 922        TOTAL FREE ENERGY PREDICTED BY IDOCK:   -8.75 KCAL/MOL
REMARK 923 INTER-LIGAND FREE ENERGY PREDICTED BY IDOCK:   -7.11 KCAL/MOL
REMARK 924 INTRA-LIGAND FREE ENERGY PREDICTED BY IDOCK:   -1.64 KCAL/MOL
REMARK 927      BINDING AFFINITY PREDICTED BY RF-SCORE:    0.00 PKD
ROOT
HETATM    1  C   UNL     1     -12.935  10.280  71.343  1.00  0.00    -0.540 C  
HETATM    2  C   UNL     1     -13.079   9.013  72.167  1.00  0.00    -0.496 C  
ENDROOT
BRANCH   2   3
HETATM    3  C   UNL     1     -11.919   8.059  71.915  1.00  0.00    -0.359 C  
BRANCH   3   4
HETATM    4  C   UNL     1     -12.363   6.854  71.089  1.00  0.00    -0.419 C  
BRANCH   4   5
HETATM    5  C   UNL     1     -11.347   6.584  69.988  1.00  0.00    -0.472 C  
BRANCH   5   6
HETATM    6  C   UNL     1     -10.091   7.390  70.127  1.00  0.00    -0.197 C  
HETATM    7  C   UNL     1      -9.637   8.194  69.152  1.00  0.00    -0.157 C  
BRANCH   7   8
HETATM    8  C   UNL     1     -10.302   8.363  67.818  1.00  0.00    -0.297 C  
BRANCH   8   9
HETATM    9  C   UNL     1     -10.910   9.725  67.666  1.00  0.00    -0.301 C  
HETATM   10  C   UNL     1     -10.710  10.526  66.607  1.00  0.00    -0.222 C  
BRANCH  10  11
HETATM   11  C   UNL     1      -9.820  10.143  65.464  1.00  0.00    -0.365 C  
BRANCH  11  12
HETATM   12  C   UNL     1      -9.693  11.234  64.413  1.00  0.00    -0.293 C  
BRANCH  12  13
HETATM   13  C   UNL     1     -11.037  11.435  63.718  1.00  0.00    -0.417 C  
BRANCH  13  14
HETATM   14  C   UNL     1     -11.461  12.895  63.787  1.00  0.00    -0.519 C  
BRANCH  14  15
HETATM   15  C   UNL     1     -12.511  13.119  64.872  1.00  0.00    -0.490 C  
BRANCH  15  16
HETATM   16  C   UNL     1     -12.150  14.340  65.712  1.00  0.00    -0.414 C  
BRANCH  16  17
HETATM   17  C   UNL     1     -10.838  14.142  66.462  1.00  0.00    -0.298 C  
HETATM   18  C   UNL     1     -10.854  14.848  67.796  1.00  0.00    -0.286 C  
HETATM   19  O   UNL     1     -11.781  15.501  68.246  1.00  0.00    -0.360 OA 
HETATM   20  O   UNL     1      -9.693  14.684  68.476  1.00  0.00    -0.213 OA 
ENDBRANCH  16  17
ENDBRANCH  15  16
ENDBRANCH  14  15
ENDBRANCH  13  14
ENDBRANCH  12  13
ENDBRANCH  11  12
ENDBRANCH  10  11
ENDBRANCH   8   9
ENDBRANCH   7   8
ENDBRANCH   5   6
ENDBRANCH   4   5
ENDBRANCH   3   4
ENDBRANCH   2   3
TORSDOF 13
ENDMDL
MODEL      146
REMARK 921   NORMALIZED FREE ENERGY PREDICTED BY IDOCK:   -3.98 KCAL/MOL
REMARK 922        TOTAL FREE ENERGY PREDICTED BY IDOCK:   -8.74 KCAL/MOL
REMARK 923 INTER-LIGAND FREE ENERGY PREDICTED BY IDOCK:   -6.31 KCAL/MOL
REMARK 924 INTRA-LIGAND FREE ENERGY PREDICTED BY IDOCK:   -2.44 KCAL/MOL
REMARK 927      BINDING AFFINITY PREDICTED BY RF-SCORE:    0.00 PKD
ROOT
HETATM    1  C   UNL     1      -9.414  13.772  68.126  1.00  0.00    -0.212 C  
HETATM    2  C   UNL     1     -10.569  13.592  67.157  1.00  0.00    -0.272 C  
ENDROOT
BRANCH   2   3
HETATM    3  C   UNL     1     -10.759  14.832  66.293  1.00  0.00    -0.313 C  
BRANCH   3   4
HETATM    4  C   UNL     1     -12.015  14.716  65.430  1.00  0.00    -0.275 C  
BRANCH   4   5
HETATM    5  C   UNL     1     -12.535  13.286  65.471  1.00  0.00    -0.531 C  
BRANCH   5   6
HETATM    6  C   UNL     1     -12.653  12.656  64.116  1.00  0.00    -0.442 C  
HETATM    7  C   UNL     1     -11.663  11.934  63.567  1.00  0.00    -0.550 C  
BRANCH   7   8
HETATM    8  C   UNL     1     -10.331  11.695  64.215  1.00  0.00    -0.371 C  
BRANCH   8   9
HETATM    9  C   UNL     1     -10.274  10.359  64.894  1.00  0.00    -0.330 C  
HETATM   10  C   UNL     1      -9.339  10.008  65.791  1.00  0.00    -0.241 C  
BRANCH  10  11
HETATM   11  C   UNL     1      -8.222  10.925  66.189  1.00  0.00    -0.168 C  
BRANCH  11  12
HETATM   12  C   UNL     1      -7.507  10.482  67.455  1.00  0.00    -0.094 C  
BRANCH  12  13
HETATM   13  C   UNL     1      -8.362   9.455  68.194  1.00  0.00    -0.119 C  
BRANCH  13  14
HETATM   14  C   UNL     1      -9.001  10.080  69.426  1.00  0.00    -0.205 C  
BRANCH  14  15
HETATM   15  C   UNL     1     -10.396   9.515  69.675  1.00  0.00    -0.236 C  
BRANCH  15  16
HETATM   16  C   UNL     1     -11.454  10.440  69.081  1.00  0.00    -0.261 C  
BRANCH  16  17
HETATM   17  C   UNL     1     -11.930  11.476  70.094  1.00  0.00    -0.452 C  
HETATM   18  C   UNL     1     -12.909  10.878  71.074  1.00  0.00    -0.376 C  
HETATM   19  O   UNL     1     -13.292   9.719  71.083  1.00  0.00    -0.373 OA 
HETATM   20  O   UNL     1     -13.346  11.786  71.980  1.00  0.00    -0.487 OA 
ENDBRANCH  16  17
ENDBRANCH  15  16
ENDBRANCH  14  15
ENDBRANCH  13  14
ENDBRANCH  12  13
ENDBRANCH  11  12
ENDBRANCH  10  11
ENDBRANCH   8   9
ENDBRANCH   7   8
ENDBRANCH   5   6
ENDBRANCH   4   5
ENDBRANCH   3   4
ENDBRANCH   2   3
TORSDOF 13
ENDMDL
MODEL      147
REMARK 921   NORMALIZED FREE ENERGY PREDICTED BY IDOCK:   -3.98 KCAL/MOL
REMARK 922        TOTAL FREE ENERGY PREDICTED BY IDOCK:   -8.74 KCAL/MOL
REMARK 923 INTER-LIGAND FREE ENERGY PREDICTED BY IDOCK:   -6.16 KCAL/MOL
REMARK 924 INTRA-LIGAND FREE ENERGY PREDICTED BY IDOCK:   -2.58 KCAL/MOL
REMARK 927      BINDING AFFINITY PREDICTED BY RF-SCORE:    0.00 PKD
ROOT
HETATM    1  C   UNL     1     -10.566  15.788  65.809  1.00  0.00    -0.369 C  
HETATM    2  C   UNL     1     -10.958  14.736  64.787  1.00  0.00    -0.393 C  
ENDROOT
BRANCH   2   3
HETATM    3  C   UNL     1     -12.037  13.812  65.337  1.00  0.00    -0.427 C  
BRANCH   3   4
HETATM    4  C   UNL     1     -12.160  13.948  66.853  1.00  0.00    -0.467 C  
BRANCH   4   5
HETATM    5  C   UNL     1     -11.738  12.646  67.520  1.00  0.00    -0.429 C  
BRANCH   5   6
HETATM    6  C   UNL     1     -10.601  12.811  68.483  1.00  0.00    -0.270 C  
HETATM    7  C   UNL     1      -9.317  12.699  68.108  1.00  0.00    -0.210 C  
BRANCH   7   8
HETATM    8  C   UNL     1      -8.867  12.375  66.714  1.00  0.00    -0.189 C  
BRANCH   8   9
HETATM    9  C   UNL     1      -7.997  11.155  66.678  1.00  0.00    -0.159 C  
HETATM   10  C   UNL     1      -8.398   9.955  66.230  1.00  0.00    -0.125 C  
BRANCH  10  11
HETATM   11  C   UNL     1      -9.791   9.705  65.738  1.00  0.00    -0.373 C  
BRANCH  11  12
HETATM   12  C   UNL     1     -10.746   9.274  66.840  1.00  0.00    -0.164 C  
BRANCH  12  13
HETATM   13  C   UNL     1     -10.287   7.939  67.423  1.00  0.00    -0.349 C  
BRANCH  13  14
HETATM   14  C   UNL     1     -10.388   7.957  68.941  1.00  0.00    -0.225 C  
BRANCH  14  15
HETATM   15  C   UNL     1      -9.844   9.260  69.520  1.00  0.00    -0.188 C  
BRANCH  15  16
HETATM   16  C   UNL     1     -10.577   9.610  70.811  1.00  0.00    -0.392 C  
BRANCH  16  17
HETATM   17  C   UNL     1     -10.154   8.706  71.963  1.00  0.00    -0.401 C  
HETATM   18  C   UNL     1     -11.325   7.925  72.509  1.00  0.00    -0.390 C  
HETATM   19  O   UNL     1     -12.474   7.987  72.104  1.00  0.00    -0.312 OA 
HETATM   20  O   UNL     1     -10.967   7.118  73.537  1.00  0.00    -0.328 OA 
ENDBRANCH  16  17
ENDBRANCH  15  16
ENDBRANCH  14  15
ENDBRANCH  13  14
ENDBRANCH  12  13
ENDBRANCH  11  12
ENDBRANCH  10  11
ENDBRANCH   8   9
ENDBRANCH   7   8
ENDBRANCH   5   6
ENDBRANCH   4   5
ENDBRANCH   3   4
ENDBRANCH   2   3
TORSDOF 13
ENDMDL
MODEL      148
REMARK 921   NORMALIZED FREE ENERGY PREDICTED BY IDOCK:   -3.97 KCAL/MOL
REMARK 922        TOTAL FREE ENERGY PREDICTED BY IDOCK:   -8.74 KCAL/MOL
REMARK 923 INTER-LIGAND FREE ENERGY PREDICTED BY IDOCK:   -6.94 KCAL/MOL
REMARK 924 INTRA-LIGAND FREE ENERGY PREDICTED BY IDOCK:   -1.80 KCAL/MOL
REMARK 927      BINDING AFFINITY PREDICTED BY RF-SCORE:    0.00 PKD
ROOT
HETATM    1  C   UNL     1      -8.142  13.772  67.989  1.00  0.00    -0.163 C  
HETATM    2  C   UNL     1      -9.256  13.969  66.975  1.00  0.00    -0.262 C  
ENDROOT
BRANCH   2   3
HETATM    3  C   UNL     1     -10.063  12.690  66.792  1.00  0.00    -0.243 C  
BRANCH   3   4
HETATM    4  C   UNL     1      -9.909  11.763  67.996  1.00  0.00    -0.184 C  
BRANCH   4   5
HETATM    5  C   UNL     1     -11.267  11.539  68.647  1.00  0.00    -0.307 C  
BRANCH   5   6
HETATM    6  C   UNL     1     -11.200  10.708  69.893  1.00  0.00    -0.378 C  
HETATM    7  C   UNL     1     -12.061  10.862  70.911  1.00  0.00    -0.455 C  
BRANCH   7   8
HETATM    8  C   UNL     1     -13.160  11.883  70.942  1.00  0.00     0.069 C  
BRANCH   8   9
HETATM    9  C   UNL     1     -13.277  12.536  72.287  1.00  0.00    -0.425 C  
HETATM   10  C   UNL     1     -13.591  13.828  72.473  1.00  0.00    -0.680 C  
BRANCH  10  11
HETATM   11  C   UNL     1     -13.832  14.770  71.333  1.00  0.00    -0.509 C  
BRANCH  11  12
HETATM   12  C   UNL     1     -12.633  15.650  71.020  1.00  0.00    -0.515 C  
BRANCH  12  13
HETATM   13  C   UNL     1     -11.732  14.948  70.006  1.00  0.00    -0.338 C  
BRANCH  13  14
HETATM   14  C   UNL     1     -11.654  15.749  68.715  1.00  0.00    -0.401 C  
BRANCH  14  15
HETATM   15  C   UNL     1     -10.611  16.859  68.811  1.00  0.00    -0.355 C  
BRANCH  15  16
HETATM   16  C   UNL     1     -10.609  17.693  67.534  1.00  0.00    -0.345 C  
BRANCH  16  17
HETATM   17  C   UNL     1      -9.220  18.236  67.217  1.00  0.00    -0.256 C  
HETATM   18  C   UNL     1      -9.290  19.416  66.279  1.00  0.00    -0.355 C  
HETATM   19  O   UNL     1     -10.311  19.899  65.816  1.00  0.00    -0.489 OA 
HETATM   20  O   UNL     1      -8.064  19.910  65.984  1.00  0.00    -0.348 OA 
ENDBRANCH  16  17
ENDBRANCH  15  16
ENDBRANCH  14  15
ENDBRANCH  13  14
ENDBRANCH  12  13
ENDBRANCH  11  12
ENDBRANCH  10  11
ENDBRANCH   8   9
ENDBRANCH   7   8
ENDBRANCH   5   6
ENDBRANCH   4   5
ENDBRANCH   3   4
ENDBRANCH   2   3
TORSDOF 13
ENDMDL
MODEL      149
REMARK 921   NORMALIZED FREE ENERGY PREDICTED BY IDOCK:   -3.97 KCAL/MOL
REMARK 922        TOTAL FREE ENERGY PREDICTED BY IDOCK:   -8.73 KCAL/MOL
REMARK 923 INTER-LIGAND FREE ENERGY PREDICTED BY IDOCK:   -6.67 KCAL/MOL
REMARK 924 INTRA-LIGAND FREE ENERGY PREDICTED BY IDOCK:   -2.06 KCAL/MOL
REMARK 927      BINDING AFFINITY PREDICTED BY RF-SCORE:    0.00 PKD
ROOT
HETATM    1  C   UNL     1     -12.167  15.824  72.403  1.00  0.00    -0.568 C  
HETATM    2  C   UNL     1     -13.004  15.745  71.139  1.00  0.00    -0.421 C  
ENDROOT
BRANCH   2   3
HETATM    3  C   UNL     1     -12.122  15.615  69.904  1.00  0.00    -0.360 C  
BRANCH   3   4
HETATM    4  C   UNL     1     -10.712  15.165  70.277  1.00  0.00    -0.232 C  
BRANCH   4   5
HETATM    5  C   UNL     1      -9.692  15.930  69.445  1.00  0.00    -0.268 C  
BRANCH   5   6
HETATM    6  C   UNL     1      -8.710  15.041  68.742  1.00  0.00    -0.186 C  
HETATM    7  C   UNL     1      -7.388  15.275  68.754  1.00  0.00    -0.131 C  
BRANCH   7   8
HETATM    8  C   UNL     1      -6.742  16.446  69.435  1.00  0.00    -0.215 C  
BRANCH   8   9
HETATM    9  C   UNL     1      -5.946  17.279  68.475  1.00  0.00    -0.156 C  
HETATM   10  C   UNL     1      -6.244  18.547  68.150  1.00  0.00    -0.195 C  
BRANCH  10  11
HETATM   11  C   UNL     1      -7.442  19.259  68.703  1.00  0.00    -0.380 C  
BRANCH  11  12
HETATM   12  C   UNL     1      -8.169  20.100  67.667  1.00  0.00    -0.337 C  
BRANCH  12  13
HETATM   13  C   UNL     1      -9.504  19.444  67.320  1.00  0.00    -0.398 C  
BRANCH  13  14
HETATM   14  C   UNL     1      -9.298  18.300  66.338  1.00  0.00    -0.280 C  
BRANCH  14  15
HETATM   15  C   UNL     1     -10.526  17.396  66.272  1.00  0.00    -0.276 C  
BRANCH  15  16
HETATM   16  C   UNL     1     -10.170  16.070  65.607  1.00  0.00    -0.412 C  
BRANCH  16  17
HETATM   17  C   UNL     1     -11.380  15.434  64.932  1.00  0.00    -0.367 C  
HETATM   18  C   UNL     1     -12.060  14.441  65.842  1.00  0.00    -0.348 C  
HETATM   19  O   UNL     1     -11.712  14.159  66.977  1.00  0.00    -0.363 OA 
HETATM   20  O   UNL     1     -13.137  13.864  65.256  1.00  0.00    -0.777 OA 
ENDBRANCH  16  17
ENDBRANCH  15  16
ENDBRANCH  14  15
ENDBRANCH  13  14
ENDBRANCH  12  13
ENDBRANCH  11  12
ENDBRANCH  10  11
ENDBRANCH   8   9
ENDBRANCH   7   8
ENDBRANCH   5   6
ENDBRANCH   4   5
ENDBRANCH   3   4
ENDBRANCH   2   3
TORSDOF 13
ENDMDL
MODEL      150
REMARK 921   NORMALIZED FREE ENERGY PREDICTED BY IDOCK:   -3.97 KCAL/MOL
REMARK 922        TOTAL FREE ENERGY PREDICTED BY IDOCK:   -8.73 KCAL/MOL
REMARK 923 INTER-LIGAND FREE ENERGY PREDICTED BY IDOCK:   -5.80 KCAL/MOL
REMARK 924 INTRA-LIGAND FREE ENERGY PREDICTED BY IDOCK:   -2.94 KCAL/MOL
REMARK 927      BINDING AFFINITY PREDICTED BY RF-SCORE:    0.00 PKD
ROOT
HETATM    1  C   UNL     1     -12.205  12.139  63.699  1.00  0.00    -0.663 C  
HETATM    2  C   UNL     1     -12.186  13.657  63.728  1.00  0.00    -0.413 C  
ENDROOT
BRANCH   2   3
HETATM    3  C   UNL     1     -11.917  14.177  65.134  1.00  0.00    -0.390 C  
BRANCH   3   4
HETATM    4  C   UNL     1     -10.611  14.967  65.190  1.00  0.00    -0.450 C  
BRANCH   4   5
HETATM    5  C   UNL     1      -9.695  14.369  66.248  1.00  0.00    -0.330 C  
BRANCH   5   6
HETATM    6  C   UNL     1      -9.429  12.907  66.049  1.00  0.00    -0.112 C  
HETATM    7  C   UNL     1      -9.586  12.004  67.030  1.00  0.00    -0.200 C  
BRANCH   7   8
HETATM    8  C   UNL     1     -10.011  12.341  68.429  1.00  0.00    -0.210 C  
BRANCH   8   9
HETATM    9  C   UNL     1     -11.503  12.435  68.551  1.00  0.00    -0.350 C  
HETATM   10  C   UNL     1     -12.150  13.468  69.112  1.00  0.00    -0.331 C  
BRANCH  10  11
HETATM   11  C   UNL     1     -11.431  14.639  69.710  1.00  0.00    -0.325 C  
BRANCH  11  12
HETATM   12  C   UNL     1     -11.729  15.950  69.000  1.00  0.00    -0.377 C  
BRANCH  12  13
HETATM   13  C   UNL     1     -10.429  16.722  68.782  1.00  0.00    -0.338 C  
BRANCH  13  14
HETATM   14  C   UNL     1      -9.242  15.929  69.309  1.00  0.00    -0.254 C  
BRANCH  14  15
HETATM   15  C   UNL     1      -7.925  16.471  68.762  1.00  0.00    -0.236 C  
BRANCH  15  16
HETATM   16  C   UNL     1      -6.800  15.470  69.008  1.00  0.00    -0.139 C  
BRANCH  16  17
HETATM   17  C   UNL     1      -6.466  14.676  67.749  1.00  0.00    -0.182 C  
HETATM   18  C   UNL     1      -6.212  13.222  68.066  1.00  0.00    -0.129 C  
HETATM   19  O   UNL     1      -6.260  12.715  69.175  1.00  0.00    -0.084 OA 
HETATM   20  O   UNL     1      -5.911  12.502  66.958  1.00  0.00    -0.283 OA 
ENDBRANCH  16  17
ENDBRANCH  15  16
ENDBRANCH  14  15
ENDBRANCH  13  14
ENDBRANCH  12  13
ENDBRANCH  11  12
ENDBRANCH  10  11
ENDBRANCH   8   9
ENDBRANCH   7   8
ENDBRANCH   5   6
ENDBRANCH   4   5
ENDBRANCH   3   4
ENDBRANCH   2   3
TORSDOF 13
ENDMDL
MODEL      151
REMARK 921   NORMALIZED FREE ENERGY PREDICTED BY IDOCK:   -3.97 KCAL/MOL
REMARK 922        TOTAL FREE ENERGY PREDICTED BY IDOCK:   -8.73 KCAL/MOL
REMARK 923 INTER-LIGAND FREE ENERGY PREDICTED BY IDOCK:   -6.61 KCAL/MOL
REMARK 924 INTRA-LIGAND FREE ENERGY PREDICTED BY IDOCK:   -2.12 KCAL/MOL
REMARK 927      BINDING AFFINITY PREDICTED BY RF-SCORE:    0.00 PKD
ROOT
HETATM    1  C   UNL     1     -12.096  16.057  72.637  1.00  0.00    -0.640 C  
HETATM    2  C   UNL     1     -12.763  15.582  71.359  1.00  0.00    -0.517 C  
ENDROOT
BRANCH   2   3
HETATM    3  C   UNL     1     -11.729  15.237  70.295  1.00  0.00    -0.341 C  
BRANCH   3   4
HETATM    4  C   UNL     1     -12.158  14.017  69.483  1.00  0.00    -0.397 C  
BRANCH   4   5
HETATM    5  C   UNL     1     -12.057  12.766  70.345  1.00  0.00    -0.382 C  
BRANCH   5   6
HETATM    6  C   UNL     1     -12.389  11.505  69.606  1.00  0.00    -0.207 C  
HETATM    7  C   UNL     1     -12.723  10.367  70.234  1.00  0.00    -0.221 C  
BRANCH   7   8
HETATM    8  C   UNL     1     -12.778  10.208  71.725  1.00  0.00    -0.534 C  
BRANCH   8   9
HETATM    9  C   UNL     1     -12.776   8.765  72.133  1.00  0.00    -0.461 C  
HETATM   10  C   UNL     1     -11.664   8.044  72.349  1.00  0.00    -0.444 C  
BRANCH  10  11
HETATM   11  C   UNL     1     -10.289   8.613  72.172  1.00  0.00    -0.403 C  
BRANCH  11  12
HETATM   12  C   UNL     1      -9.695   8.326  70.802  1.00  0.00    -0.197 C  
BRANCH  12  13
HETATM   13  C   UNL     1      -8.808   9.493  70.374  1.00  0.00    -0.279 C  
BRANCH  13  14
HETATM   14  C   UNL     1      -9.230  10.012  69.008  1.00  0.00    -0.180 C  
BRANCH  14  15
HETATM   15  C   UNL     1      -8.888  11.490  68.844  1.00  0.00     0.030 C  
BRANCH  15  16
HETATM   16  C   UNL     1      -8.864  11.866  67.365  1.00  0.00    -0.171 C  
BRANCH  16  17
HETATM   17  C   UNL     1     -10.144  12.578  66.943  1.00  0.00    -0.232 C  
HETATM   18  C   UNL     1     -11.025  11.680  66.109  1.00  0.00    -0.288 C  
HETATM   19  O   UNL     1     -10.775  10.527  65.796  1.00  0.00    -0.122 OA 
HETATM   20  O   UNL     1     -12.166  12.299  65.722  1.00  0.00    -0.622 OA 
ENDBRANCH  16  17
ENDBRANCH  15  16
ENDBRANCH  14  15
ENDBRANCH  13  14
ENDBRANCH  12  13
ENDBRANCH  11  12
ENDBRANCH  10  11
ENDBRANCH   8   9
ENDBRANCH   7   8
ENDBRANCH   5   6
ENDBRANCH   4   5
ENDBRANCH   3   4
ENDBRANCH   2   3
TORSDOF 13
ENDMDL
MODEL      152
REMARK 921   NORMALIZED FREE ENERGY PREDICTED BY IDOCK:   -3.96 KCAL/MOL
REMARK 922        TOTAL FREE ENERGY PREDICTED BY IDOCK:   -8.72 KCAL/MOL
REMARK 923 INTER-LIGAND FREE ENERGY PREDICTED BY IDOCK:   -6.95 KCAL/MOL
REMARK 924 INTRA-LIGAND FREE ENERGY PREDICTED BY IDOCK:   -1.78 KCAL/MOL
REMARK 927      BINDING AFFINITY PREDICTED BY RF-SCORE:    0.00 PKD
ROOT
HETATM    1  C   UNL     1      -7.813   8.910  67.776  1.00  0.00    -0.102 C  
HETATM    2  C   UNL     1      -7.307  10.321  67.538  1.00  0.00    -0.089 C  
ENDROOT
BRANCH   2   3
HETATM    3  C   UNL     1      -8.333  11.153  66.779  1.00  0.00    -0.152 C  
BRANCH   3   4
HETATM    4  C   UNL     1      -9.727  10.536  66.880  1.00  0.00    -0.218 C  
BRANCH   4   5
HETATM    5  C   UNL     1     -10.241  10.200  65.487  1.00  0.00    -0.288 C  
BRANCH   5   6
HETATM    6  C   UNL     1      -9.567  10.980  64.399  1.00  0.00    -0.301 C  
HETATM    7  C   UNL     1     -10.248  11.752  63.536  1.00  0.00    -0.483 C  
BRANCH   7   8
HETATM    8  C   UNL     1     -11.740  11.905  63.534  1.00  0.00    -0.550 C  
BRANCH   8   9
HETATM    9  C   UNL     1     -12.153  13.341  63.667  1.00  0.00    -0.551 C  
HETATM   10  C   UNL     1     -12.344  13.965  64.840  1.00  0.00    -0.445 C  
BRANCH  10  11
HETATM   11  C   UNL     1     -12.187  13.268  66.157  1.00  0.00    -0.466 C  
BRANCH  11  12
HETATM   12  C   UNL     1     -11.425  14.092  67.183  1.00  0.00    -0.373 C  
BRANCH  12  13
HETATM   13  C   UNL     1     -11.968  13.799  68.580  1.00  0.00    -0.401 C  
BRANCH  13  14
HETATM   14  C   UNL     1     -11.778  12.331  68.930  1.00  0.00    -0.380 C  
BRANCH  14  15
HETATM   15  C   UNL     1     -12.153  12.053  70.383  1.00  0.00    -0.407 C  
BRANCH  15  16
HETATM   16  C   UNL     1     -12.863  10.707  70.496  1.00  0.00    -0.356 C  
BRANCH  16  17
HETATM   17  C   UNL     1     -12.463   9.963  71.765  1.00  0.00    -0.487 C  
HETATM   18  C   UNL     1     -11.385   8.944  71.490  1.00  0.00    -0.325 C  
HETATM   19  O   UNL     1     -10.876   8.720  70.404  1.00  0.00    -0.219 OA 
HETATM   20  O   UNL     1     -11.019   8.271  72.607  1.00  0.00    -0.352 OA 
ENDBRANCH  16  17
ENDBRANCH  15  16
ENDBRANCH  14  15
ENDBRANCH  13  14
ENDBRANCH  12  13
ENDBRANCH  11  12
ENDBRANCH  10  11
ENDBRANCH   8   9
ENDBRANCH   7   8
ENDBRANCH   5   6
ENDBRANCH   4   5
ENDBRANCH   3   4
ENDBRANCH   2   3
TORSDOF 13
ENDMDL
MODEL      153
REMARK 921   NORMALIZED FREE ENERGY PREDICTED BY IDOCK:   -3.96 KCAL/MOL
REMARK 922        TOTAL FREE ENERGY PREDICTED BY IDOCK:   -8.72 KCAL/MOL
REMARK 923 INTER-LIGAND FREE ENERGY PREDICTED BY IDOCK:   -6.66 KCAL/MOL
REMARK 924 INTRA-LIGAND FREE ENERGY PREDICTED BY IDOCK:   -2.06 KCAL/MOL
REMARK 927      BINDING AFFINITY PREDICTED BY RF-SCORE:    0.00 PKD
ROOT
HETATM    1  C   UNL     1     -12.324  16.150  72.916  1.00  0.00    -0.607 C  
HETATM    2  C   UNL     1     -12.834  15.682  71.564  1.00  0.00    -0.538 C  
ENDROOT
BRANCH   2   3
HETATM    3  C   UNL     1     -11.713  15.069  70.736  1.00  0.00    -0.371 C  
BRANCH   3   4
HETATM    4  C   UNL     1     -11.974  15.239  69.241  1.00  0.00    -0.327 C  
BRANCH   4   5
HETATM    5  C   UNL     1     -11.910  13.883  68.552  1.00  0.00    -0.401 C  
BRANCH   5   6
HETATM    6  C   UNL     1     -12.152  13.953  67.074  1.00  0.00    -0.451 C  
HETATM    7  C   UNL     1     -11.898  12.924  66.251  1.00  0.00    -0.477 C  
BRANCH   7   8
HETATM    8  C   UNL     1     -11.325  11.609  66.693  1.00  0.00    -0.338 C  
BRANCH   8   9
HETATM    9  C   UNL     1     -10.070  11.269  65.947  1.00  0.00    -0.291 C  
HETATM   10  C   UNL     1      -8.835  11.594  66.360  1.00  0.00    -0.182 C  
BRANCH  10  11
HETATM   11  C   UNL     1      -8.586  12.370  67.618  1.00  0.00    -0.172 C  
BRANCH  11  12
HETATM   12  C   UNL     1      -7.371  13.279  67.529  1.00  0.00    -0.159 C  
BRANCH  12  13
HETATM   13  C   UNL     1      -7.819  14.738  67.569  1.00  0.00    -0.208 C  
BRANCH  13  14
HETATM   14  C   UNL     1      -8.882  15.000  66.512  1.00  0.00    -0.286 C  
BRANCH  14  15
HETATM   15  C   UNL     1      -9.315  16.463  66.509  1.00  0.00    -0.300 C  
BRANCH  15  16
HETATM   16  C   UNL     1      -8.625  17.220  67.640  1.00  0.00    -0.218 C  
BRANCH  16  17
HETATM   17  C   UNL     1      -9.630  17.933  68.538  1.00  0.00    -0.327 C  
HETATM   18  C   UNL     1      -9.447  19.430  68.490  1.00  0.00    -0.389 C  
HETATM   19  O   UNL     1      -8.613  20.025  67.828  1.00  0.00    -0.311 OA 
HETATM   20  O   UNL     1     -10.331  20.079  69.286  1.00  0.00    -0.310 OA 
ENDBRANCH  16  17
ENDBRANCH  15  16
ENDBRANCH  14  15
ENDBRANCH  13  14
ENDBRANCH  12  13
ENDBRANCH  11  12
ENDBRANCH  10  11
ENDBRANCH   8   9
ENDBRANCH   7   8
ENDBRANCH   5   6
ENDBRANCH   4   5
ENDBRANCH   3   4
ENDBRANCH   2   3
TORSDOF 13
ENDMDL
MODEL      154
REMARK 921   NORMALIZED FREE ENERGY PREDICTED BY IDOCK:   -3.96 KCAL/MOL
REMARK 922        TOTAL FREE ENERGY PREDICTED BY IDOCK:   -8.71 KCAL/MOL
REMARK 923 INTER-LIGAND FREE ENERGY PREDICTED BY IDOCK:   -7.01 KCAL/MOL
REMARK 924 INTRA-LIGAND FREE ENERGY PREDICTED BY IDOCK:   -1.70 KCAL/MOL
REMARK 927      BINDING AFFINITY PREDICTED BY RF-SCORE:    0.00 PKD
ROOT
HETATM    1  C   UNL     1     -11.265  10.455  70.247  1.00  0.00    -0.395 C  
HETATM    2  C   UNL     1     -12.744  10.351  70.575  1.00  0.00    -0.355 C  
ENDROOT
BRANCH   2   3
HETATM    3  C   UNL     1     -12.963   9.658  71.914  1.00  0.00    -0.527 C  
BRANCH   3   4
HETATM    4  C   UNL     1     -13.850   8.425  71.758  1.00  0.00    -0.458 C  
BRANCH   4   5
HETATM    5  C   UNL     1     -13.028   7.167  72.002  1.00  0.00    -0.187 C  
BRANCH   5   6
HETATM    6  C   UNL     1     -11.617   7.451  72.421  1.00  0.00    -0.327 C  
HETATM    7  C   UNL     1     -10.560   6.847  71.855  1.00  0.00    -0.236 C  
BRANCH   7   8
HETATM    8  C   UNL     1     -10.657   5.813  70.772  1.00  0.00    -0.337 C  
BRANCH   8   9
HETATM    9  C   UNL     1     -11.360   6.341  69.557  1.00  0.00    -0.475 C  
HETATM   10  C   UNL     1     -10.756   7.031  68.577  1.00  0.00    -0.219 C  
BRANCH  10  11
HETATM   11  C   UNL     1      -9.297   7.373  68.615  1.00  0.00    -0.139 C  
BRANCH  11  12
HETATM   12  C   UNL     1      -8.956   8.629  67.830  1.00  0.00    -0.140 C  
BRANCH  12  13
HETATM   13  C   UNL     1      -9.635   8.579  66.463  1.00  0.00    -0.303 C  
BRANCH  13  14
HETATM   14  C   UNL     1      -9.675   9.965  65.835  1.00  0.00    -0.326 C  
BRANCH  14  15
HETATM   15  C   UNL     1     -10.003  11.035  66.872  1.00  0.00    -0.231 C  
BRANCH  15  16
HETATM   16  C   UNL     1     -11.131  11.931  66.367  1.00  0.00    -0.359 C  
BRANCH  16  17
HETATM   17  C   UNL     1     -11.471  11.642  64.909  1.00  0.00    -0.205 C  
HETATM   18  C   UNL     1     -12.573  12.545  64.412  1.00  0.00    -0.410 C  
HETATM   19  O   UNL     1     -13.141  13.405  65.065  1.00  0.00    -0.734 OA 
HETATM   20  O   UNL     1     -12.890  12.300  63.117  1.00  0.00    -0.646 OA 
ENDBRANCH  16  17
ENDBRANCH  15  16
ENDBRANCH  14  15
ENDBRANCH  13  14
ENDBRANCH  12  13
ENDBRANCH  11  12
ENDBRANCH  10  11
ENDBRANCH   8   9
ENDBRANCH   7   8
ENDBRANCH   5   6
ENDBRANCH   4   5
ENDBRANCH   3   4
ENDBRANCH   2   3
TORSDOF 13
ENDMDL
MODEL      155
REMARK 921   NORMALIZED FREE ENERGY PREDICTED BY IDOCK:   -3.95 KCAL/MOL
REMARK 922        TOTAL FREE ENERGY PREDICTED BY IDOCK:   -8.70 KCAL/MOL
REMARK 923 INTER-LIGAND FREE ENERGY PREDICTED BY IDOCK:   -7.38 KCAL/MOL
REMARK 924 INTRA-LIGAND FREE ENERGY PREDICTED BY IDOCK:   -1.32 KCAL/MOL
REMARK 927      BINDING AFFINITY PREDICTED BY RF-SCORE:    0.00 PKD
ROOT
HETATM    1  C   UNL     1      -9.552   8.238  72.737  1.00  0.00    -0.338 C  
HETATM    2  C   UNL     1     -10.929   7.652  72.994  1.00  0.00    -0.457 C  
ENDROOT
BRANCH   2   3
HETATM    3  C   UNL     1     -11.991   8.358  72.163  1.00  0.00    -0.438 C  
BRANCH   3   4
HETATM    4  C   UNL     1     -11.386   9.503  71.353  1.00  0.00    -0.462 C  
BRANCH   4   5
HETATM    5  C   UNL     1     -12.499  10.327  70.719  1.00  0.00    -0.439 C  
BRANCH   5   6
HETATM    6  C   UNL     1     -12.066  11.705  70.319  1.00  0.00    -0.443 C  
HETATM    7  C   UNL     1     -11.568  11.980  69.103  1.00  0.00    -0.370 C  
BRANCH   7   8
HETATM    8  C   UNL     1     -11.361  10.960  68.023  1.00  0.00    -0.382 C  
BRANCH   8   9
HETATM    9  C   UNL     1     -10.318  11.395  67.037  1.00  0.00    -0.258 C  
HETATM   10  C   UNL     1     -10.589  12.006  65.873  1.00  0.00    -0.302 C  
BRANCH  10  11
HETATM   11  C   UNL     1     -11.989  12.292  65.421  1.00  0.00    -0.395 C  
BRANCH  11  12
HETATM   12  C   UNL     1     -12.430  13.719  65.707  1.00  0.00    -0.527 C  
BRANCH  12  13
HETATM   13  C   UNL     1     -11.202  14.609  65.882  1.00  0.00    -0.336 C  
BRANCH  13  14
HETATM   14  C   UNL     1     -11.195  15.244  67.264  1.00  0.00    -0.306 C  
BRANCH  14  15
HETATM   15  C   UNL     1      -9.866  15.938  67.551  1.00  0.00    -0.230 C  
BRANCH  15  16
HETATM   16  C   UNL     1      -9.520  16.902  66.420  1.00  0.00    -0.306 C  
BRANCH  16  17
HETATM   17  C   UNL     1      -8.730  18.104  66.925  1.00  0.00    -0.267 C  
HETATM   18  C   UNL     1      -9.575  19.355  66.933  1.00  0.00    -0.339 C  
HETATM   19  O   UNL     1     -10.742  19.429  66.587  1.00  0.00    -0.443 OA 
HETATM   20  O   UNL     1      -8.887  20.435  67.376  1.00  0.00    -0.344 OA 
ENDBRANCH  16  17
ENDBRANCH  15  16
ENDBRANCH  14  15
ENDBRANCH  13  14
ENDBRANCH  12  13
ENDBRANCH  11  12
ENDBRANCH  10  11
ENDBRANCH   8   9
ENDBRANCH   7   8
ENDBRANCH   5   6
ENDBRANCH   4   5
ENDBRANCH   3   4
ENDBRANCH   2   3
TORSDOF 13
ENDMDL
MODEL      156
REMARK 921   NORMALIZED FREE ENERGY PREDICTED BY IDOCK:   -3.94 KCAL/MOL
REMARK 922        TOTAL FREE ENERGY PREDICTED BY IDOCK:   -8.69 KCAL/MOL
REMARK 923 INTER-LIGAND FREE ENERGY PREDICTED BY IDOCK:   -7.17 KCAL/MOL
REMARK 924 INTRA-LIGAND FREE ENERGY PREDICTED BY IDOCK:   -1.52 KCAL/MOL
REMARK 927      BINDING AFFINITY PREDICTED BY RF-SCORE:    0.00 PKD
ROOT
HETATM    1  C   UNL     1      -8.996   9.314  70.650  1.00  0.00    -0.296 C  
HETATM    2  C   UNL     1      -9.869   8.441  71.533  1.00  0.00    -0.274 C  
ENDROOT
BRANCH   2   3
HETATM    3  C   UNL     1     -11.323   8.483  71.080  1.00  0.00    -0.319 C  
BRANCH   3   4
HETATM    4  C   UNL     1     -11.829   7.089  70.716  1.00  0.00    -0.401 C  
BRANCH   4   5
HETATM    5  C   UNL     1     -10.785   6.369  69.874  1.00  0.00    -0.332 C  
BRANCH   5   6
HETATM    6  C   UNL     1     -11.181   6.218  68.436  1.00  0.00    -0.272 C  
HETATM    7  C   UNL     1     -10.681   6.997  67.464  1.00  0.00    -0.352 C  
BRANCH   7   8
HETATM    8  C   UNL     1      -9.703   8.111  67.692  1.00  0.00    -0.200 C  
BRANCH   8   9
HETATM    9  C   UNL     1      -9.624   9.034  66.513  1.00  0.00    -0.286 C  
HETATM   10  C   UNL     1     -10.263  10.212  66.433  1.00  0.00    -0.288 C  
BRANCH  10  11
HETATM   11  C   UNL     1     -11.160  10.716  67.523  1.00  0.00    -0.367 C  
BRANCH  11  12
HETATM   12  C   UNL     1     -10.444  11.615  68.518  1.00  0.00    -0.236 C  
BRANCH  12  13
HETATM   13  C   UNL     1     -11.470  12.429  69.304  1.00  0.00    -0.349 C  
BRANCH  13  14
HETATM   14  C   UNL     1     -11.837  13.697  68.548  1.00  0.00    -0.406 C  
BRANCH  14  15
HETATM   15  C   UNL     1     -12.100  14.857  69.504  1.00  0.00    -0.315 C  
BRANCH  15  16
HETATM   16  C   UNL     1     -12.539  14.330  70.866  1.00  0.00    -0.426 C  
BRANCH  16  17
HETATM   17  C   UNL     1     -12.013  15.198  72.004  1.00  0.00    -0.479 C  
HETATM   18  C   UNL     1     -13.138  15.720  72.864  1.00  0.00    -0.521 C  
HETATM   19  O   UNL     1     -14.326  15.495  72.698  1.00  0.00    -0.455 OA 
HETATM   20  O   UNL     1     -12.688  16.497  73.879  1.00  0.00    -0.596 OA 
ENDBRANCH  16  17
ENDBRANCH  15  16
ENDBRANCH  14  15
ENDBRANCH  13  14
ENDBRANCH  12  13
ENDBRANCH  11  12
ENDBRANCH  10  11
ENDBRANCH   8   9
ENDBRANCH   7   8
ENDBRANCH   5   6
ENDBRANCH   4   5
ENDBRANCH   3   4
ENDBRANCH   2   3
TORSDOF 13
ENDMDL
MODEL      157
REMARK 921   NORMALIZED FREE ENERGY PREDICTED BY IDOCK:   -3.94 KCAL/MOL
REMARK 922        TOTAL FREE ENERGY PREDICTED BY IDOCK:   -8.68 KCAL/MOL
REMARK 923 INTER-LIGAND FREE ENERGY PREDICTED BY IDOCK:   -7.25 KCAL/MOL
REMARK 924 INTRA-LIGAND FREE ENERGY PREDICTED BY IDOCK:   -1.43 KCAL/MOL
REMARK 927      BINDING AFFINITY PREDICTED BY RF-SCORE:    0.00 PKD
ROOT
HETATM    1  C   UNL     1     -10.891  15.418  64.971  1.00  0.00    -0.462 C  
HETATM    2  C   UNL     1     -11.666  14.255  64.376  1.00  0.00    -0.405 C  
ENDROOT
BRANCH   2   3
HETATM    3  C   UNL     1     -12.548  13.589  65.424  1.00  0.00    -0.531 C  
BRANCH   3   4
HETATM    4  C   UNL     1     -11.782  12.510  66.186  1.00  0.00    -0.466 C  
BRANCH   4   5
HETATM    5  C   UNL     1     -11.825  12.807  67.679  1.00  0.00    -0.396 C  
BRANCH   5   6
HETATM    6  C   UNL     1     -10.615  12.322  68.419  1.00  0.00    -0.250 C  
HETATM    7  C   UNL     1     -10.670  11.327  69.319  1.00  0.00    -0.221 C  
BRANCH   7   8
HETATM    8  C   UNL     1     -11.928  10.609  69.711  1.00  0.00    -0.363 C  
BRANCH   8   9
HETATM    9  C   UNL     1     -12.690  11.354  70.766  1.00  0.00    -0.343 C  
HETATM   10  C   UNL     1     -13.144  10.800  71.901  1.00  0.00    -0.557 C  
BRANCH  10  11
HETATM   11  C   UNL     1     -12.956   9.347  72.218  1.00  0.00    -0.479 C  
BRANCH  11  12
HETATM   12  C   UNL     1     -14.145   8.488  71.817  1.00  0.00    -0.515 C  
BRANCH  12  13
HETATM   13  C   UNL     1     -13.656   7.110  71.379  1.00  0.00    -0.368 C  
BRANCH  13  14
HETATM   14  C   UNL     1     -12.137   7.044  71.417  1.00  0.00    -0.396 C  
BRANCH  14  15
HETATM   15  C   UNL     1     -11.577   6.368  70.169  1.00  0.00    -0.449 C  
BRANCH  15  16
HETATM   16  C   UNL     1     -10.480   7.227  69.550  1.00  0.00    -0.238 C  
BRANCH  16  17
HETATM   17  C   UNL     1      -9.570   6.411  68.638  1.00  0.00    -0.121 C  
HETATM   18  C   UNL     1     -10.111   6.351  67.231  1.00  0.00    -0.163 C  
HETATM   19  O   UNL     1     -11.140   6.876  66.839  1.00  0.00    -0.379 OA 
HETATM   20  O   UNL     1      -9.315   5.626  66.408  1.00  0.00    -0.147 OA 
ENDBRANCH  16  17
ENDBRANCH  15  16
ENDBRANCH  14  15
ENDBRANCH  13  14
ENDBRANCH  12  13
ENDBRANCH  11  12
ENDBRANCH  10  11
ENDBRANCH   8   9
ENDBRANCH   7   8
ENDBRANCH   5   6
ENDBRANCH   4   5
ENDBRANCH   3   4
ENDBRANCH   2   3
TORSDOF 13
ENDMDL
MODEL      158
REMARK 921   NORMALIZED FREE ENERGY PREDICTED BY IDOCK:   -3.93 KCAL/MOL
REMARK 922        TOTAL FREE ENERGY PREDICTED BY IDOCK:   -8.67 KCAL/MOL
REMARK 923 INTER-LIGAND FREE ENERGY PREDICTED BY IDOCK:   -5.85 KCAL/MOL
REMARK 924 INTRA-LIGAND FREE ENERGY PREDICTED BY IDOCK:   -2.82 KCAL/MOL
REMARK 927      BINDING AFFINITY PREDICTED BY RF-SCORE:    0.00 PKD
ROOT
HETATM    1  C   UNL     1     -10.541  15.542  65.371  1.00  0.00    -0.428 C  
HETATM    2  C   UNL     1     -10.979  15.102  66.757  1.00  0.00    -0.321 C  
ENDROOT
BRANCH   2   3
HETATM    3  C   UNL     1     -12.094  14.068  66.679  1.00  0.00    -0.487 C  
BRANCH   3   4
HETATM    4  C   UNL     1     -12.710  14.026  65.282  1.00  0.00    -0.468 C  
BRANCH   4   5
HETATM    5  C   UNL     1     -12.687  12.597  64.754  1.00  0.00    -0.460 C  
BRANCH   5   6
HETATM    6  C   UNL     1     -11.825  12.425  63.540  1.00  0.00    -0.605 C  
HETATM    7  C   UNL     1     -10.542  12.038  63.615  1.00  0.00    -0.503 C  
BRANCH   7   8
HETATM    8  C   UNL     1      -9.815  11.762  64.898  1.00  0.00    -0.251 C  
BRANCH   8   9
HETATM    9  C   UNL     1      -9.813  10.301  65.234  1.00  0.00    -0.372 C  
HETATM   10  C   UNL     1      -8.707   9.543  65.299  1.00  0.00    -0.193 C  
BRANCH  10  11
HETATM   11  C   UNL     1      -7.341  10.087  65.007  1.00  0.00    -0.140 C  
BRANCH  11  12
HETATM   12  C   UNL     1      -6.443  10.139  66.233  1.00  0.00    -0.085 C  
BRANCH  12  13
HETATM   13  C   UNL     1      -6.491  11.538  66.843  1.00  0.00    -0.144 C  
BRANCH  13  14
HETATM   14  C   UNL     1      -7.265  11.523  68.153  1.00  0.00    -0.080 C  
BRANCH  14  15
HETATM   15  C   UNL     1      -8.414  12.527  68.132  1.00  0.00    -0.180 C  
BRANCH  15  16
HETATM   16  C   UNL     1      -9.718  11.846  68.534  1.00  0.00    -0.173 C  
BRANCH  16  17
HETATM   17  C   UNL     1      -9.502  10.379  68.892  1.00  0.00    -0.190 C  
HETATM   18  C   UNL     1     -10.480   9.919  69.945  1.00  0.00    -0.269 C  
HETATM   19  O   UNL     1     -11.345  10.606  70.463  1.00  0.00    -0.314 OA 
HETATM   20  O   UNL     1     -10.300   8.618  70.277  1.00  0.00    -0.190 OA 
ENDBRANCH  16  17
ENDBRANCH  15  16
ENDBRANCH  14  15
ENDBRANCH  13  14
ENDBRANCH  12  13
ENDBRANCH  11  12
ENDBRANCH  10  11
ENDBRANCH   8   9
ENDBRANCH   7   8
ENDBRANCH   5   6
ENDBRANCH   4   5
ENDBRANCH   3   4
ENDBRANCH   2   3
TORSDOF 13
ENDMDL
MODEL      159
REMARK 921   NORMALIZED FREE ENERGY PREDICTED BY IDOCK:   -3.93 KCAL/MOL
REMARK 922        TOTAL FREE ENERGY PREDICTED BY IDOCK:   -8.66 KCAL/MOL
REMARK 923 INTER-LIGAND FREE ENERGY PREDICTED BY IDOCK:   -6.25 KCAL/MOL
REMARK 924 INTRA-LIGAND FREE ENERGY PREDICTED BY IDOCK:   -2.41 KCAL/MOL
REMARK 927      BINDING AFFINITY PREDICTED BY RF-SCORE:    0.00 PKD
ROOT
HETATM    1  C   UNL     1      -7.145  14.240  69.092  1.00  0.00    -0.117 C  
HETATM    2  C   UNL     1      -7.404  14.187  67.596  1.00  0.00    -0.191 C  
ENDROOT
BRANCH   2   3
HETATM    3  C   UNL     1      -7.669  12.759  67.135  1.00  0.00    -0.072 C  
BRANCH   3   4
HETATM    4  C   UNL     1      -8.756  12.099  67.980  1.00  0.00    -0.180 C  
BRANCH   4   5
HETATM    5  C   UNL     1      -9.683  11.290  67.083  1.00  0.00    -0.201 C  
BRANCH   5   6
HETATM    6  C   UNL     1      -9.051  10.886  65.785  1.00  0.00    -0.214 C  
HETATM    7  C   UNL     1      -9.663  11.051  64.602  1.00  0.00    -0.315 C  
BRANCH   7   8
HETATM    8  C   UNL     1     -11.039  11.624  64.434  1.00  0.00    -0.382 C  
BRANCH   8   9
HETATM    9  C   UNL     1     -10.998  13.025  63.900  1.00  0.00    -0.375 C  
HETATM   10  C   UNL     1     -11.414  14.104  64.581  1.00  0.00    -0.392 C  
BRANCH  10  11
HETATM   11  C   UNL     1     -11.998  14.010  65.959  1.00  0.00    -0.434 C  
BRANCH  11  12
HETATM   12  C   UNL     1     -11.064  14.527  67.041  1.00  0.00    -0.324 C  
BRANCH  12  13
HETATM   13  C   UNL     1     -11.834  14.681  68.351  1.00  0.00    -0.330 C  
BRANCH  13  14
HETATM   14  C   UNL     1     -11.596  16.059  68.951  1.00  0.00    -0.354 C  
BRANCH  14  15
HETATM   15  C   UNL     1     -10.108  16.394  69.002  1.00  0.00    -0.262 C  
BRANCH  15  16
HETATM   16  C   UNL     1      -9.887  17.867  68.670  1.00  0.00    -0.375 C  
BRANCH  16  17
HETATM   17  C   UNL     1     -10.822  18.342  67.563  1.00  0.00    -0.304 C  
HETATM   18  C   UNL     1     -10.214  18.126  66.199  1.00  0.00    -0.367 C  
HETATM   19  O   UNL     1      -9.119  17.636  65.975  1.00  0.00    -0.493 OA 
HETATM   20  O   UNL     1     -11.030  18.547  65.203  1.00  0.00    -0.571 OA 
ENDBRANCH  16  17
ENDBRANCH  15  16
ENDBRANCH  14  15
ENDBRANCH  13  14
ENDBRANCH  12  13
ENDBRANCH  11  12
ENDBRANCH  10  11
ENDBRANCH   8   9
ENDBRANCH   7   8
ENDBRANCH   5   6
ENDBRANCH   4   5
ENDBRANCH   3   4
ENDBRANCH   2   3
TORSDOF 13
ENDMDL
MODEL      160
REMARK 921   NORMALIZED FREE ENERGY PREDICTED BY IDOCK:   -3.93 KCAL/MOL
REMARK 922        TOTAL FREE ENERGY PREDICTED BY IDOCK:   -8.66 KCAL/MOL
REMARK 923 INTER-LIGAND FREE ENERGY PREDICTED BY IDOCK:   -6.75 KCAL/MOL
REMARK 924 INTRA-LIGAND FREE ENERGY PREDICTED BY IDOCK:   -1.92 KCAL/MOL
REMARK 927      BINDING AFFINITY PREDICTED BY RF-SCORE:    0.00 PKD
ROOT
HETATM    1  C   UNL     1     -13.149  15.681  73.152  1.00  0.00    -0.666 C  
HETATM    2  C   UNL     1     -13.739  14.545  72.335  1.00  0.00    -0.583 C  
ENDROOT
BRANCH   2   3
HETATM    3  C   UNL     1     -12.907  14.275  71.088  1.00  0.00    -0.429 C  
BRANCH   3   4
HETATM    4  C   UNL     1     -11.891  15.391  70.850  1.00  0.00    -0.400 C  
BRANCH   4   5
HETATM    5  C   UNL     1     -11.749  15.644  69.355  1.00  0.00    -0.395 C  
BRANCH   5   6
HETATM    6  C   UNL     1     -11.919  14.409  68.524  1.00  0.00    -0.333 C  
HETATM    7  C   UNL     1     -10.887  13.624  68.177  1.00  0.00    -0.262 C  
BRANCH   7   8
HETATM    8  C   UNL     1      -9.458  13.893  68.548  1.00  0.00    -0.174 C  
BRANCH   8   9
HETATM    9  C   UNL     1      -8.560  13.892  67.347  1.00  0.00    -0.206 C  
HETATM   10  C   UNL     1      -7.819  12.842  66.960  1.00  0.00    -0.006 C  
BRANCH  10  11
HETATM   11  C   UNL     1      -7.793  11.552  67.721  1.00  0.00    -0.126 C  
BRANCH  11  12
HETATM   12  C   UNL     1      -8.475  10.409  66.986  1.00  0.00    -0.127 C  
BRANCH  12  13
HETATM   13  C   UNL     1      -7.859  10.253  65.598  1.00  0.00    -0.151 C  
BRANCH  13  14
HETATM   14  C   UNL     1      -8.942  10.012  64.557  1.00  0.00    -0.261 C  
BRANCH  14  15
HETATM   15  C   UNL     1     -10.285  10.577  65.011  1.00  0.00    -0.365 C  
BRANCH  15  16
HETATM   16  C   UNL     1     -10.633  11.824  64.204  1.00  0.00    -0.403 C  
BRANCH  16  17
HETATM   17  C   UNL     1     -12.009  12.370  64.573  1.00  0.00    -0.474 C  
HETATM   18  C   UNL     1     -11.955  13.850  64.860  1.00  0.00    -0.395 C  
HETATM   19  O   UNL     1     -10.957  14.550  64.813  1.00  0.00    -0.390 OA 
HETATM   20  O   UNL     1     -13.169  14.351  65.193  1.00  0.00    -0.602 OA 
ENDBRANCH  16  17
ENDBRANCH  15  16
ENDBRANCH  14  15
ENDBRANCH  13  14
ENDBRANCH  12  13
ENDBRANCH  11  12
ENDBRANCH  10  11
ENDBRANCH   8   9
ENDBRANCH   7   8
ENDBRANCH   5   6
ENDBRANCH   4   5
ENDBRANCH   3   4
ENDBRANCH   2   3
TORSDOF 13
ENDMDL
MODEL      161
REMARK 921   NORMALIZED FREE ENERGY PREDICTED BY IDOCK:   -3.92 KCAL/MOL
REMARK 922        TOTAL FREE ENERGY PREDICTED BY IDOCK:   -8.65 KCAL/MOL
REMARK 923 INTER-LIGAND FREE ENERGY PREDICTED BY IDOCK:   -6.58 KCAL/MOL
REMARK 924 INTRA-LIGAND FREE ENERGY PREDICTED BY IDOCK:   -2.07 KCAL/MOL
REMARK 927      BINDING AFFINITY PREDICTED BY RF-SCORE:    0.00 PKD
ROOT
HETATM    1  C   UNL     1      -8.694   8.069  73.635  1.00  0.00    -0.332 C  
HETATM    2  C   UNL     1      -7.988   7.748  72.329  1.00  0.00    -0.136 C  
ENDROOT
BRANCH   2   3
HETATM    3  C   UNL     1      -8.066   6.260  72.014  1.00  0.00    -0.109 C  
BRANCH   3   4
HETATM    4  C   UNL     1      -8.473   6.025  70.560  1.00  0.00    -0.132 C  
BRANCH   4   5
HETATM    5  C   UNL     1      -9.791   5.264  70.513  1.00  0.00    -0.274 C  
BRANCH   5   6
HETATM    6  C   UNL     1     -10.531   5.275  71.817  1.00  0.00    -0.278 C  
HETATM    7  C   UNL     1     -11.554   6.110  72.059  1.00  0.00    -0.364 C  
BRANCH   7   8
HETATM    8  C   UNL     1     -12.057   7.136  71.088  1.00  0.00    -0.397 C  
BRANCH   8   9
HETATM    9  C   UNL     1     -11.748   8.532  71.540  1.00  0.00    -0.354 C  
HETATM   10  C   UNL     1     -10.939   9.376  70.880  1.00  0.00    -0.391 C  
BRANCH  10  11
HETATM   11  C   UNL     1     -10.229   8.990  69.618  1.00  0.00    -0.211 C  
BRANCH  11  12
HETATM   12  C   UNL     1     -10.374  10.022  68.511  1.00  0.00    -0.217 C  
BRANCH  12  13
HETATM   13  C   UNL     1     -11.161  11.223  69.029  1.00  0.00    -0.321 C  
BRANCH  13  14
HETATM   14  C   UNL     1     -11.591  12.118  67.876  1.00  0.00    -0.413 C  
BRANCH  14  15
HETATM   15  C   UNL     1     -11.727  13.571  68.321  1.00  0.00    -0.394 C  
BRANCH  15  16
HETATM   16  C   UNL     1     -12.028  14.464  67.121  1.00  0.00    -0.419 C  
BRANCH  16  17
HETATM   17  C   UNL     1     -12.449  13.650  65.903  1.00  0.00    -0.502 C  
HETATM   18  C   UNL     1     -11.759  14.134  64.651  1.00  0.00    -0.417 C  
HETATM   19  O   UNL     1     -10.961  15.055  64.588  1.00  0.00    -0.372 OA 
HETATM   20  O   UNL     1     -12.124  13.423  63.557  1.00  0.00    -0.549 OA 
ENDBRANCH  16  17
ENDBRANCH  15  16
ENDBRANCH  14  15
ENDBRANCH  13  14
ENDBRANCH  12  13
ENDBRANCH  11  12
ENDBRANCH  10  11
ENDBRANCH   8   9
ENDBRANCH   7   8
ENDBRANCH   5   6
ENDBRANCH   4   5
ENDBRANCH   3   4
ENDBRANCH   2   3
TORSDOF 13
ENDMDL
MODEL      162
REMARK 921   NORMALIZED FREE ENERGY PREDICTED BY IDOCK:   -3.92 KCAL/MOL
REMARK 922        TOTAL FREE ENERGY PREDICTED BY IDOCK:   -8.65 KCAL/MOL
REMARK 923 INTER-LIGAND FREE ENERGY PREDICTED BY IDOCK:   -6.51 KCAL/MOL
REMARK 924 INTRA-LIGAND FREE ENERGY PREDICTED BY IDOCK:   -2.14 KCAL/MOL
REMARK 927      BINDING AFFINITY PREDICTED BY RF-SCORE:    0.00 PKD
ROOT
HETATM    1  C   UNL     1     -12.084   9.242  71.819  1.00  0.00    -0.457 C  
HETATM    2  C   UNL     1     -12.800  10.480  71.309  1.00  0.00    -0.532 C  
ENDROOT
BRANCH   2   3
HETATM    3  C   UNL     1     -12.037  11.120  70.156  1.00  0.00    -0.443 C  
BRANCH   3   4
HETATM    4  C   UNL     1     -10.885  10.230  69.695  1.00  0.00    -0.311 C  
BRANCH   4   5
HETATM    5  C   UNL     1     -10.841  10.196  68.173  1.00  0.00    -0.310 C  
BRANCH   5   6
HETATM    6  C   UNL     1      -9.559  10.725  67.603  1.00  0.00    -0.174 C  
HETATM    7  C   UNL     1      -9.352  10.846  66.282  1.00  0.00    -0.203 C  
BRANCH   7   8
HETATM    8  C   UNL     1     -10.347  10.450  65.230  1.00  0.00    -0.267 C  
BRANCH   8   9
HETATM    9  C   UNL     1     -10.238  11.310  64.007  1.00  0.00    -0.403 C  
HETATM   10  C   UNL     1     -11.094  12.297  63.701  1.00  0.00    -0.537 C  
BRANCH  10  11
HETATM   11  C   UNL     1     -12.283  12.624  64.553  1.00  0.00    -0.514 C  
BRANCH  11  12
HETATM   12  C   UNL     1     -12.041  13.791  65.496  1.00  0.00    -0.434 C  
BRANCH  12  13
HETATM   13  C   UNL     1     -12.018  13.288  66.938  1.00  0.00    -0.430 C  
BRANCH  13  14
HETATM   14  C   UNL     1     -11.972  14.457  67.911  1.00  0.00    -0.348 C  
BRANCH  14  15
HETATM   15  C   UNL     1     -10.867  14.275  68.947  1.00  0.00    -0.272 C  
BRANCH  15  16
HETATM   16  C   UNL     1      -9.498  14.358  68.279  1.00  0.00    -0.207 C  
BRANCH  16  17
HETATM   17  C   UNL     1      -8.591  15.367  68.973  1.00  0.00    -0.227 C  
HETATM   18  C   UNL     1      -7.224  14.786  69.243  1.00  0.00    -0.167 C  
HETATM   19  O   UNL     1      -6.860  13.657  68.956  1.00  0.00    -0.107 OA 
HETATM   20  O   UNL     1      -6.406  15.669  69.864  1.00  0.00    -0.165 OA 
ENDBRANCH  16  17
ENDBRANCH  15  16
ENDBRANCH  14  15
ENDBRANCH  13  14
ENDBRANCH  12  13
ENDBRANCH  11  12
ENDBRANCH  10  11
ENDBRANCH   8   9
ENDBRANCH   7   8
ENDBRANCH   5   6
ENDBRANCH   4   5
ENDBRANCH   3   4
ENDBRANCH   2   3
TORSDOF 13
ENDMDL
MODEL      163
REMARK 921   NORMALIZED FREE ENERGY PREDICTED BY IDOCK:   -3.90 KCAL/MOL
REMARK 922        TOTAL FREE ENERGY PREDICTED BY IDOCK:   -8.62 KCAL/MOL
REMARK 923 INTER-LIGAND FREE ENERGY PREDICTED BY IDOCK:   -6.40 KCAL/MOL
REMARK 924 INTRA-LIGAND FREE ENERGY PREDICTED BY IDOCK:   -2.21 KCAL/MOL
REMARK 927      BINDING AFFINITY PREDICTED BY RF-SCORE:    0.00 PKD
ROOT
HETATM    1  C   UNL     1      -9.967   5.368  71.500  1.00  0.00    -0.237 C  
HETATM    2  C   UNL     1     -11.320   5.816  72.025  1.00  0.00    -0.289 C  
ENDROOT
BRANCH   2   3
HETATM    3  C   UNL     1     -11.952   6.850  71.103  1.00  0.00    -0.413 C  
BRANCH   3   4
HETATM    4  C   UNL     1     -10.940   7.919  70.695  1.00  0.00    -0.248 C  
BRANCH   4   5
HETATM    5  C   UNL     1     -10.992   9.077  71.682  1.00  0.00    -0.435 C  
BRANCH   5   6
HETATM    6  C   UNL     1     -12.370   9.632  71.878  1.00  0.00    -0.437 C  
HETATM    7  C   UNL     1     -12.814  10.712  71.215  1.00  0.00    -0.535 C  
BRANCH   7   8
HETATM    8  C   UNL     1     -11.995  11.499  70.236  1.00  0.00    -0.455 C  
BRANCH   8   9
HETATM    9  C   UNL     1     -12.158  10.991  68.835  1.00  0.00    -0.239 C  
HETATM   10  C   UNL     1     -11.141  10.612  68.046  1.00  0.00    -0.361 C  
BRANCH  10  11
HETATM   11  C   UNL     1      -9.710  10.687  68.486  1.00  0.00    -0.177 C  
BRANCH  11  12
HETATM   12  C   UNL     1      -8.939  11.817  67.825  1.00  0.00    -0.173 C  
BRANCH  12  13
HETATM   13  C   UNL     1      -9.379  11.954  66.369  1.00  0.00    -0.233 C  
BRANCH  13  14
HETATM   14  C   UNL     1      -9.896  13.359  66.097  1.00  0.00    -0.289 C  
BRANCH  14  15
HETATM   15  C   UNL     1     -11.400  13.359  65.841  1.00  0.00    -0.327 C  
BRANCH  15  16
HETATM   16  C   UNL     1     -12.108  14.253  66.854  1.00  0.00    -0.440 C  
BRANCH  16  17
HETATM   17  C   UNL     1     -11.137  15.208  67.540  1.00  0.00    -0.319 C  
HETATM   18  C   UNL     1     -11.607  15.569  68.928  1.00  0.00    -0.373 C  
HETATM   19  O   UNL     1     -12.627  15.166  69.463  1.00  0.00    -0.135 OA 
HETATM   20  O   UNL     1     -10.757  16.420  69.551  1.00  0.00    -0.288 OA 
ENDBRANCH  16  17
ENDBRANCH  15  16
ENDBRANCH  14  15
ENDBRANCH  13  14
ENDBRANCH  12  13
ENDBRANCH  11  12
ENDBRANCH  10  11
ENDBRANCH   8   9
ENDBRANCH   7   8
ENDBRANCH   5   6
ENDBRANCH   4   5
ENDBRANCH   3   4
ENDBRANCH   2   3
TORSDOF 13
ENDMDL
MODEL      164
REMARK 921   NORMALIZED FREE ENERGY PREDICTED BY IDOCK:   -3.89 KCAL/MOL
REMARK 922        TOTAL FREE ENERGY PREDICTED BY IDOCK:   -8.59 KCAL/MOL
REMARK 923 INTER-LIGAND FREE ENERGY PREDICTED BY IDOCK:   -6.22 KCAL/MOL
REMARK 924 INTRA-LIGAND FREE ENERGY PREDICTED BY IDOCK:   -2.36 KCAL/MOL
REMARK 927      BINDING AFFINITY PREDICTED BY RF-SCORE:    0.00 PKD
ROOT
HETATM    1  C   UNL     1     -12.778  13.405  64.436  1.00  0.00    -0.156 C  
HETATM    2  C   UNL     1     -12.258  12.101  63.857  1.00  0.00    -0.587 C  
ENDROOT
BRANCH   2   3
HETATM    3  C   UNL     1     -10.766  12.187  63.562  1.00  0.00    -0.509 C  
BRANCH   3   4
HETATM    4  C   UNL     1      -9.955  11.384  64.577  1.00  0.00    -0.318 C  
BRANCH   4   5
HETATM    5  C   UNL     1     -10.373  11.771  65.989  1.00  0.00    -0.276 C  
BRANCH   5   6
HETATM    6  C   UNL     1      -9.265  12.386  66.790  1.00  0.00    -0.212 C  
HETATM    7  C   UNL     1      -9.064  13.712  66.846  1.00  0.00    -0.249 C  
BRANCH   7   8
HETATM    8  C   UNL     1      -9.888  14.724  66.106  1.00  0.00    -0.335 C  
BRANCH   8   9
HETATM    9  C   UNL     1      -9.209  16.059  66.046  1.00  0.00    -0.375 C  
HETATM   10  C   UNL     1      -9.534  17.106  66.820  1.00  0.00    -0.278 C  
BRANCH  10  11
HETATM   11  C   UNL     1     -10.648  17.052  67.820  1.00  0.00    -0.350 C  
BRANCH  11  12
HETATM   12  C   UNL     1     -10.166  16.810  69.241  1.00  0.00    -0.278 C  
BRANCH  12  13
HETATM   13  C   UNL     1     -10.672  15.456  69.731  1.00  0.00    -0.300 C  
BRANCH  13  14
HETATM   14  C   UNL     1     -12.035  15.146  69.129  1.00  0.00    -0.304 C  
BRANCH  14  15
HETATM   15  C   UNL     1     -12.186  13.657  68.832  1.00  0.00    -0.221 C  
BRANCH  15  16
HETATM   16  C   UNL     1     -11.417  12.833  69.860  1.00  0.00    -0.141 C  
BRANCH  16  17
HETATM   17  C   UNL     1     -12.281  11.731  70.462  1.00  0.00    -0.438 C  
HETATM   18  C   UNL     1     -11.548  10.412  70.497  1.00  0.00    -0.344 C  
HETATM   19  O   UNL     1     -10.410  10.218  70.103  1.00  0.00    -0.256 OA 
HETATM   20  O   UNL     1     -12.304   9.420  71.027  1.00  0.00    -0.297 OA 
ENDBRANCH  16  17
ENDBRANCH  15  16
ENDBRANCH  14  15
ENDBRANCH  13  14
ENDBRANCH  12  13
ENDBRANCH  11  12
ENDBRANCH  10  11
ENDBRANCH   8   9
ENDBRANCH   7   8
ENDBRANCH   5   6
ENDBRANCH   4   5
ENDBRANCH   3   4
ENDBRANCH   2   3
TORSDOF 13
ENDMDL
MODEL      165
REMARK 921   NORMALIZED FREE ENERGY PREDICTED BY IDOCK:   -3.88 KCAL/MOL
REMARK 922        TOTAL FREE ENERGY PREDICTED BY IDOCK:   -8.58 KCAL/MOL
REMARK 923 INTER-LIGAND FREE ENERGY PREDICTED BY IDOCK:   -6.92 KCAL/MOL
REMARK 924 INTRA-LIGAND FREE ENERGY PREDICTED BY IDOCK:   -1.66 KCAL/MOL
REMARK 927      BINDING AFFINITY PREDICTED BY RF-SCORE:    0.00 PKD
ROOT
HETATM    1  C   UNL     1     -10.726  15.304  65.056  1.00  0.00    -0.461 C  
HETATM    2  C   UNL     1     -11.296  14.354  66.094  1.00  0.00    -0.350 C  
ENDROOT
BRANCH   2   3
HETATM    3  C   UNL     1     -12.380  13.469  65.492  1.00  0.00    -0.524 C  
BRANCH   3   4
HETATM    4  C   UNL     1     -12.267  13.415  63.970  1.00  0.00    -0.466 C  
BRANCH   4   5
HETATM    5  C   UNL     1     -11.829  12.023  63.537  1.00  0.00    -0.587 C  
BRANCH   5   6
HETATM    6  C   UNL     1     -10.342  11.876  63.418  1.00  0.00    -0.481 C  
HETATM    7  C   UNL     1      -9.610  11.196  64.315  1.00  0.00    -0.288 C  
BRANCH   7   8
HETATM    8  C   UNL     1     -10.172  10.534  65.539  1.00  0.00    -0.325 C  
BRANCH   8   9
HETATM    9  C   UNL     1      -9.467   9.249  65.852  1.00  0.00    -0.325 C  
HETATM   10  C   UNL     1      -9.664   8.533  66.970  1.00  0.00    -0.266 C  
BRANCH  10  11
HETATM   11  C   UNL     1     -10.607   8.971  68.050  1.00  0.00    -0.242 C  
BRANCH  11  12
HETATM   12  C   UNL     1      -9.901   9.593  69.243  1.00  0.00    -0.195 C  
BRANCH  12  13
HETATM   13  C   UNL     1     -10.937  10.140  70.223  1.00  0.00    -0.380 C  
BRANCH  13  14
HETATM   14  C   UNL     1     -11.059   9.228  71.436  1.00  0.00    -0.437 C  
BRANCH  14  15
HETATM   15  C   UNL     1     -12.325   8.380  71.370  1.00  0.00    -0.328 C  
BRANCH  15  16
HETATM   16  C   UNL     1     -11.991   6.913  71.618  1.00  0.00    -0.379 C  
BRANCH  16  17
HETATM   17  C   UNL     1     -11.309   6.277  70.411  1.00  0.00    -0.440 C  
HETATM   18  C   UNL     1      -9.885   5.889  70.725  1.00  0.00    -0.183 C  
HETATM   19  O   UNL     1      -9.322   6.048  71.795  1.00  0.00    -0.149 OA 
HETATM   20  O   UNL     1      -9.262   5.325  69.662  1.00  0.00    -0.112 OA 
ENDBRANCH  16  17
ENDBRANCH  15  16
ENDBRANCH  14  15
ENDBRANCH  13  14
ENDBRANCH  12  13
ENDBRANCH  11  12
ENDBRANCH  10  11
ENDBRANCH   8   9
ENDBRANCH   7   8
ENDBRANCH   5   6
ENDBRANCH   4   5
ENDBRANCH   3   4
ENDBRANCH   2   3
TORSDOF 13
ENDMDL
MODEL      166
REMARK 921   NORMALIZED FREE ENERGY PREDICTED BY IDOCK:   -3.88 KCAL/MOL
REMARK 922        TOTAL FREE ENERGY PREDICTED BY IDOCK:   -8.58 KCAL/MOL
REMARK 923 INTER-LIGAND FREE ENERGY PREDICTED BY IDOCK:   -5.98 KCAL/MOL
REMARK 924 INTRA-LIGAND FREE ENERGY PREDICTED BY IDOCK:   -2.60 KCAL/MOL
REMARK 927      BINDING AFFINITY PREDICTED BY RF-SCORE:    0.00 PKD
ROOT
HETATM    1  C   UNL     1     -12.059  12.247  63.614  1.00  0.00    -0.648 C  
HETATM    2  C   UNL     1     -11.205  12.365  64.864  1.00  0.00    -0.353 C  
ENDROOT
BRANCH   2   3
HETATM    3  C   UNL     1     -11.320  13.754  65.478  1.00  0.00    -0.313 C  
BRANCH   3   4
HETATM    4  C   UNL     1     -12.266  13.751  66.677  1.00  0.00    -0.454 C  
BRANCH   4   5
HETATM    5  C   UNL     1     -11.895  12.614  67.620  1.00  0.00    -0.390 C  
BRANCH   5   6
HETATM    6  C   UNL     1     -11.559  13.076  69.006  1.00  0.00    -0.367 C  
HETATM    7  C   UNL     1     -11.828  12.340  70.097  1.00  0.00    -0.352 C  
BRANCH   7   8
HETATM    8  C   UNL     1     -12.509  11.004  70.069  1.00  0.00    -0.319 C  
BRANCH   8   9
HETATM    9  C   UNL     1     -12.209  10.199  71.298  1.00  0.00    -0.496 C  
HETATM   10  C   UNL     1     -11.305   9.209  71.350  1.00  0.00    -0.414 C  
BRANCH  10  11
HETATM   11  C   UNL     1     -10.510   8.782  70.153  1.00  0.00    -0.230 C  
BRANCH  11  12
HETATM   12  C   UNL     1      -9.213   9.556  69.988  1.00  0.00    -0.264 C  
BRANCH  12  13
HETATM   13  C   UNL     1      -9.155  10.169  68.591  1.00  0.00    -0.143 C  
BRANCH  13  14
HETATM   14  C   UNL     1      -8.198  11.351  68.565  1.00  0.00    -0.153 C  
BRANCH  14  15
HETATM   15  C   UNL     1      -8.308  12.127  67.256  1.00  0.00    -0.179 C  
BRANCH  15  16
HETATM   16  C   UNL     1      -7.581  13.463  67.371  1.00  0.00    -0.138 C  
BRANCH  16  17
HETATM   17  C   UNL     1      -8.531  14.593  67.752  1.00  0.00    -0.178 C  
HETATM   18  C   UNL     1      -8.141  15.221  69.068  1.00  0.00    -0.202 C  
HETATM   19  O   UNL     1      -7.194  14.892  69.762  1.00  0.00    -0.178 OA 
HETATM   20  O   UNL     1      -8.978  16.225  69.423  1.00  0.00    -0.207 OA 
ENDBRANCH  16  17
ENDBRANCH  15  16
ENDBRANCH  14  15
ENDBRANCH  13  14
ENDBRANCH  12  13
ENDBRANCH  11  12
ENDBRANCH  10  11
ENDBRANCH   8   9
ENDBRANCH   7   8
ENDBRANCH   5   6
ENDBRANCH   4   5
ENDBRANCH   3   4
ENDBRANCH   2   3
TORSDOF 13
ENDMDL
MODEL      167
REMARK 921   NORMALIZED FREE ENERGY PREDICTED BY IDOCK:   -3.88 KCAL/MOL
REMARK 922        TOTAL FREE ENERGY PREDICTED BY IDOCK:   -8.57 KCAL/MOL
REMARK 923 INTER-LIGAND FREE ENERGY PREDICTED BY IDOCK:   -6.12 KCAL/MOL
REMARK 924 INTRA-LIGAND FREE ENERGY PREDICTED BY IDOCK:   -2.45 KCAL/MOL
REMARK 927      BINDING AFFINITY PREDICTED BY RF-SCORE:    0.00 PKD
ROOT
HETATM    1  C   UNL     1     -10.889  15.931  65.013  1.00  0.00    -0.444 C  
HETATM    2  C   UNL     1     -11.558  14.606  65.331  1.00  0.00    -0.345 C  
ENDROOT
BRANCH   2   3
HETATM    3  C   UNL     1     -11.880  13.834  64.058  1.00  0.00    -0.410 C  
BRANCH   3   4
HETATM    4  C   UNL     1     -12.669  12.563  64.367  1.00  0.00    -0.447 C  
BRANCH   4   5
HETATM    5  C   UNL     1     -11.720  11.477  64.854  1.00  0.00     0.021 C  
BRANCH   5   6
HETATM    6  C   UNL     1     -10.522  11.293  63.972  1.00  0.00    -0.440 C  
HETATM    7  C   UNL     1      -9.306  10.999  64.458  1.00  0.00    -0.227 C  
BRANCH   7   8
HETATM    8  C   UNL     1      -8.992  10.846  65.917  1.00  0.00    -0.206 C  
BRANCH   8   9
HETATM    9  C   UNL     1      -8.894  12.173  66.608  1.00  0.00    -0.182 C  
HETATM   10  C   UNL     1      -9.453  12.447  67.798  1.00  0.00    -0.199 C  
BRANCH  10  11
HETATM   11  C   UNL     1     -10.270  11.444  68.553  1.00  0.00    -0.216 C  
BRANCH  11  12
HETATM   12  C   UNL     1     -11.760  11.748  68.533  1.00  0.00    -0.390 C  
BRANCH  12  13
HETATM   13  C   UNL     1     -11.977  13.253  68.676  1.00  0.00    -0.345 C  
BRANCH  13  14
HETATM   14  C   UNL     1     -12.070  13.642  70.144  1.00  0.00    -0.431 C  
BRANCH  14  15
HETATM   15  C   UNL     1     -11.817  15.134  70.340  1.00  0.00    -0.349 C  
BRANCH  15  16
HETATM   16  C   UNL     1     -10.777  15.629  69.339  1.00  0.00    -0.252 C  
BRANCH  16  17
HETATM   17  C   UNL     1     -11.349  16.698  68.413  1.00  0.00    -0.142 C  
HETATM   18  C   UNL     1     -10.341  17.787  68.140  1.00  0.00    -0.391 C  
HETATM   19  O   UNL     1      -9.206  17.836  68.585  1.00  0.00    -0.283 OA 
HETATM   20  O   UNL     1     -10.834  18.747  67.321  1.00  0.00    -0.443 OA 
ENDBRANCH  16  17
ENDBRANCH  15  16
ENDBRANCH  14  15
ENDBRANCH  13  14
ENDBRANCH  12  13
ENDBRANCH  11  12
ENDBRANCH  10  11
ENDBRANCH   8   9
ENDBRANCH   7   8
ENDBRANCH   5   6
ENDBRANCH   4   5
ENDBRANCH   3   4
ENDBRANCH   2   3
TORSDOF 13
ENDMDL
MODEL      168
REMARK 921   NORMALIZED FREE ENERGY PREDICTED BY IDOCK:   -3.87 KCAL/MOL
REMARK 922        TOTAL FREE ENERGY PREDICTED BY IDOCK:   -8.56 KCAL/MOL
REMARK 923 INTER-LIGAND FREE ENERGY PREDICTED BY IDOCK:   -6.96 KCAL/MOL
REMARK 924 INTRA-LIGAND FREE ENERGY PREDICTED BY IDOCK:   -1.60 KCAL/MOL
REMARK 927      BINDING AFFINITY PREDICTED BY RF-SCORE:    0.00 PKD
ROOT
HETATM    1  C   UNL     1     -12.973  10.704  71.570  1.00  0.00    -0.566 C  
HETATM    2  C   UNL     1     -12.886   9.244  71.979  1.00  0.00    -0.495 C  
ENDROOT
BRANCH   2   3
HETATM    3  C   UNL     1     -11.463   8.719  71.840  1.00  0.00    -0.428 C  
BRANCH   3   4
HETATM    4  C   UNL     1     -11.426   7.194  71.927  1.00  0.00    -0.305 C  
BRANCH   4   5
HETATM    5  C   UNL     1     -11.808   6.595  70.580  1.00  0.00    -0.443 C  
BRANCH   5   6
HETATM    6  C   UNL     1     -10.750   5.703  70.004  1.00  0.00    -0.390 C  
HETATM    7  C   UNL     1     -10.433   5.709  68.699  1.00  0.00    -0.277 C  
BRANCH   7   8
HETATM    8  C   UNL     1     -11.103   6.571  67.670  1.00  0.00    -0.380 C  
BRANCH   8   9
HETATM    9  C   UNL     1     -10.122   7.447  66.950  1.00  0.00    -0.327 C  
HETATM   10  C   UNL     1      -9.816   8.700  67.321  1.00  0.00    -0.256 C  
BRANCH  10  11
HETATM   11  C   UNL     1     -10.460   9.371  68.496  1.00  0.00    -0.239 C  
BRANCH  11  12
HETATM   12  C   UNL     1     -11.394  10.503  68.101  1.00  0.00    -0.324 C  
BRANCH  12  13
HETATM   13  C   UNL     1     -10.665  11.839  68.234  1.00  0.00    -0.246 C  
BRANCH  13  14
HETATM   14  C   UNL     1     -11.609  12.994  67.935  1.00  0.00    -0.385 C  
BRANCH  14  15
HETATM   15  C   UNL     1     -11.438  13.496  66.504  1.00  0.00    -0.365 C  
BRANCH  15  16
HETATM   16  C   UNL     1     -10.914  14.929  66.506  1.00  0.00    -0.327 C  
BRANCH  16  17
HETATM   17  C   UNL     1     -11.180  15.625  67.836  1.00  0.00    -0.328 C  
HETATM   18  C   UNL     1     -10.215  16.762  68.066  1.00  0.00    -0.300 C  
HETATM   19  O   UNL     1      -9.325  17.107  67.305  1.00  0.00    -0.236 OA 
HETATM   20  O   UNL     1     -10.436  17.391  69.246  1.00  0.00    -0.341 OA 
ENDBRANCH  16  17
ENDBRANCH  15  16
ENDBRANCH  14  15
ENDBRANCH  13  14
ENDBRANCH  12  13
ENDBRANCH  11  12
ENDBRANCH  10  11
ENDBRANCH   8   9
ENDBRANCH   7   8
ENDBRANCH   5   6
ENDBRANCH   4   5
ENDBRANCH   3   4
ENDBRANCH   2   3
TORSDOF 13
ENDMDL
MODEL      169
REMARK 921   NORMALIZED FREE ENERGY PREDICTED BY IDOCK:   -3.87 KCAL/MOL
REMARK 922        TOTAL FREE ENERGY PREDICTED BY IDOCK:   -8.56 KCAL/MOL
REMARK 923 INTER-LIGAND FREE ENERGY PREDICTED BY IDOCK:   -6.66 KCAL/MOL
REMARK 924 INTRA-LIGAND FREE ENERGY PREDICTED BY IDOCK:   -1.89 KCAL/MOL
REMARK 927      BINDING AFFINITY PREDICTED BY RF-SCORE:    0.00 PKD
ROOT
HETATM    1  C   UNL     1      -8.914   6.614  66.268  1.00  0.00    -0.168 C  
HETATM    2  C   UNL     1     -10.187   7.236  66.815  1.00  0.00    -0.305 C  
ENDROOT
BRANCH   2   3
HETATM    3  C   UNL     1     -10.999   6.218  67.606  1.00  0.00    -0.438 C  
BRANCH   3   4
HETATM    4  C   UNL     1     -11.199   6.673  69.050  1.00  0.00    -0.289 C  
BRANCH   4   5
HETATM    5  C   UNL     1     -10.846   5.536  69.999  1.00  0.00    -0.301 C  
BRANCH   5   6
HETATM    6  C   UNL     1      -9.513   4.913  69.712  1.00  0.00    -0.223 C  
HETATM    7  C   UNL     1      -8.360   5.440  70.153  1.00  0.00    -0.114 C  
BRANCH   7   8
HETATM    8  C   UNL     1      -8.259   6.708  70.948  1.00  0.00    -0.124 C  
BRANCH   8   9
HETATM    9  C   UNL     1      -8.613   6.493  72.389  1.00  0.00    -0.119 C  
HETATM   10  C   UNL     1      -9.539   7.203  73.053  1.00  0.00    -0.199 C  
BRANCH  10  11
HETATM   11  C   UNL     1     -10.305   8.322  72.414  1.00  0.00    -0.402 C  
BRANCH  11  12
HETATM   12  C   UNL     1     -11.810   8.110  72.442  1.00  0.00    -0.448 C  
BRANCH  12  13
HETATM   13  C   UNL     1     -12.501   9.245  71.689  1.00  0.00    -0.448 C  
BRANCH  13  14
HETATM   14  C   UNL     1     -11.515   9.958  70.776  1.00  0.00    -0.433 C  
BRANCH  14  15
HETATM   15  C   UNL     1     -12.080  11.284  70.276  1.00  0.00    -0.459 C  
BRANCH  15  16
HETATM   16  C   UNL     1     -11.763  11.468  68.795  1.00  0.00    -0.397 C  
BRANCH  16  17
HETATM   17  C   UNL     1     -11.707  12.942  68.408  1.00  0.00    -0.382 C  
HETATM   18  C   UNL     1     -11.976  13.136  66.936  1.00  0.00    -0.362 C  
HETATM   19  O   UNL     1     -12.211  12.250  66.131  1.00  0.00    -0.647 OA 
HETATM   20  O   UNL     1     -11.927  14.441  66.575  1.00  0.00    -0.404 OA 
ENDBRANCH  16  17
ENDBRANCH  15  16
ENDBRANCH  14  15
ENDBRANCH  13  14
ENDBRANCH  12  13
ENDBRANCH  11  12
ENDBRANCH  10  11
ENDBRANCH   8   9
ENDBRANCH   7   8
ENDBRANCH   5   6
ENDBRANCH   4   5
ENDBRANCH   3   4
ENDBRANCH   2   3
TORSDOF 13
ENDMDL
MODEL      170
REMARK 921   NORMALIZED FREE ENERGY PREDICTED BY IDOCK:   -3.87 KCAL/MOL
REMARK 922        TOTAL FREE ENERGY PREDICTED BY IDOCK:   -8.55 KCAL/MOL
REMARK 923 INTER-LIGAND FREE ENERGY PREDICTED BY IDOCK:   -6.43 KCAL/MOL
REMARK 924 INTRA-LIGAND FREE ENERGY PREDICTED BY IDOCK:   -2.12 KCAL/MOL
REMARK 927      BINDING AFFINITY PREDICTED BY RF-SCORE:    0.00 PKD
ROOT
HETATM    1  C   UNL     1     -11.431  15.020  64.463  1.00  0.00    -0.320 C  
HETATM    2  C   UNL     1     -11.668  13.520  64.447  1.00  0.00    -0.443 C  
ENDROOT
BRANCH   2   3
HETATM    3  C   UNL     1     -12.241  13.040  65.774  1.00  0.00    -0.511 C  
BRANCH   3   4
HETATM    4  C   UNL     1     -12.241  14.159  66.812  1.00  0.00    -0.429 C  
BRANCH   4   5
HETATM    5  C   UNL     1     -11.881  13.591  68.179  1.00  0.00    -0.400 C  
BRANCH   5   6
HETATM    6  C   UNL     1     -12.132  14.548  69.306  1.00  0.00    -0.325 C  
HETATM    7  C   UNL     1     -11.350  15.615  69.534  1.00  0.00    -0.329 C  
BRANCH   7   8
HETATM    8  C   UNL     1     -10.136  15.963  68.724  1.00  0.00    -0.221 C  
BRANCH   8   9
HETATM    9  C   UNL     1      -8.903  15.289  69.248  1.00  0.00    -0.242 C  
HETATM   10  C   UNL     1      -8.155  14.429  68.540  1.00  0.00    -0.146 C  
BRANCH  10  11
HETATM   11  C   UNL     1      -8.502  14.026  67.139  1.00  0.00    -0.207 C  
BRANCH  11  12
HETATM   12  C   UNL     1      -8.815  12.545  67.002  1.00  0.00    -0.212 C  
BRANCH  12  13
HETATM   13  C   UNL     1      -8.736  11.875  68.373  1.00  0.00    -0.157 C  
BRANCH  13  14
HETATM   14  C   UNL     1      -9.487  10.552  68.365  1.00  0.00    -0.158 C  
BRANCH  14  15
HETATM   15  C   UNL     1      -9.640   9.992  69.776  1.00  0.00    -0.249 C  
BRANCH  15  16
HETATM   16  C   UNL     1     -11.112   9.733  70.084  1.00  0.00    -0.335 C  
BRANCH  16  17
HETATM   17  C   UNL     1     -11.825  11.002  70.539  1.00  0.00    -0.464 C  
HETATM   18  C   UNL     1     -12.789  10.719  71.665  1.00  0.00    -0.457 C  
HETATM   19  O   UNL     1     -12.995   9.628  72.170  1.00  0.00    -0.403 OA 
HETATM   20  O   UNL     1     -13.434  11.836  72.079  1.00  0.00    -0.422 OA 
ENDBRANCH  16  17
ENDBRANCH  15  16
ENDBRANCH  14  15
ENDBRANCH  13  14
ENDBRANCH  12  13
ENDBRANCH  11  12
ENDBRANCH  10  11
ENDBRANCH   8   9
ENDBRANCH   7   8
ENDBRANCH   5   6
ENDBRANCH   4   5
ENDBRANCH   3   4
ENDBRANCH   2   3
TORSDOF 13
ENDMDL
MODEL      171
REMARK 921   NORMALIZED FREE ENERGY PREDICTED BY IDOCK:   -3.86 KCAL/MOL
REMARK 922        TOTAL FREE ENERGY PREDICTED BY IDOCK:   -8.54 KCAL/MOL
REMARK 923 INTER-LIGAND FREE ENERGY PREDICTED BY IDOCK:   -6.47 KCAL/MOL
REMARK 924 INTRA-LIGAND FREE ENERGY PREDICTED BY IDOCK:   -2.08 KCAL/MOL
REMARK 927      BINDING AFFINITY PREDICTED BY RF-SCORE:    0.00 PKD
ROOT
HETATM    1  C   UNL     1      -9.117   7.891  73.369  1.00  0.00    -0.347 C  
HETATM    2  C   UNL     1      -8.924   8.383  71.946  1.00  0.00    -0.280 C  
ENDROOT
BRANCH   2   3
HETATM    3  C   UNL     1      -8.819   7.217  70.971  1.00  0.00    -0.144 C  
BRANCH   3   4
HETATM    4  C   UNL     1      -9.592   7.501  69.685  1.00  0.00    -0.159 C  
BRANCH   4   5
HETATM    5  C   UNL     1     -10.701   6.472  69.515  1.00  0.00    -0.322 C  
BRANCH   5   6
HETATM    6  C   UNL     1     -11.135   5.846  70.806  1.00  0.00    -0.324 C  
HETATM    7  C   UNL     1     -12.131   6.347  71.553  1.00  0.00    -0.289 C  
BRANCH   7   8
HETATM    8  C   UNL     1     -12.902   7.588  71.211  1.00  0.00    -0.331 C  
BRANCH   8   9
HETATM    9  C   UNL     1     -12.582   8.719  72.141  1.00  0.00    -0.463 C  
HETATM   10  C   UNL     1     -12.212   9.945  71.740  1.00  0.00    -0.425 C  
BRANCH  10  11
HETATM   11  C   UNL     1     -12.053  10.304  70.293  1.00  0.00    -0.330 C  
BRANCH  11  12
HETATM   12  C   UNL     1     -12.245  11.787  70.020  1.00  0.00    -0.317 C  
BRANCH  12  13
HETATM   13  C   UNL     1     -12.608  12.504  71.318  1.00  0.00    -0.332 C  
BRANCH  13  14
HETATM   14  C   UNL     1     -12.872  13.980  71.056  1.00  0.00    -0.410 C  
BRANCH  14  15
HETATM   15  C   UNL     1     -11.792  14.857  71.681  1.00  0.00    -0.429 C  
BRANCH  15  16
HETATM   16  C   UNL     1     -11.532  16.078  70.804  1.00  0.00    -0.444 C  
BRANCH  16  17
HETATM   17  C   UNL     1     -11.856  15.802  69.340  1.00  0.00    -0.361 C  
HETATM   18  C   UNL     1     -10.605  15.535  68.539  1.00  0.00    -0.246 C  
HETATM   19  O   UNL     1      -9.466  15.533  68.976  1.00  0.00    -0.208 OA 
HETATM   20  O   UNL     1     -10.875  15.290  67.234  1.00  0.00    -0.305 OA 
ENDBRANCH  16  17
ENDBRANCH  15  16
ENDBRANCH  14  15
ENDBRANCH  13  14
ENDBRANCH  12  13
ENDBRANCH  11  12
ENDBRANCH  10  11
ENDBRANCH   8   9
ENDBRANCH   7   8
ENDBRANCH   5   6
ENDBRANCH   4   5
ENDBRANCH   3   4
ENDBRANCH   2   3
TORSDOF 13
ENDMDL
MODEL      172
REMARK 921   NORMALIZED FREE ENERGY PREDICTED BY IDOCK:   -3.86 KCAL/MOL
REMARK 922        TOTAL FREE ENERGY PREDICTED BY IDOCK:   -8.54 KCAL/MOL
REMARK 923 INTER-LIGAND FREE ENERGY PREDICTED BY IDOCK:   -6.91 KCAL/MOL
REMARK 924 INTRA-LIGAND FREE ENERGY PREDICTED BY IDOCK:   -1.63 KCAL/MOL
REMARK 927      BINDING AFFINITY PREDICTED BY RF-SCORE:    0.00 PKD
ROOT
HETATM    1  C   UNL     1      -9.805   9.285  66.480  1.00  0.00    -0.331 C  
HETATM    2  C   UNL     1     -10.731   9.789  67.572  1.00  0.00    -0.327 C  
ENDROOT
BRANCH   2   3
HETATM    3  C   UNL     1     -11.245  11.187  67.254  1.00  0.00    -0.347 C  
BRANCH   3   4
HETATM    4  C   UNL     1     -10.104  12.114  66.840  1.00  0.00    -0.222 C  
BRANCH   4   5
HETATM    5  C   UNL     1      -9.476  12.740  68.078  1.00  0.00    -0.213 C  
BRANCH   5   6
HETATM    6  C   UNL     1      -9.301  14.225  67.971  1.00  0.00    -0.200 C  
HETATM    7  C   UNL     1     -10.128  15.094  68.572  1.00  0.00    -0.228 C  
BRANCH   7   8
HETATM    8  C   UNL     1     -11.323  14.698  69.389  1.00  0.00    -0.314 C  
BRANCH   8   9
HETATM    9  C   UNL     1     -11.932  15.874  70.093  1.00  0.00    -0.306 C  
HETATM   10  C   UNL     1     -12.395  15.842  71.352  1.00  0.00    -0.505 C  
BRANCH  10  11
HETATM   11  C   UNL     1     -12.375  14.596  72.185  1.00  0.00    -0.377 C  
BRANCH  11  12
HETATM   12  C   UNL     1     -13.702  13.854  72.183  1.00  0.00    -0.619 C  
BRANCH  12  13
HETATM   13  C   UNL     1     -13.447  12.348  72.150  1.00  0.00    -0.481 C  
BRANCH  13  14
HETATM   14  C   UNL     1     -12.537  11.986  70.986  1.00  0.00    -0.370 C  
BRANCH  14  15
HETATM   15  C   UNL     1     -12.629  10.500  70.650  1.00  0.00    -0.457 C  
BRANCH  15  16
HETATM   16  C   UNL     1     -11.744   9.690  71.592  1.00  0.00    -0.439 C  
BRANCH  16  17
HETATM   17  C   UNL     1     -12.383   8.355  71.959  1.00  0.00    -0.413 C  
HETATM   18  C   UNL     1     -11.467   7.199  71.640  1.00  0.00    -0.266 C  
HETATM   19  O   UNL     1     -10.353   7.287  71.151  1.00  0.00    -0.199 OA 
HETATM   20  O   UNL     1     -12.021   6.004  71.957  1.00  0.00    -0.294 OA 
ENDBRANCH  16  17
ENDBRANCH  15  16
ENDBRANCH  14  15
ENDBRANCH  13  14
ENDBRANCH  12  13
ENDBRANCH  11  12
ENDBRANCH  10  11
ENDBRANCH   8   9
ENDBRANCH   7   8
ENDBRANCH   5   6
ENDBRANCH   4   5
ENDBRANCH   3   4
ENDBRANCH   2   3
TORSDOF 13
ENDMDL
MODEL      173
REMARK 921   NORMALIZED FREE ENERGY PREDICTED BY IDOCK:   -3.85 KCAL/MOL
REMARK 922        TOTAL FREE ENERGY PREDICTED BY IDOCK:   -8.52 KCAL/MOL
REMARK 923 INTER-LIGAND FREE ENERGY PREDICTED BY IDOCK:   -6.50 KCAL/MOL
REMARK 924 INTRA-LIGAND FREE ENERGY PREDICTED BY IDOCK:   -2.03 KCAL/MOL
REMARK 927      BINDING AFFINITY PREDICTED BY RF-SCORE:    0.00 PKD
ROOT
HETATM    1  C   UNL     1     -11.900  13.720  64.012  1.00  0.00    -0.410 C  
HETATM    2  C   UNL     1     -12.746  13.456  65.245  1.00  0.00    -0.481 C  
ENDROOT
BRANCH   2   3
HETATM    3  C   UNL     1     -11.886  12.991  66.413  1.00  0.00    -0.465 C  
BRANCH   3   4
HETATM    4  C   UNL     1     -10.585  12.360  65.923  1.00  0.00    -0.289 C  
BRANCH   4   5
HETATM    5  C   UNL     1     -10.658  10.847  66.079  1.00  0.00    -0.254 C  
BRANCH   5   6
HETATM    6  C   UNL     1     -10.854  10.404  67.498  1.00  0.00    -0.358 C  
HETATM    7  C   UNL     1     -10.684   9.130  67.887  1.00  0.00    -0.224 C  
BRANCH   7   8
HETATM    8  C   UNL     1     -10.312   8.007  66.964  1.00  0.00    -0.414 C  
BRANCH   8   9
HETATM    9  C   UNL     1     -11.023   6.735  67.319  1.00  0.00    -0.433 C  
HETATM   10  C   UNL     1     -10.459   5.718  67.990  1.00  0.00    -0.286 C  
BRANCH  10  11
HETATM   11  C   UNL     1      -9.028   5.742  68.434  1.00  0.00    -0.111 C  
BRANCH  11  12
HETATM   12  C   UNL     1      -8.871   5.879  69.940  1.00  0.00    -0.130 C  
BRANCH  12  13
HETATM   13  C   UNL     1      -8.649   7.346  70.301  1.00  0.00    -0.145 C  
BRANCH  13  14
HETATM   14  C   UNL     1      -9.753   7.843  71.223  1.00  0.00    -0.187 C  
BRANCH  14  15
HETATM   15  C   UNL     1     -10.728   6.723  71.575  1.00  0.00    -0.254 C  
BRANCH  15  16
HETATM   16  C   UNL     1     -12.154   7.263  71.626  1.00  0.00    -0.359 C  
BRANCH  16  17
HETATM   17  C   UNL     1     -12.193   8.775  71.434  1.00  0.00    -0.359 C  
HETATM   18  C   UNL     1     -13.479   9.365  71.959  1.00  0.00    -0.449 C  
HETATM   19  O   UNL     1     -14.391   8.741  72.476  1.00  0.00    -0.562 OA 
HETATM   20  O   UNL     1     -13.531  10.709  71.793  1.00  0.00    -0.329 OA 
ENDBRANCH  16  17
ENDBRANCH  15  16
ENDBRANCH  14  15
ENDBRANCH  13  14
ENDBRANCH  12  13
ENDBRANCH  11  12
ENDBRANCH  10  11
ENDBRANCH   8   9
ENDBRANCH   7   8
ENDBRANCH   5   6
ENDBRANCH   4   5
ENDBRANCH   3   4
ENDBRANCH   2   3
TORSDOF 13
ENDMDL
MODEL      174
REMARK 921   NORMALIZED FREE ENERGY PREDICTED BY IDOCK:   -3.85 KCAL/MOL
REMARK 922        TOTAL FREE ENERGY PREDICTED BY IDOCK:   -8.52 KCAL/MOL
REMARK 923 INTER-LIGAND FREE ENERGY PREDICTED BY IDOCK:   -6.75 KCAL/MOL
REMARK 924 INTRA-LIGAND FREE ENERGY PREDICTED BY IDOCK:   -1.77 KCAL/MOL
REMARK 927      BINDING AFFINITY PREDICTED BY RF-SCORE:    0.00 PKD
ROOT
HETATM    1  C   UNL     1     -10.614  19.367  66.856  1.00  0.00    -0.581 C  
HETATM    2  C   UNL     1      -9.917  18.637  67.991  1.00  0.00    -0.389 C  
ENDROOT
BRANCH   2   3
HETATM    3  C   UNL     1     -10.729  17.433  68.449  1.00  0.00    -0.301 C  
BRANCH   3   4
HETATM    4  C   UNL     1      -9.825  16.349  69.033  1.00  0.00    -0.266 C  
BRANCH   4   5
HETATM    5  C   UNL     1     -10.153  15.007  68.391  1.00  0.00    -0.225 C  
BRANCH   5   6
HETATM    6  C   UNL     1     -11.616  14.682  68.405  1.00  0.00    -0.351 C  
HETATM    7  C   UNL     1     -12.267  14.237  67.319  1.00  0.00    -0.287 C  
BRANCH   7   8
HETATM    8  C   UNL     1     -11.632  14.038  65.974  1.00  0.00    -0.362 C  
BRANCH   8   9
HETATM    9  C   UNL     1     -11.926  12.679  65.413  1.00  0.00    -0.496 C  
HETATM   10  C   UNL     1     -11.122  11.614  65.557  1.00  0.00    -0.297 C  
BRANCH  10  11
HETATM   11  C   UNL     1      -9.812  11.686  66.281  1.00  0.00    -0.245 C  
BRANCH  11  12
HETATM   12  C   UNL     1      -9.855  11.052  67.661  1.00  0.00    -0.192 C  
BRANCH  12  13
HETATM   13  C   UNL     1     -11.263  10.534  67.943  1.00  0.00    -0.358 C  
BRANCH  13  14
HETATM   14  C   UNL     1     -11.791  11.107  69.251  1.00  0.00    -0.422 C  
BRANCH  14  15
HETATM   15  C   UNL     1     -11.080  10.494  70.453  1.00  0.00    -0.321 C  
BRANCH  15  16
HETATM   16  C   UNL     1     -12.098   9.918  71.432  1.00  0.00    -0.501 C  
BRANCH  16  17
HETATM   17  C   UNL     1     -12.154   8.396  71.359  1.00  0.00    -0.337 C  
HETATM   18  C   UNL     1     -13.472   7.868  71.870  1.00  0.00    -0.286 C  
HETATM   19  O   UNL     1     -14.395   8.544  72.294  1.00  0.00    -0.435 OA 
HETATM   20  O   UNL     1     -13.538   6.516  71.815  1.00  0.00    -0.100 OA 
ENDBRANCH  16  17
ENDBRANCH  15  16
ENDBRANCH  14  15
ENDBRANCH  13  14
ENDBRANCH  12  13
ENDBRANCH  11  12
ENDBRANCH  10  11
ENDBRANCH   8   9
ENDBRANCH   7   8
ENDBRANCH   5   6
ENDBRANCH   4   5
ENDBRANCH   3   4
ENDBRANCH   2   3
TORSDOF 13
ENDMDL
MODEL      175
REMARK 921   NORMALIZED FREE ENERGY PREDICTED BY IDOCK:   -3.85 KCAL/MOL
REMARK 922        TOTAL FREE ENERGY PREDICTED BY IDOCK:   -8.52 KCAL/MOL
REMARK 923 INTER-LIGAND FREE ENERGY PREDICTED BY IDOCK:   -6.59 KCAL/MOL
REMARK 924 INTRA-LIGAND FREE ENERGY PREDICTED BY IDOCK:   -1.93 KCAL/MOL
REMARK 927      BINDING AFFINITY PREDICTED BY RF-SCORE:    0.00 PKD
ROOT
HETATM    1  C   UNL     1     -10.961   6.871  67.075  1.00  0.00    -0.404 C  
HETATM    2  C   UNL     1      -9.779   7.590  66.449  1.00  0.00    -0.180 C  
ENDROOT
BRANCH   2   3
HETATM    3  C   UNL     1      -9.699   9.034  66.928  1.00  0.00    -0.260 C  
BRANCH   3   4
HETATM    4  C   UNL     1      -8.380   9.303  67.650  1.00  0.00    -0.116 C  
BRANCH   4   5
HETATM    5  C   UNL     1      -8.496   8.878  69.107  1.00  0.00    -0.132 C  
BRANCH   5   6
HETATM    6  C   UNL     1      -8.149   7.438  69.337  1.00  0.00    -0.129 C  
HETATM    7  C   UNL     1      -8.755   6.691  70.273  1.00  0.00    -0.147 C  
BRANCH   7   8
HETATM    8  C   UNL     1      -9.813   7.198  71.207  1.00  0.00    -0.178 C  
BRANCH   8   9
HETATM    9  C   UNL     1     -11.177   6.708  70.824  1.00  0.00    -0.366 C  
HETATM   10  C   UNL     1     -12.324   7.240  71.274  1.00  0.00    -0.401 C  
BRANCH  10  11
HETATM   11  C   UNL     1     -12.355   8.381  72.245  1.00  0.00    -0.436 C  
BRANCH  11  12
HETATM   12  C   UNL     1     -13.610   9.232  72.129  1.00  0.00    -0.536 C  
BRANCH  12  13
HETATM   13  C   UNL     1     -13.244  10.613  71.589  1.00  0.00    -0.495 C  
BRANCH  13  14
HETATM   14  C   UNL     1     -11.883  10.578  70.910  1.00  0.00    -0.455 C  
BRANCH  14  15
HETATM   15  C   UNL     1     -12.000  10.864  69.416  1.00  0.00    -0.393 C  
BRANCH  15  16
HETATM   16  C   UNL     1     -10.923  11.854  68.982  1.00  0.00    -0.267 C  
BRANCH  16  17
HETATM   17  C   UNL     1     -11.527  13.151  68.456  1.00  0.00    -0.338 C  
HETATM   18  C   UNL     1     -12.004  12.999  67.032  1.00  0.00    -0.347 C  
HETATM   19  O   UNL     1     -11.932  11.983  66.361  1.00  0.00    -0.611 OA 
HETATM   20  O   UNL     1     -12.542  14.144  66.548  1.00  0.00    -0.394 OA 
ENDBRANCH  16  17
ENDBRANCH  15  16
ENDBRANCH  14  15
ENDBRANCH  13  14
ENDBRANCH  12  13
ENDBRANCH  11  12
ENDBRANCH  10  11
ENDBRANCH   8   9
ENDBRANCH   7   8
ENDBRANCH   5   6
ENDBRANCH   4   5
ENDBRANCH   3   4
ENDBRANCH   2   3
TORSDOF 13
ENDMDL
MODEL      176
REMARK 921   NORMALIZED FREE ENERGY PREDICTED BY IDOCK:   -3.84 KCAL/MOL
REMARK 922        TOTAL FREE ENERGY PREDICTED BY IDOCK:   -8.51 KCAL/MOL
REMARK 923 INTER-LIGAND FREE ENERGY PREDICTED BY IDOCK:   -6.55 KCAL/MOL
REMARK 924 INTRA-LIGAND FREE ENERGY PREDICTED BY IDOCK:   -1.95 KCAL/MOL
REMARK 927      BINDING AFFINITY PREDICTED BY RF-SCORE:    0.00 PKD
ROOT
HETATM    1  C   UNL     1     -10.150  10.971  64.058  1.00  0.00    -0.408 C  
HETATM    2  C   UNL     1     -10.930  12.205  63.637  1.00  0.00    -0.527 C  
ENDROOT
BRANCH   2   3
HETATM    3  C   UNL     1     -12.167  12.394  64.505  1.00  0.00    -0.509 C  
BRANCH   3   4
HETATM    4  C   UNL     1     -12.261  13.826  65.029  1.00  0.00    -0.448 C  
BRANCH   4   5
HETATM    5  C   UNL     1     -11.977  13.844  66.525  1.00  0.00    -0.470 C  
BRANCH   5   6
HETATM    6  C   UNL     1     -10.522  13.704  66.856  1.00  0.00    -0.272 C  
HETATM    7  C   UNL     1     -10.061  12.765  67.698  1.00  0.00    -0.220 C  
BRANCH   7   8
HETATM    8  C   UNL     1     -10.928  11.775  68.418  1.00  0.00    -0.274 C  
BRANCH   8   9
HETATM    9  C   UNL     1     -11.096  10.507  67.636  1.00  0.00    -0.375 C  
HETATM   10  C   UNL     1     -10.307   9.429  67.769  1.00  0.00    -0.291 C  
BRANCH  10  11
HETATM   11  C   UNL     1      -9.141   9.396  68.710  1.00  0.00    -0.132 C  
BRANCH  11  12
HETATM   12  C   UNL     1      -8.390   8.075  68.687  1.00  0.00    -0.127 C  
BRANCH  12  13
HETATM   13  C   UNL     1      -8.600   7.344  70.011  1.00  0.00    -0.140 C  
BRANCH  13  14
HETATM   14  C   UNL     1      -9.317   6.021  69.783  1.00  0.00    -0.166 C  
BRANCH  14  15
HETATM   15  C   UNL     1     -10.524   5.877  70.704  1.00  0.00    -0.316 C  
BRANCH  15  16
HETATM   16  C   UNL     1     -11.632   6.834  70.275  1.00  0.00    -0.417 C  
BRANCH  16  17
HETATM   17  C   UNL     1     -12.586   7.146  71.423  1.00  0.00    -0.432 C  
HETATM   18  C   UNL     1     -12.866   8.626  71.521  1.00  0.00    -0.319 C  
HETATM   19  O   UNL     1     -12.405   9.488  70.791  1.00  0.00    -0.258 OA 
HETATM   20  O   UNL     1     -13.710   8.921  72.539  1.00  0.00    -0.451 OA 
ENDBRANCH  16  17
ENDBRANCH  15  16
ENDBRANCH  14  15
ENDBRANCH  13  14
ENDBRANCH  12  13
ENDBRANCH  11  12
ENDBRANCH  10  11
ENDBRANCH   8   9
ENDBRANCH   7   8
ENDBRANCH   5   6
ENDBRANCH   4   5
ENDBRANCH   3   4
ENDBRANCH   2   3
TORSDOF 13
ENDMDL
MODEL      177
REMARK 921   NORMALIZED FREE ENERGY PREDICTED BY IDOCK:   -3.84 KCAL/MOL
REMARK 922        TOTAL FREE ENERGY PREDICTED BY IDOCK:   -8.50 KCAL/MOL
REMARK 923 INTER-LIGAND FREE ENERGY PREDICTED BY IDOCK:   -6.66 KCAL/MOL
REMARK 924 INTRA-LIGAND FREE ENERGY PREDICTED BY IDOCK:   -1.84 KCAL/MOL
REMARK 927      BINDING AFFINITY PREDICTED BY RF-SCORE:    0.00 PKD
ROOT
HETATM    1  C   UNL     1     -10.503   7.736  67.106  1.00  0.00    -0.413 C  
HETATM    2  C   UNL     1     -11.071   6.380  67.486  1.00  0.00    -0.401 C  
ENDROOT
BRANCH   2   3
HETATM    3  C   UNL     1      -9.998   5.486  68.095  1.00  0.00    -0.197 C  
BRANCH   3   4
HETATM    4  C   UNL     1     -10.269   5.231  69.577  1.00  0.00    -0.338 C  
BRANCH   4   5
HETATM    5  C   UNL     1      -9.160   4.365  70.159  1.00  0.00    -0.167 C  
BRANCH   5   6
HETATM    6  C   UNL     1      -9.527   2.915  70.261  1.00  0.00    -0.200 C  
HETATM    7  C   UNL     1      -9.785   2.317  71.434  1.00  0.00    -0.216 C  
BRANCH   7   8
HETATM    8  C   UNL     1      -9.715   3.003  72.767  1.00  0.00    -0.182 C  
BRANCH   8   9
HETATM    9  C   UNL     1     -11.032   3.607  73.154  1.00  0.00    -0.228 C  
HETATM   10  C   UNL     1     -11.214   4.908  73.427  1.00  0.00    -0.415 C  
BRANCH  10  11
HETATM   11  C   UNL     1     -10.091   5.901  73.399  1.00  0.00    -0.207 C  
BRANCH  11  12
HETATM   12  C   UNL     1     -10.568   7.342  73.329  1.00  0.00    -0.442 C  
BRANCH  12  13
HETATM   13  C   UNL     1     -10.034   7.998  72.058  1.00  0.00    -0.275 C  
BRANCH  13  14
HETATM   14  C   UNL     1     -11.128   8.802  71.372  1.00  0.00    -0.361 C  
BRANCH  14  15
HETATM   15  C   UNL     1     -12.468   8.639  72.084  1.00  0.00    -0.453 C  
BRANCH  15  16
HETATM   16  C   UNL     1     -13.335   9.875  71.865  1.00  0.00    -0.524 C  
BRANCH  16  17
HETATM   17  C   UNL     1     -12.655  10.888  70.951  1.00  0.00    -0.494 C  
HETATM   18  C   UNL     1     -12.958  12.304  71.376  1.00  0.00    -0.256 C  
HETATM   19  O   UNL     1     -13.653  12.631  72.323  1.00  0.00    -0.547 OA 
HETATM   20  O   UNL     1     -12.362  13.218  70.572  1.00  0.00    -0.342 OA 
ENDBRANCH  16  17
ENDBRANCH  15  16
ENDBRANCH  14  15
ENDBRANCH  13  14
ENDBRANCH  12  13
ENDBRANCH  11  12
ENDBRANCH  10  11
ENDBRANCH   8   9
ENDBRANCH   7   8
ENDBRANCH   5   6
ENDBRANCH   4   5
ENDBRANCH   3   4
ENDBRANCH   2   3
TORSDOF 13
ENDMDL
MODEL      178
REMARK 921   NORMALIZED FREE ENERGY PREDICTED BY IDOCK:   -3.84 KCAL/MOL
REMARK 922        TOTAL FREE ENERGY PREDICTED BY IDOCK:   -8.50 KCAL/MOL
REMARK 923 INTER-LIGAND FREE ENERGY PREDICTED BY IDOCK:   -6.19 KCAL/MOL
REMARK 924 INTRA-LIGAND FREE ENERGY PREDICTED BY IDOCK:   -2.30 KCAL/MOL
REMARK 927      BINDING AFFINITY PREDICTED BY RF-SCORE:    0.00 PKD
ROOT
HETATM    1  C   UNL     1      -7.763  10.605  68.909  1.00  0.00    -0.121 C  
HETATM    2  C   UNL     1      -7.986  11.786  67.981  1.00  0.00    -0.141 C  
ENDROOT
BRANCH   2   3
HETATM    3  C   UNL     1      -7.701  13.103  68.691  1.00  0.00    -0.073 C  
BRANCH   3   4
HETATM    4  C   UNL     1      -8.550  14.235  68.116  1.00  0.00    -0.172 C  
BRANCH   4   5
HETATM    5  C   UNL     1      -8.730  15.325  69.165  1.00  0.00    -0.238 C  
BRANCH   5   6
HETATM    6  C   UNL     1     -10.164  15.583  69.515  1.00  0.00    -0.279 C  
HETATM    7  C   UNL     1     -10.747  16.779  69.335  1.00  0.00    -0.300 C  
BRANCH   7   8
HETATM    8  C   UNL     1     -10.043  17.990  68.797  1.00  0.00    -0.388 C  
BRANCH   8   9
HETATM    9  C   UNL     1     -10.740  18.551  67.593  1.00  0.00    -0.405 C  
HETATM   10  C   UNL     1     -10.483  18.177  66.330  1.00  0.00    -0.364 C  
BRANCH  10  11
HETATM   11  C   UNL     1      -9.434  17.163  65.989  1.00  0.00    -0.167 C  
BRANCH  11  12
HETATM   12  C   UNL     1     -10.011  15.811  65.604  1.00  0.00    -0.378 C  
BRANCH  12  13
HETATM   13  C   UNL     1     -11.232  16.011  64.709  1.00  0.00    -0.348 C  
BRANCH  13  14
HETATM   14  C   UNL     1     -11.943  14.687  64.471  1.00  0.00    -0.473 C  
BRANCH  14  15
HETATM   15  C   UNL     1     -11.115  13.511  64.981  1.00  0.00    -0.338 C  
BRANCH  15  16
HETATM   16  C   UNL     1     -11.953  12.639  65.911  1.00  0.00    -0.497 C  
BRANCH  16  17
HETATM   17  C   UNL     1     -11.927  13.155  67.345  1.00  0.00    -0.379 C  
HETATM   18  C   UNL     1     -11.834  12.022  68.337  1.00  0.00    -0.300 C  
HETATM   19  O   UNL     1     -11.785  10.835  68.061  1.00  0.00    -0.528 OA 
HETATM   20  O   UNL     1     -11.813  12.463  69.618  1.00  0.00    -0.305 OA 
ENDBRANCH  16  17
ENDBRANCH  15  16
ENDBRANCH  14  15
ENDBRANCH  13  14
ENDBRANCH  12  13
ENDBRANCH  11  12
ENDBRANCH  10  11
ENDBRANCH   8   9
ENDBRANCH   7   8
ENDBRANCH   5   6
ENDBRANCH   4   5
ENDBRANCH   3   4
ENDBRANCH   2   3
TORSDOF 13
ENDMDL
MODEL      179
REMARK 921   NORMALIZED FREE ENERGY PREDICTED BY IDOCK:   -3.83 KCAL/MOL
REMARK 922        TOTAL FREE ENERGY PREDICTED BY IDOCK:   -8.49 KCAL/MOL
REMARK 923 INTER-LIGAND FREE ENERGY PREDICTED BY IDOCK:   -6.70 KCAL/MOL
REMARK 924 INTRA-LIGAND FREE ENERGY PREDICTED BY IDOCK:   -1.79 KCAL/MOL
REMARK 927      BINDING AFFINITY PREDICTED BY RF-SCORE:    0.00 PKD
ROOT
HETATM    1  C   UNL     1     -13.604  15.623  73.027  1.00  0.00    -0.619 C  
HETATM    2  C   UNL     1     -12.560  15.613  71.924  1.00  0.00    -0.509 C  
ENDROOT
BRANCH   2   3
HETATM    3  C   UNL     1     -12.824  14.492  70.927  1.00  0.00    -0.425 C  
BRANCH   3   4
HETATM    4  C   UNL     1     -11.609  14.250  70.034  1.00  0.00    -0.325 C  
BRANCH   4   5
HETATM    5  C   UNL     1     -11.552  15.315  68.947  1.00  0.00    -0.365 C  
BRANCH   5   6
HETATM    6  C   UNL     1     -10.215  15.984  68.840  1.00  0.00    -0.231 C  
HETATM    7  C   UNL     1      -9.307  15.639  67.913  1.00  0.00    -0.195 C  
BRANCH   7   8
HETATM    8  C   UNL     1      -9.500  14.544  66.906  1.00  0.00    -0.263 C  
BRANCH   8   9
HETATM    9  C   UNL     1      -9.848  15.087  65.552  1.00  0.00    -0.352 C  
HETATM   10  C   UNL     1     -10.989  14.814  64.900  1.00  0.00    -0.425 C  
BRANCH  10  11
HETATM   11  C   UNL     1     -12.036  13.899  65.460  1.00  0.00    -0.425 C  
BRANCH  11  12
HETATM   12  C   UNL     1     -12.463  12.812  64.486  1.00  0.00    -0.501 C  
BRANCH  12  13
HETATM   13  C   UNL     1     -11.342  12.555  63.482  1.00  0.00    -0.556 C  
BRANCH  13  14
HETATM   14  C   UNL     1     -10.798  11.143  63.639  1.00  0.00    -0.319 C  
BRANCH  14  15
HETATM   15  C   UNL     1      -9.298  11.154  63.920  1.00  0.00    -0.197 C  
BRANCH  15  16
HETATM   16  C   UNL     1      -8.953  10.115  64.983  1.00  0.00    -0.227 C  
BRANCH  16  17
HETATM   17  C   UNL     1      -8.959  10.718  66.384  1.00  0.00    -0.179 C  
HETATM   18  C   UNL     1      -9.753   9.868  67.346  1.00  0.00    -0.162 C  
HETATM   19  O   UNL     1     -10.328   8.828  67.071  1.00  0.00    -0.261 OA 
HETATM   20  O   UNL     1      -9.771  10.392  68.595  1.00  0.00    -0.161 OA 
ENDBRANCH  16  17
ENDBRANCH  15  16
ENDBRANCH  14  15
ENDBRANCH  13  14
ENDBRANCH  12  13
ENDBRANCH  11  12
ENDBRANCH  10  11
ENDBRANCH   8   9
ENDBRANCH   7   8
ENDBRANCH   5   6
ENDBRANCH   4   5
ENDBRANCH   3   4
ENDBRANCH   2   3
TORSDOF 13
ENDMDL
MODEL      180
REMARK 921   NORMALIZED FREE ENERGY PREDICTED BY IDOCK:   -3.83 KCAL/MOL
REMARK 922        TOTAL FREE ENERGY PREDICTED BY IDOCK:   -8.49 KCAL/MOL
REMARK 923 INTER-LIGAND FREE ENERGY PREDICTED BY IDOCK:   -6.52 KCAL/MOL
REMARK 924 INTRA-LIGAND FREE ENERGY PREDICTED BY IDOCK:   -1.97 KCAL/MOL
REMARK 927      BINDING AFFINITY PREDICTED BY RF-SCORE:    0.00 PKD
ROOT
HETATM    1  C   UNL     1     -12.519  13.143  64.784  1.00  0.00    -0.460 C  
HETATM    2  C   UNL     1     -11.487  12.140  64.299  1.00  0.00    -0.437 C  
ENDROOT
BRANCH   2   3
HETATM    3  C   UNL     1     -10.175  12.292  65.057  1.00  0.00    -0.312 C  
BRANCH   3   4
HETATM    4  C   UNL     1      -9.888  11.062  65.916  1.00  0.00    -0.278 C  
BRANCH   4   5
HETATM    5  C   UNL     1     -10.033  11.421  67.389  1.00  0.00    -0.207 C  
BRANCH   5   6
HETATM    6  C   UNL     1     -11.448  11.361  67.880  1.00  0.00    -0.361 C  
HETATM    7  C   UNL     1     -12.028  12.379  68.535  1.00  0.00    -0.273 C  
BRANCH   7   8
HETATM    8  C   UNL     1     -11.340  13.668  68.875  1.00  0.00    -0.332 C  
BRANCH   8   9
HETATM    9  C   UNL     1     -11.535  14.703  67.808  1.00  0.00    -0.359 C  
HETATM   10  C   UNL     1     -11.028  15.945  67.860  1.00  0.00    -0.327 C  
BRANCH  10  11
HETATM   11  C   UNL     1     -10.226  16.438  69.026  1.00  0.00    -0.269 C  
BRANCH  11  12
HETATM   12  C   UNL     1      -8.726  16.389  68.783  1.00  0.00    -0.246 C  
BRANCH  12  13
HETATM   13  C   UNL     1      -8.454  16.177  67.296  1.00  0.00    -0.203 C  
BRANCH  13  14
HETATM   14  C   UNL     1      -7.514  17.251  66.766  1.00  0.00    -0.258 C  
BRANCH  14  15
HETATM   15  C   UNL     1      -7.203  18.294  67.836  1.00  0.00    -0.230 C  
BRANCH  15  16
HETATM   16  C   UNL     1      -7.635  19.679  67.364  1.00  0.00    -0.292 C  
BRANCH  16  17
HETATM   17  C   UNL     1      -8.597  19.598  66.183  1.00  0.00    -0.357 C  
HETATM   18  C   UNL     1     -10.034  19.686  66.635  1.00  0.00    -0.423 C  
HETATM   19  O   UNL     1     -10.412  19.807  67.789  1.00  0.00    -0.426 OA 
HETATM   20  O   UNL     1     -10.902  19.613  65.598  1.00  0.00    -0.473 OA 
ENDBRANCH  16  17
ENDBRANCH  15  16
ENDBRANCH  14  15
ENDBRANCH  13  14
ENDBRANCH  12  13
ENDBRANCH  11  12
ENDBRANCH  10  11
ENDBRANCH   8   9
ENDBRANCH   7   8
ENDBRANCH   5   6
ENDBRANCH   4   5
ENDBRANCH   3   4
ENDBRANCH   2   3
TORSDOF 13
ENDMDL
MODEL      181
REMARK 921   NORMALIZED FREE ENERGY PREDICTED BY IDOCK:   -3.82 KCAL/MOL
REMARK 922        TOTAL FREE ENERGY PREDICTED BY IDOCK:   -8.47 KCAL/MOL
REMARK 923 INTER-LIGAND FREE ENERGY PREDICTED BY IDOCK:   -7.00 KCAL/MOL
REMARK 924 INTRA-LIGAND FREE ENERGY PREDICTED BY IDOCK:   -1.47 KCAL/MOL
REMARK 927      BINDING AFFINITY PREDICTED BY RF-SCORE:    0.00 PKD
ROOT
HETATM    1  C   UNL     1     -13.210   7.518  71.547  1.00  0.00    -0.404 C  
HETATM    2  C   UNL     1     -11.981   8.185  72.140  1.00  0.00    -0.413 C  
ENDROOT
BRANCH   2   3
HETATM    3  C   UNL     1     -11.745   9.554  71.515  1.00  0.00    -0.472 C  
BRANCH   3   4
HETATM    4  C   UNL     1     -13.021  10.393  71.523  1.00  0.00    -0.562 C  
BRANCH   4   5
HETATM    5  C   UNL     1     -12.662  11.871  71.586  1.00  0.00    -0.340 C  
BRANCH   5   6
HETATM    6  C   UNL     1     -13.780  12.734  72.090  1.00  0.00    -0.454 C  
HETATM    7  C   UNL     1     -13.595  14.011  72.459  1.00  0.00    -0.670 C  
BRANCH   7   8
HETATM    8  C   UNL     1     -12.270  14.714  72.441  1.00  0.00    -0.312 C  
BRANCH   8   9
HETATM    9  C   UNL     1     -12.302  15.943  71.582  1.00  0.00    -0.519 C  
HETATM   10  C   UNL     1     -11.797  16.008  70.340  1.00  0.00    -0.286 C  
BRANCH  10  11
HETATM   11  C   UNL     1     -11.112  14.846  69.687  1.00  0.00    -0.298 C  
BRANCH  11  12
HETATM   12  C   UNL     1     -12.072  13.917  68.960  1.00  0.00    -0.365 C  
BRANCH  12  13
HETATM   13  C   UNL     1     -12.013  14.193  67.460  1.00  0.00    -0.419 C  
BRANCH  13  14
HETATM   14  C   UNL     1     -11.701  12.916  66.693  1.00  0.00    -0.452 C  
BRANCH  14  15
HETATM   15  C   UNL     1     -10.432  13.065  65.859  1.00  0.00    -0.293 C  
BRANCH  15  16
HETATM   16  C   UNL     1      -9.288  12.281  66.495  1.00  0.00    -0.230 C  
BRANCH  16  17
HETATM   17  C   UNL     1      -8.333  13.194  67.257  1.00  0.00    -0.182 C  
HETATM   18  C   UNL     1      -7.519  12.420  68.266  1.00  0.00    -0.124 C  
HETATM   19  O   UNL     1      -7.591  11.220  68.470  1.00  0.00    -0.107 OA 
HETATM   20  O   UNL     1      -6.667  13.217  68.954  1.00  0.00    -0.100 OA 
ENDBRANCH  16  17
ENDBRANCH  15  16
ENDBRANCH  14  15
ENDBRANCH  13  14
ENDBRANCH  12  13
ENDBRANCH  11  12
ENDBRANCH  10  11
ENDBRANCH   8   9
ENDBRANCH   7   8
ENDBRANCH   5   6
ENDBRANCH   4   5
ENDBRANCH   3   4
ENDBRANCH   2   3
TORSDOF 13
ENDMDL
MODEL      182
REMARK 921   NORMALIZED FREE ENERGY PREDICTED BY IDOCK:   -3.82 KCAL/MOL
REMARK 922        TOTAL FREE ENERGY PREDICTED BY IDOCK:   -8.47 KCAL/MOL
REMARK 923 INTER-LIGAND FREE ENERGY PREDICTED BY IDOCK:   -5.84 KCAL/MOL
REMARK 924 INTRA-LIGAND FREE ENERGY PREDICTED BY IDOCK:   -2.63 KCAL/MOL
REMARK 927      BINDING AFFINITY PREDICTED BY RF-SCORE:    0.00 PKD
ROOT
HETATM    1  C   UNL     1     -10.677  15.197  65.116  1.00  0.00    -0.442 C  
HETATM    2  C   UNL     1     -11.550  14.377  66.050  1.00  0.00    -0.364 C  
ENDROOT
BRANCH   2   3
HETATM    3  C   UNL     1     -12.623  13.621  65.277  1.00  0.00    -0.512 C  
BRANCH   3   4
HETATM    4  C   UNL     1     -12.222  13.434  63.815  1.00  0.00    -0.482 C  
BRANCH   4   5
HETATM    5  C   UNL     1     -11.951  11.961  63.542  1.00  0.00    -0.567 C  
BRANCH   5   6
HETATM    6  C   UNL     1     -10.492  11.626  63.472  1.00  0.00    -0.498 C  
HETATM    7  C   UNL     1      -9.837  11.037  64.485  1.00  0.00    -0.343 C  
BRANCH   7   8
HETATM    8  C   UNL     1     -10.463  10.672  65.798  1.00  0.00    -0.235 C  
BRANCH   8   9
HETATM    9  C   UNL     1      -9.986   9.339  66.293  1.00  0.00    -0.357 C  
HETATM   10  C   UNL     1     -10.176   8.885  67.541  1.00  0.00    -0.309 C  
BRANCH  10  11
HETATM   11  C   UNL     1     -10.873   9.693  68.594  1.00  0.00    -0.203 C  
BRANCH  11  12
HETATM   12  C   UNL     1      -9.931  10.222  69.663  1.00  0.00    -0.240 C  
BRANCH  12  13
HETATM   13  C   UNL     1      -8.540   9.628  69.460  1.00  0.00    -0.177 C  
BRANCH  13  14
HETATM   14  C   UNL     1      -7.519  10.729  69.213  1.00  0.00    -0.135 C  
BRANCH  14  15
HETATM   15  C   UNL     1      -6.850  10.570  67.851  1.00  0.00    -0.069 C  
BRANCH  15  16
HETATM   16  C   UNL     1      -7.021  11.842  67.027  1.00  0.00    -0.116 C  
BRANCH  16  17
HETATM   17  C   UNL     1      -8.147  12.717  67.566  1.00  0.00    -0.178 C  
HETATM   18  C   UNL     1      -7.753  14.174  67.585  1.00  0.00    -0.174 C  
HETATM   19  O   UNL     1      -6.680  14.627  67.223  1.00  0.00    -0.280 OA 
HETATM   20  O   UNL     1      -8.742  14.965  68.065  1.00  0.00    -0.157 OA 
ENDBRANCH  16  17
ENDBRANCH  15  16
ENDBRANCH  14  15
ENDBRANCH  13  14
ENDBRANCH  12  13
ENDBRANCH  11  12
ENDBRANCH  10  11
ENDBRANCH   8   9
ENDBRANCH   7   8
ENDBRANCH   5   6
ENDBRANCH   4   5
ENDBRANCH   3   4
ENDBRANCH   2   3
TORSDOF 13
ENDMDL
MODEL      183
REMARK 921   NORMALIZED FREE ENERGY PREDICTED BY IDOCK:   -3.82 KCAL/MOL
REMARK 922        TOTAL FREE ENERGY PREDICTED BY IDOCK:   -8.46 KCAL/MOL
REMARK 923 INTER-LIGAND FREE ENERGY PREDICTED BY IDOCK:   -5.82 KCAL/MOL
REMARK 924 INTRA-LIGAND FREE ENERGY PREDICTED BY IDOCK:   -2.64 KCAL/MOL
REMARK 927      BINDING AFFINITY PREDICTED BY RF-SCORE:    0.00 PKD
ROOT
HETATM    1  C   UNL     1     -11.508  11.131  67.990  1.00  0.00    -0.366 C  
HETATM    2  C   UNL     1     -11.685  11.734  69.372  1.00  0.00    -0.405 C  
ENDROOT
BRANCH   2   3
HETATM    3  C   UNL     1     -11.922  13.236  69.290  1.00  0.00    -0.354 C  
BRANCH   3   4
HETATM    4  C   UNL     1     -12.301  13.811  70.653  1.00  0.00    -0.445 C  
BRANCH   4   5
HETATM    5  C   UNL     1     -12.316  15.332  70.583  1.00  0.00    -0.427 C  
BRANCH   5   6
HETATM    6  C   UNL     1     -10.949  15.935  70.452  1.00  0.00    -0.361 C  
HETATM    7  C   UNL     1     -10.537  16.552  69.334  1.00  0.00    -0.329 C  
BRANCH   7   8
HETATM    8  C   UNL     1     -11.363  16.690  68.090  1.00  0.00    -0.095 C  
BRANCH   8   9
HETATM    9  C   UNL     1     -10.512  16.928  66.878  1.00  0.00    -0.271 C  
HETATM   10  C   UNL     1     -10.059  15.955  66.072  1.00  0.00    -0.359 C  
BRANCH  10  11
HETATM   11  C   UNL     1     -10.340  14.504  66.325  1.00  0.00    -0.300 C  
BRANCH  11  12
HETATM   12  C   UNL     1      -9.094  13.706  66.673  1.00  0.00    -0.189 C  
BRANCH  12  13
HETATM   13  C   UNL     1      -8.686  13.995  68.116  1.00  0.00    -0.180 C  
BRANCH  13  14
HETATM   14  C   UNL     1      -7.228  14.426  68.183  1.00  0.00    -0.129 C  
BRANCH  14  15
HETATM   15  C   UNL     1      -7.020  15.524  69.221  1.00  0.00    -0.171 C  
BRANCH  15  16
HETATM   16  C   UNL     1      -7.291  16.893  68.604  1.00  0.00    -0.222 C  
BRANCH  16  17
HETATM   17  C   UNL     1      -6.820  16.962  67.155  1.00  0.00    -0.221 C  
HETATM   18  C   UNL     1      -7.199  18.275  66.515  1.00  0.00    -0.232 C  
HETATM   19  O   UNL     1      -7.805  19.185  67.058  1.00  0.00    -0.243 OA 
HETATM   20  O   UNL     1      -6.790  18.352  65.225  1.00  0.00    -0.520 OA 
ENDBRANCH  16  17
ENDBRANCH  15  16
ENDBRANCH  14  15
ENDBRANCH  13  14
ENDBRANCH  12  13
ENDBRANCH  11  12
ENDBRANCH  10  11
ENDBRANCH   8   9
ENDBRANCH   7   8
ENDBRANCH   5   6
ENDBRANCH   4   5
ENDBRANCH   3   4
ENDBRANCH   2   3
TORSDOF 13
ENDMDL
MODEL      184
REMARK 921   NORMALIZED FREE ENERGY PREDICTED BY IDOCK:   -3.81 KCAL/MOL
REMARK 922        TOTAL FREE ENERGY PREDICTED BY IDOCK:   -8.46 KCAL/MOL
REMARK 923 INTER-LIGAND FREE ENERGY PREDICTED BY IDOCK:   -6.92 KCAL/MOL
REMARK 924 INTRA-LIGAND FREE ENERGY PREDICTED BY IDOCK:   -1.53 KCAL/MOL
REMARK 927      BINDING AFFINITY PREDICTED BY RF-SCORE:    0.00 PKD
ROOT
HETATM    1  C   UNL     1      -6.473  16.161  68.368  1.00  0.00    -0.119 C  
HETATM    2  C   UNL     1      -5.977  17.508  68.865  1.00  0.00    -0.186 C  
ENDROOT
BRANCH   2   3
HETATM    3  C   UNL     1      -5.379  18.327  67.728  1.00  0.00    -0.155 C  
BRANCH   3   4
HETATM    4  C   UNL     1      -5.827  17.794  66.369  1.00  0.00    -0.230 C  
BRANCH   4   5
HETATM    5  C   UNL     1      -6.758  18.800  65.706  1.00  0.00    -0.306 C  
BRANCH   5   6
HETATM    6  C   UNL     1      -6.530  20.211  66.157  1.00  0.00    -0.229 C  
HETATM    7  C   UNL     1      -7.357  20.839  67.008  1.00  0.00    -0.354 C  
BRANCH   7   8
HETATM    8  C   UNL     1      -8.603  20.232  67.580  1.00  0.00    -0.340 C  
BRANCH   8   9
HETATM    9  C   UNL     1      -9.680  20.090  66.546  1.00  0.00    -0.564 C  
HETATM   10  C   UNL     1     -10.383  18.965  66.339  1.00  0.00    -0.503 C  
BRANCH  10  11
HETATM   11  C   UNL     1     -10.136  17.707  67.115  1.00  0.00    -0.328 C  
BRANCH  11  12
HETATM   12  C   UNL     1      -9.686  16.545  66.245  1.00  0.00    -0.328 C  
BRANCH  12  13
HETATM   13  C   UNL     1     -10.541  15.317  66.548  1.00  0.00    -0.304 C  
BRANCH  13  14
HETATM   14  C   UNL     1     -11.475  15.592  67.717  1.00  0.00    -0.247 C  
BRANCH  14  15
HETATM   15  C   UNL     1     -11.470  14.438  68.716  1.00  0.00    -0.319 C  
BRANCH  15  16
HETATM   16  C   UNL     1     -11.863  14.939  70.103  1.00  0.00    -0.357 C  
BRANCH  16  17
HETATM   17  C   UNL     1     -12.635  13.883  70.886  1.00  0.00    -0.431 C  
HETATM   18  C   UNL     1     -13.579  14.514  71.880  1.00  0.00    -0.396 C  
HETATM   19  O   UNL     1     -13.731  15.711  72.058  1.00  0.00    -0.476 OA 
HETATM   20  O   UNL     1     -14.271  13.589  72.588  1.00  0.00    -0.751 OA 
ENDBRANCH  16  17
ENDBRANCH  15  16
ENDBRANCH  14  15
ENDBRANCH  13  14
ENDBRANCH  12  13
ENDBRANCH  11  12
ENDBRANCH  10  11
ENDBRANCH   8   9
ENDBRANCH   7   8
ENDBRANCH   5   6
ENDBRANCH   4   5
ENDBRANCH   3   4
ENDBRANCH   2   3
TORSDOF 13
ENDMDL
MODEL      185
REMARK 921   NORMALIZED FREE ENERGY PREDICTED BY IDOCK:   -3.81 KCAL/MOL
REMARK 922        TOTAL FREE ENERGY PREDICTED BY IDOCK:   -8.45 KCAL/MOL
REMARK 923 INTER-LIGAND FREE ENERGY PREDICTED BY IDOCK:   -7.15 KCAL/MOL
REMARK 924 INTRA-LIGAND FREE ENERGY PREDICTED BY IDOCK:   -1.29 KCAL/MOL
REMARK 927      BINDING AFFINITY PREDICTED BY RF-SCORE:    0.00 PKD
ROOT
HETATM    1  C   UNL     1      -9.603   4.275  67.646  1.00  0.00    -0.215 C  
HETATM    2  C   UNL     1     -10.103   5.522  68.354  1.00  0.00    -0.234 C  
ENDROOT
BRANCH   2   3
HETATM    3  C   UNL     1     -10.231   5.288  69.854  1.00  0.00    -0.364 C  
BRANCH   3   4
HETATM    4  C   UNL     1     -10.362   6.608  70.609  1.00  0.00    -0.233 C  
BRANCH   4   5
HETATM    5  C   UNL     1     -11.834   6.920  70.844  1.00  0.00    -0.424 C  
BRANCH   5   6
HETATM    6  C   UNL     1     -12.095   7.612  72.148  1.00  0.00    -0.325 C  
HETATM    7  C   UNL     1     -12.470   8.899  72.220  1.00  0.00    -0.440 C  
BRANCH   7   8
HETATM    8  C   UNL     1     -12.645   9.797  71.031  1.00  0.00    -0.406 C  
BRANCH   8   9
HETATM    9  C   UNL     1     -11.438  10.656  70.797  1.00  0.00    -0.307 C  
HETATM   10  C   UNL     1     -10.642  10.561  69.721  1.00  0.00    -0.274 C  
BRANCH  10  11
HETATM   11  C   UNL     1     -10.867   9.547  68.640  1.00  0.00    -0.177 C  
BRANCH  11  12
HETATM   12  C   UNL     1     -11.009  10.167  67.259  1.00  0.00    -0.250 C  
BRANCH  12  13
HETATM   13  C   UNL     1     -11.318  11.656  67.395  1.00  0.00    -0.367 C  
BRANCH  13  14
HETATM   14  C   UNL     1     -11.720  12.243  66.050  1.00  0.00    -0.451 C  
BRANCH  14  15
HETATM   15  C   UNL     1     -11.843  13.762  66.121  1.00  0.00    -0.424 C  
BRANCH  15  16
HETATM   16  C   UNL     1     -10.528  14.418  65.710  1.00  0.00    -0.329 C  
BRANCH  16  17
HETATM   17  C   UNL     1     -10.365  15.797  66.339  1.00  0.00    -0.306 C  
HETATM   18  C   UNL     1     -10.823  16.888  65.402  1.00  0.00    -0.106 C  
HETATM   19  O   UNL     1     -11.271  16.722  64.279  1.00  0.00    -1.163 OA 
HETATM   20  O   UNL     1     -10.681  18.121  65.944  1.00  0.00    -0.358 OA 
ENDBRANCH  16  17
ENDBRANCH  15  16
ENDBRANCH  14  15
ENDBRANCH  13  14
ENDBRANCH  12  13
ENDBRANCH  11  12
ENDBRANCH  10  11
ENDBRANCH   8   9
ENDBRANCH   7   8
ENDBRANCH   5   6
ENDBRANCH   4   5
ENDBRANCH   3   4
ENDBRANCH   2   3
TORSDOF 13
ENDMDL
MODEL      186
REMARK 921   NORMALIZED FREE ENERGY PREDICTED BY IDOCK:   -3.81 KCAL/MOL
REMARK 922        TOTAL FREE ENERGY PREDICTED BY IDOCK:   -8.45 KCAL/MOL
REMARK 923 INTER-LIGAND FREE ENERGY PREDICTED BY IDOCK:   -7.19 KCAL/MOL
REMARK 924 INTRA-LIGAND FREE ENERGY PREDICTED BY IDOCK:   -1.26 KCAL/MOL
REMARK 927      BINDING AFFINITY PREDICTED BY RF-SCORE:    0.00 PKD
ROOT
HETATM    1  C   UNL     1     -10.426   5.630  66.705  1.00  0.00    -0.353 C  
HETATM    2  C   UNL     1      -9.918   7.059  66.634  1.00  0.00    -0.224 C  
ENDROOT
BRANCH   2   3
HETATM    3  C   UNL     1     -10.360   7.860  67.852  1.00  0.00    -0.281 C  
BRANCH   3   4
HETATM    4  C   UNL     1      -9.605   7.423  69.105  1.00  0.00    -0.156 C  
BRANCH   4   5
HETATM    5  C   UNL     1      -9.684   8.518  70.160  1.00  0.00    -0.175 C  
BRANCH   5   6
HETATM    6  C   UNL     1      -9.793   7.991  71.559  1.00  0.00    -0.217 C  
HETATM    7  C   UNL     1     -10.969   7.665  72.118  1.00  0.00    -0.304 C  
BRANCH   7   8
HETATM    8  C   UNL     1     -12.298   7.811  71.437  1.00  0.00    -0.346 C  
BRANCH   8   9
HETATM    9  C   UNL     1     -13.216   8.722  72.196  1.00  0.00    -0.456 C  
HETATM   10  C   UNL     1     -13.325  10.041  71.971  1.00  0.00    -0.513 C  
BRANCH  10  11
HETATM   11  C   UNL     1     -12.502  10.752  70.940  1.00  0.00    -0.500 C  
BRANCH  11  12
HETATM   12  C   UNL     1     -12.665  12.262  70.982  1.00  0.00    -0.319 C  
BRANCH  12  13
HETATM   13  C   UNL     1     -13.428  12.661  72.243  1.00  0.00    -0.541 C  
BRANCH  13  14
HETATM   14  C   UNL     1     -14.137  13.992  72.041  1.00  0.00    -0.600 C  
BRANCH  14  15
HETATM   15  C   UNL     1     -13.253  15.162  72.464  1.00  0.00    -0.505 C  
BRANCH  15  16
HETATM   16  C   UNL     1     -12.687  15.867  71.235  1.00  0.00    -0.376 C  
BRANCH  16  17
HETATM   17  C   UNL     1     -11.221  15.515  71.008  1.00  0.00    -0.419 C  
HETATM   18  C   UNL     1     -10.836  15.672  69.557  1.00  0.00    -0.271 C  
HETATM   19  O   UNL     1     -11.577  16.032  68.657  1.00  0.00    -0.386 OA 
HETATM   20  O   UNL     1      -9.536  15.360  69.336  1.00  0.00    -0.246 OA 
ENDBRANCH  16  17
ENDBRANCH  15  16
ENDBRANCH  14  15
ENDBRANCH  13  14
ENDBRANCH  12  13
ENDBRANCH  11  12
ENDBRANCH  10  11
ENDBRANCH   8   9
ENDBRANCH   7   8
ENDBRANCH   5   6
ENDBRANCH   4   5
ENDBRANCH   3   4
ENDBRANCH   2   3
TORSDOF 13
ENDMDL
MODEL      187
REMARK 921   NORMALIZED FREE ENERGY PREDICTED BY IDOCK:   -3.81 KCAL/MOL
REMARK 922        TOTAL FREE ENERGY PREDICTED BY IDOCK:   -8.44 KCAL/MOL
REMARK 923 INTER-LIGAND FREE ENERGY PREDICTED BY IDOCK:   -6.36 KCAL/MOL
REMARK 924 INTRA-LIGAND FREE ENERGY PREDICTED BY IDOCK:   -2.08 KCAL/MOL
REMARK 927      BINDING AFFINITY PREDICTED BY RF-SCORE:    0.00 PKD
ROOT
HETATM    1  C   UNL     1     -10.400  18.022  68.068  1.00  0.00    -0.397 C  
HETATM    2  C   UNL     1     -10.219  18.118  66.563  1.00  0.00    -0.398 C  
ENDROOT
BRANCH   2   3
HETATM    3  C   UNL     1     -10.067  19.567  66.119  1.00  0.00    -0.557 C  
BRANCH   3   4
HETATM    4  C   UNL     1      -9.332  20.393  67.173  1.00  0.00    -0.537 C  
BRANCH   4   5
HETATM    5  C   UNL     1      -7.838  20.386  66.881  1.00  0.00    -0.342 C  
BRANCH   5   6
HETATM    6  C   UNL     1      -7.003  20.848  68.037  1.00  0.00    -0.185 C  
HETATM    7  C   UNL     1      -6.564  20.011  68.990  1.00  0.00    -0.346 C  
BRANCH   7   8
HETATM    8  C   UNL     1      -6.870  18.543  69.033  1.00  0.00    -0.292 C  
BRANCH   8   9
HETATM    9  C   UNL     1      -5.738  17.720  68.494  1.00  0.00    -0.168 C  
HETATM   10  C   UNL     1      -5.881  16.753  67.575  1.00  0.00    -0.177 C  
BRANCH  10  11
HETATM   11  C   UNL     1      -7.214  16.371  67.008  1.00  0.00    -0.257 C  
BRANCH  11  12
HETATM   12  C   UNL     1      -7.662  14.977  67.417  1.00  0.00    -0.227 C  
BRANCH  12  13
HETATM   13  C   UNL     1      -8.026  14.971  68.900  1.00  0.00    -0.169 C  
BRANCH  13  14
HETATM   14  C   UNL     1      -9.536  14.918  69.079  1.00  0.00    -0.204 C  
BRANCH  14  15
HETATM   15  C   UNL     1     -10.119  13.628  68.508  1.00  0.00    -0.219 C  
BRANCH  15  16
HETATM   16  C   UNL     1     -11.529  13.404  69.044  1.00  0.00    -0.348 C  
BRANCH  16  17
HETATM   17  C   UNL     1     -12.204  14.717  69.425  1.00  0.00    -0.270 C  
HETATM   18  C   UNL     1     -12.889  14.616  70.766  1.00  0.00    -0.358 C  
HETATM   19  O   UNL     1     -12.918  13.626  71.479  1.00  0.00    -0.340 OA 
HETATM   20  O   UNL     1     -13.497  15.774  71.119  1.00  0.00    -0.575 OA 
ENDBRANCH  16  17
ENDBRANCH  15  16
ENDBRANCH  14  15
ENDBRANCH  13  14
ENDBRANCH  12  13
ENDBRANCH  11  12
ENDBRANCH  10  11
ENDBRANCH   8   9
ENDBRANCH   7   8
ENDBRANCH   5   6
ENDBRANCH   4   5
ENDBRANCH   3   4
ENDBRANCH   2   3
TORSDOF 13
ENDMDL
MODEL      188
REMARK 921   NORMALIZED FREE ENERGY PREDICTED BY IDOCK:   -3.81 KCAL/MOL
REMARK 922        TOTAL FREE ENERGY PREDICTED BY IDOCK:   -8.44 KCAL/MOL
REMARK 923 INTER-LIGAND FREE ENERGY PREDICTED BY IDOCK:   -6.24 KCAL/MOL
REMARK 924 INTRA-LIGAND FREE ENERGY PREDICTED BY IDOCK:   -2.21 KCAL/MOL
REMARK 927      BINDING AFFINITY PREDICTED BY RF-SCORE:    0.00 PKD
ROOT
HETATM    1  C   UNL     1      -6.770  15.005  67.821  1.00  0.00    -0.188 C  
HETATM    2  C   UNL     1      -7.707  14.016  68.492  1.00  0.00    -0.139 C  
ENDROOT
BRANCH   2   3
HETATM    3  C   UNL     1      -7.489  12.605  67.961  1.00  0.00    -0.120 C  
BRANCH   3   4
HETATM    4  C   UNL     1      -8.462  12.285  66.828  1.00  0.00    -0.119 C  
BRANCH   4   5
HETATM    5  C   UNL     1      -9.093  10.919  67.065  1.00  0.00    -0.158 C  
BRANCH   5   6
HETATM    6  C   UNL     1      -9.479  10.681  68.494  1.00  0.00    -0.176 C  
HETATM    7  C   UNL     1     -10.669  11.053  68.991  1.00  0.00    -0.258 C  
BRANCH   7   8
HETATM    8  C   UNL     1     -11.730  11.764  68.204  1.00  0.00    -0.377 C  
BRANCH   8   9
HETATM    9  C   UNL     1     -11.680  13.248  68.413  1.00  0.00    -0.389 C  
HETATM   10  C   UNL     1     -11.726  14.152  67.422  1.00  0.00    -0.422 C  
BRANCH  10  11
HETATM   11  C   UNL     1     -11.804  13.758  65.978  1.00  0.00    -0.415 C  
BRANCH  11  12
HETATM   12  C   UNL     1     -10.723  14.401  65.124  1.00  0.00    -0.413 C  
BRANCH  12  13
HETATM   13  C   UNL     1     -10.757  15.916  65.309  1.00  0.00    -0.442 C  
BRANCH  13  14
HETATM   14  C   UNL     1      -9.535  16.387  66.084  1.00  0.00    -0.363 C  
BRANCH  14  15
HETATM   15  C   UNL     1      -9.934  17.223  67.296  1.00  0.00    -0.283 C  
BRANCH  15  16
HETATM   16  C   UNL     1     -10.363  18.620  66.856  1.00  0.00    -0.444 C  
BRANCH  16  17
HETATM   17  C   UNL     1      -9.542  19.706  67.543  1.00  0.00    -0.446 C  
HETATM   18  C   UNL     1      -8.326  20.075  66.729  1.00  0.00    -0.323 C  
HETATM   19  O   UNL     1      -8.012  19.588  65.655  1.00  0.00    -0.422 OA 
HETATM   20  O   UNL     1      -7.583  21.037  67.327  1.00  0.00    -0.340 OA 
ENDBRANCH  16  17
ENDBRANCH  15  16
ENDBRANCH  14  15
ENDBRANCH  13  14
ENDBRANCH  12  13
ENDBRANCH  11  12
ENDBRANCH  10  11
ENDBRANCH   8   9
ENDBRANCH   7   8
ENDBRANCH   5   6
ENDBRANCH   4   5
ENDBRANCH   3   4
ENDBRANCH   2   3
TORSDOF 13
ENDMDL
MODEL      189
REMARK 921   NORMALIZED FREE ENERGY PREDICTED BY IDOCK:   -3.80 KCAL/MOL
REMARK 922        TOTAL FREE ENERGY PREDICTED BY IDOCK:   -8.43 KCAL/MOL
REMARK 923 INTER-LIGAND FREE ENERGY PREDICTED BY IDOCK:   -6.89 KCAL/MOL
REMARK 924 INTRA-LIGAND FREE ENERGY PREDICTED BY IDOCK:   -1.55 KCAL/MOL
REMARK 927      BINDING AFFINITY PREDICTED BY RF-SCORE:    0.00 PKD
ROOT
HETATM    1  C   UNL     1      -8.182   8.803  71.397  1.00  0.00    -0.203 C  
HETATM    2  C   UNL     1      -8.472   7.563  72.224  1.00  0.00    -0.138 C  
ENDROOT
BRANCH   2   3
HETATM    3  C   UNL     1      -9.319   7.901  73.444  1.00  0.00    -0.348 C  
BRANCH   3   4
HETATM    4  C   UNL     1     -10.398   6.845  73.677  1.00  0.00    -0.397 C  
BRANCH   4   5
HETATM    5  C   UNL     1     -10.837   6.257  72.343  1.00  0.00    -0.277 C  
BRANCH   5   6
HETATM    6  C   UNL     1     -12.282   6.503  72.031  1.00  0.00    -0.343 C  
HETATM    7  C   UNL     1     -12.700   7.578  71.344  1.00  0.00    -0.382 C  
BRANCH   7   8
HETATM    8  C   UNL     1     -11.795   8.660  70.835  1.00  0.00    -0.257 C  
BRANCH   8   9
HETATM    9  C   UNL     1     -12.138   9.997  71.423  1.00  0.00    -0.498 C  
HETATM   10  C   UNL     1     -12.268  11.125  70.707  1.00  0.00    -0.484 C  
BRANCH  10  11
HETATM   11  C   UNL     1     -12.050  11.167  69.225  1.00  0.00    -0.377 C  
BRANCH  11  12
HETATM   12  C   UNL     1     -11.140  12.302  68.786  1.00  0.00    -0.295 C  
BRANCH  12  13
HETATM   13  C   UNL     1     -11.520  12.748  67.376  1.00  0.00    -0.396 C  
BRANCH  13  14
HETATM   14  C   UNL     1     -12.135  14.140  67.404  1.00  0.00    -0.379 C  
BRANCH  14  15
HETATM   15  C   UNL     1     -11.856  14.844  68.729  1.00  0.00    -0.328 C  
BRANCH  15  16
HETATM   16  C   UNL     1     -10.907  16.019  68.513  1.00  0.00    -0.304 C  
BRANCH  16  17
HETATM   17  C   UNL     1     -10.651  16.273  67.031  1.00  0.00    -0.284 C  
HETATM   18  C   UNL     1     -10.686  17.748  66.711  1.00  0.00    -0.139 C  
HETATM   19  O   UNL     1     -10.889  18.646  67.512  1.00  0.00    -0.435 OA 
HETATM   20  O   UNL     1     -10.464  17.992  65.397  1.00  0.00    -0.621 OA 
ENDBRANCH  16  17
ENDBRANCH  15  16
ENDBRANCH  14  15
ENDBRANCH  13  14
ENDBRANCH  12  13
ENDBRANCH  11  12
ENDBRANCH  10  11
ENDBRANCH   8   9
ENDBRANCH   7   8
ENDBRANCH   5   6
ENDBRANCH   4   5
ENDBRANCH   3   4
ENDBRANCH   2   3
TORSDOF 13
ENDMDL
MODEL      190
REMARK 921   NORMALIZED FREE ENERGY PREDICTED BY IDOCK:   -3.80 KCAL/MOL
REMARK 922        TOTAL FREE ENERGY PREDICTED BY IDOCK:   -8.43 KCAL/MOL
REMARK 923 INTER-LIGAND FREE ENERGY PREDICTED BY IDOCK:   -6.80 KCAL/MOL
REMARK 924 INTRA-LIGAND FREE ENERGY PREDICTED BY IDOCK:   -1.63 KCAL/MOL
REMARK 927      BINDING AFFINITY PREDICTED BY RF-SCORE:    0.00 PKD
ROOT
HETATM    1  C   UNL     1      -6.773  18.402  67.497  1.00  0.00    -0.201 C  
HETATM    2  C   UNL     1      -7.393  19.014  68.741  1.00  0.00    -0.366 C  
ENDROOT
BRANCH   2   3
HETATM    3  C   UNL     1      -8.772  19.589  68.442  1.00  0.00    -0.389 C  
BRANCH   3   4
HETATM    4  C   UNL     1      -9.058  19.584  66.942  1.00  0.00    -0.392 C  
BRANCH   4   5
HETATM    5  C   UNL     1     -10.404  18.922  66.679  1.00  0.00    -0.479 C  
BRANCH   5   6
HETATM    6  C   UNL     1     -10.672  17.745  67.567  1.00  0.00    -0.315 C  
HETATM    7  C   UNL     1     -10.438  16.481  67.181  1.00  0.00    -0.300 C  
BRANCH   7   8
HETATM    8  C   UNL     1      -9.916  16.092  65.829  1.00  0.00    -0.370 C  
BRANCH   8   9
HETATM    9  C   UNL     1     -11.027  15.834  64.855  1.00  0.00    -0.443 C  
HETATM   10  C   UNL     1     -11.423  14.611  64.470  1.00  0.00    -0.340 C  
BRANCH  10  11
HETATM   11  C   UNL     1     -10.762  13.359  64.962  1.00  0.00    -0.354 C  
BRANCH  11  12
HETATM   12  C   UNL     1     -11.670  12.507  65.834  1.00  0.00    -0.480 C  
BRANCH  12  13
HETATM   13  C   UNL     1     -11.825  13.161  67.205  1.00  0.00    -0.420 C  
BRANCH  13  14
HETATM   14  C   UNL     1     -11.718  12.119  68.309  1.00  0.00    -0.401 C  
BRANCH  14  15
HETATM   15  C   UNL     1     -10.262  11.770  68.606  1.00  0.00    -0.211 C  
BRANCH  15  16
HETATM   16  C   UNL     1     -10.088  10.257  68.687  1.00  0.00    -0.187 C  
BRANCH  16  17
HETATM   17  C   UNL     1      -9.682   9.810  70.087  1.00  0.00    -0.299 C  
HETATM   18  C   UNL     1     -10.877   9.351  70.887  1.00  0.00    -0.322 C  
HETATM   19  O   UNL     1     -12.032   9.328  70.495  1.00  0.00    -0.199 OA 
HETATM   20  O   UNL     1     -10.534   8.953  72.136  1.00  0.00    -0.336 OA 
ENDBRANCH  16  17
ENDBRANCH  15  16
ENDBRANCH  14  15
ENDBRANCH  13  14
ENDBRANCH  12  13
ENDBRANCH  11  12
ENDBRANCH  10  11
ENDBRANCH   8   9
ENDBRANCH   7   8
ENDBRANCH   5   6
ENDBRANCH   4   5
ENDBRANCH   3   4
ENDBRANCH   2   3
TORSDOF 13
ENDMDL
MODEL      191
REMARK 921   NORMALIZED FREE ENERGY PREDICTED BY IDOCK:   -3.79 KCAL/MOL
REMARK 922        TOTAL FREE ENERGY PREDICTED BY IDOCK:   -8.41 KCAL/MOL
REMARK 923 INTER-LIGAND FREE ENERGY PREDICTED BY IDOCK:   -7.33 KCAL/MOL
REMARK 924 INTRA-LIGAND FREE ENERGY PREDICTED BY IDOCK:   -1.08 KCAL/MOL
REMARK 927      BINDING AFFINITY PREDICTED BY RF-SCORE:    0.00 PKD
ROOT
HETATM    1  C   UNL     1     -10.369   4.531  74.376  1.00  0.00    -0.305 C  
HETATM    2  C   UNL     1     -11.404   4.643  73.270  1.00  0.00    -0.393 C  
ENDROOT
BRANCH   2   3
HETATM    3  C   UNL     1     -11.085   5.801  72.334  1.00  0.00    -0.332 C  
BRANCH   3   4
HETATM    4  C   UNL     1     -10.099   6.775  72.977  1.00  0.00    -0.212 C  
BRANCH   4   5
HETATM    5  C   UNL     1     -10.491   8.205  72.629  1.00  0.00    -0.401 C  
BRANCH   5   6
HETATM    6  C   UNL     1     -11.962   8.381  72.403  1.00  0.00    -0.451 C  
HETATM    7  C   UNL     1     -12.454   9.152  71.421  1.00  0.00    -0.396 C  
BRANCH   7   8
HETATM    8  C   UNL     1     -11.612   9.940  70.461  1.00  0.00    -0.386 C  
BRANCH   8   9
HETATM    9  C   UNL     1     -11.989  11.392  70.449  1.00  0.00    -0.465 C  
HETATM   10  C   UNL     1     -12.032  12.151  69.343  1.00  0.00    -0.329 C  
BRANCH  10  11
HETATM   11  C   UNL     1     -11.672  11.620  67.989  1.00  0.00    -0.351 C  
BRANCH  11  12
HETATM   12  C   UNL     1     -11.700  12.683  66.903  1.00  0.00    -0.453 C  
BRANCH  12  13
HETATM   13  C   UNL     1     -12.114  14.023  67.508  1.00  0.00    -0.361 C  
BRANCH  13  14
HETATM   14  C   UNL     1     -11.157  15.123  67.073  1.00  0.00    -0.328 C  
BRANCH  14  15
HETATM   15  C   UNL     1     -10.216  15.522  68.207  1.00  0.00    -0.222 C  
BRANCH  15  16
HETATM   16  C   UNL     1      -9.972  17.027  68.185  1.00  0.00    -0.287 C  
BRANCH  16  17
HETATM   17  C   UNL     1     -10.254  17.625  66.811  1.00  0.00    -0.335 C  
HETATM   18  C   UNL     1     -10.533  19.106  66.901  1.00  0.00    -0.437 C  
HETATM   19  O   UNL     1     -10.539  19.769  67.925  1.00  0.00    -0.416 OA 
HETATM   20  O   UNL     1     -10.789  19.653  65.688  1.00  0.00    -0.473 OA 
ENDBRANCH  16  17
ENDBRANCH  15  16
ENDBRANCH  14  15
ENDBRANCH  13  14
ENDBRANCH  12  13
ENDBRANCH  11  12
ENDBRANCH  10  11
ENDBRANCH   8   9
ENDBRANCH   7   8
ENDBRANCH   5   6
ENDBRANCH   4   5
ENDBRANCH   3   4
ENDBRANCH   2   3
TORSDOF 13
ENDMDL
MODEL      192
REMARK 921   NORMALIZED FREE ENERGY PREDICTED BY IDOCK:   -3.78 KCAL/MOL
REMARK 922        TOTAL FREE ENERGY PREDICTED BY IDOCK:   -8.39 KCAL/MOL
REMARK 923 INTER-LIGAND FREE ENERGY PREDICTED BY IDOCK:   -6.50 KCAL/MOL
REMARK 924 INTRA-LIGAND FREE ENERGY PREDICTED BY IDOCK:   -1.90 KCAL/MOL
REMARK 927      BINDING AFFINITY PREDICTED BY RF-SCORE:    0.00 PKD
ROOT
HETATM    1  C   UNL     1     -10.013   8.199  71.953  1.00  0.00    -0.277 C  
HETATM    2  C   UNL     1     -10.515   6.767  72.022  1.00  0.00    -0.226 C  
ENDROOT
BRANCH   2   3
HETATM    3  C   UNL     1     -11.186   6.357  70.718  1.00  0.00    -0.386 C  
BRANCH   3   4
HETATM    4  C   UNL     1     -10.315   5.377  69.934  1.00  0.00    -0.377 C  
BRANCH   4   5
HETATM    5  C   UNL     1      -9.813   6.042  68.660  1.00  0.00    -0.166 C  
BRANCH   5   6
HETATM    6  C   UNL     1     -10.906   6.660  67.841  1.00  0.00    -0.353 C  
HETATM    7  C   UNL     1     -10.723   7.776  67.117  1.00  0.00    -0.337 C  
BRANCH   7   8
HETATM    8  C   UNL     1      -9.436   8.544  67.059  1.00  0.00    -0.223 C  
BRANCH   8   9
HETATM    9  C   UNL     1      -8.891   8.615  65.663  1.00  0.00    -0.227 C  
HETATM   10  C   UNL     1      -9.236   9.551  64.766  1.00  0.00    -0.267 C  
BRANCH  10  11
HETATM   11  C   UNL     1     -10.240  10.622  65.065  1.00  0.00    -0.380 C  
BRANCH  11  12
HETATM   12  C   UNL     1      -9.604  11.961  65.404  1.00  0.00    -0.183 C  
BRANCH  12  13
HETATM   13  C   UNL     1     -10.509  12.729  66.364  1.00  0.00    -0.265 C  
BRANCH  13  14
HETATM   14  C   UNL     1     -11.295  11.768  67.244  1.00  0.00    -0.379 C  
BRANCH  14  15
HETATM   15  C   UNL     1     -10.731  11.723  68.661  1.00  0.00    -0.252 C  
BRANCH  15  16
HETATM   16  C   UNL     1     -11.846  11.941  69.679  1.00  0.00    -0.406 C  
BRANCH  16  17
HETATM   17  C   UNL     1     -12.255  10.637  70.356  1.00  0.00    -0.432 C  
HETATM   18  C   UNL     1     -13.059  10.894  71.607  1.00  0.00    -0.433 C  
HETATM   19  O   UNL     1     -13.361  11.991  72.047  1.00  0.00    -0.495 OA 
HETATM   20  O   UNL     1     -13.428   9.745  72.223  1.00  0.00    -0.434 OA 
ENDBRANCH  16  17
ENDBRANCH  15  16
ENDBRANCH  14  15
ENDBRANCH  13  14
ENDBRANCH  12  13
ENDBRANCH  11  12
ENDBRANCH  10  11
ENDBRANCH   8   9
ENDBRANCH   7   8
ENDBRANCH   5   6
ENDBRANCH   4   5
ENDBRANCH   3   4
ENDBRANCH   2   3
TORSDOF 13
ENDMDL
MODEL      193
REMARK 921   NORMALIZED FREE ENERGY PREDICTED BY IDOCK:   -3.78 KCAL/MOL
REMARK 922        TOTAL FREE ENERGY PREDICTED BY IDOCK:   -8.39 KCAL/MOL
REMARK 923 INTER-LIGAND FREE ENERGY PREDICTED BY IDOCK:   -6.61 KCAL/MOL
REMARK 924 INTRA-LIGAND FREE ENERGY PREDICTED BY IDOCK:   -1.78 KCAL/MOL
REMARK 927      BINDING AFFINITY PREDICTED BY RF-SCORE:    0.00 PKD
ROOT
HETATM    1  C   UNL     1     -10.709  16.153  67.661  1.00  0.00    -0.318 C  
HETATM    2  C   UNL     1      -9.862  15.553  66.553  1.00  0.00    -0.281 C  
ENDROOT
BRANCH   2   3
HETATM    3  C   UNL     1     -10.690  15.313  65.297  1.00  0.00    -0.433 C  
BRANCH   3   4
HETATM    4  C   UNL     1     -10.419  13.928  64.713  1.00  0.00    -0.451 C  
BRANCH   4   5
HETATM    5  C   UNL     1     -10.168  12.936  65.841  1.00  0.00    -0.299 C  
BRANCH   5   6
HETATM    6  C   UNL     1     -11.389  12.163  66.237  1.00  0.00    -0.411 C  
HETATM    7  C   UNL     1     -11.732  11.961  67.519  1.00  0.00    -0.335 C  
BRANCH   7   8
HETATM    8  C   UNL     1     -10.938  12.450  68.694  1.00  0.00    -0.283 C  
BRANCH   8   9
HETATM    9  C   UNL     1     -11.823  12.850  69.837  1.00  0.00    -0.373 C  
HETATM   10  C   UNL     1     -12.403  11.982  70.680  1.00  0.00    -0.394 C  
BRANCH  10  11
HETATM   11  C   UNL     1     -12.246  10.498  70.543  1.00  0.00    -0.435 C  
BRANCH  11  12
HETATM   12  C   UNL     1     -11.307   9.898  71.576  1.00  0.00    -0.246 C  
BRANCH  12  13
HETATM   13  C   UNL     1     -10.152   9.191  70.870  1.00  0.00    -0.356 C  
BRANCH  13  14
HETATM   14  C   UNL     1     -10.652   8.452  69.638  1.00  0.00    -0.219 C  
BRANCH  14  15
HETATM   15  C   UNL     1      -9.874   7.159  69.411  1.00  0.00    -0.161 C  
BRANCH  15  16
HETATM   16  C   UNL     1     -10.722   5.956  69.814  1.00  0.00    -0.411 C  
BRANCH  16  17
HETATM   17  C   UNL     1     -10.379   5.469  71.218  1.00  0.00    -0.297 C  
HETATM   18  C   UNL     1     -11.388   5.953  72.231  1.00  0.00    -0.298 C  
HETATM   19  O   UNL     1     -12.362   6.647  71.991  1.00  0.00    -0.330 OA 
HETATM   20  O   UNL     1     -11.096   5.531  73.485  1.00  0.00    -0.276 OA 
ENDBRANCH  16  17
ENDBRANCH  15  16
ENDBRANCH  14  15
ENDBRANCH  13  14
ENDBRANCH  12  13
ENDBRANCH  11  12
ENDBRANCH  10  11
ENDBRANCH   8   9
ENDBRANCH   7   8
ENDBRANCH   5   6
ENDBRANCH   4   5
ENDBRANCH   3   4
ENDBRANCH   2   3
TORSDOF 13
ENDMDL
MODEL      194
REMARK 921   NORMALIZED FREE ENERGY PREDICTED BY IDOCK:   -3.77 KCAL/MOL
REMARK 922        TOTAL FREE ENERGY PREDICTED BY IDOCK:   -8.38 KCAL/MOL
REMARK 923 INTER-LIGAND FREE ENERGY PREDICTED BY IDOCK:   -6.64 KCAL/MOL
REMARK 924 INTRA-LIGAND FREE ENERGY PREDICTED BY IDOCK:   -1.74 KCAL/MOL
REMARK 927      BINDING AFFINITY PREDICTED BY RF-SCORE:    0.00 PKD
ROOT
HETATM    1  C   UNL     1     -10.556  19.366  66.159  1.00  0.00    -0.571 C  
HETATM    2  C   UNL     1     -10.328  18.761  67.533  1.00  0.00    -0.471 C  
ENDROOT
BRANCH   2   3
HETATM    3  C   UNL     1     -10.472  17.245  67.496  1.00  0.00    -0.356 C  
BRANCH   3   4
HETATM    4  C   UNL     1     -10.195  16.698  66.098  1.00  0.00    -0.360 C  
BRANCH   4   5
HETATM    5  C   UNL     1     -10.582  15.226  66.037  1.00  0.00    -0.327 C  
BRANCH   5   6
HETATM    6  C   UNL     1      -9.732  14.350  66.907  1.00  0.00    -0.266 C  
HETATM    7  C   UNL     1     -10.251  13.542  67.845  1.00  0.00    -0.247 C  
BRANCH   7   8
HETATM    8  C   UNL     1     -11.715  13.436  68.153  1.00  0.00    -0.397 C  
BRANCH   8   9
HETATM    9  C   UNL     1     -11.979  13.485  69.629  1.00  0.00    -0.397 C  
HETATM   10  C   UNL     1     -12.112  12.400  70.407  1.00  0.00    -0.381 C  
BRANCH  10  11
HETATM   11  C   UNL     1     -12.038  11.006  69.864  1.00  0.00    -0.435 C  
BRANCH  11  12
HETATM   12  C   UNL     1     -10.730  10.304  70.193  1.00  0.00    -0.334 C  
BRANCH  12  13
HETATM   13  C   UNL     1      -9.923  10.098  68.914  1.00  0.00    -0.207 C  
BRANCH  13  14
HETATM   14  C   UNL     1     -10.841   9.744  67.754  1.00  0.00    -0.306 C  
BRANCH  14  15
HETATM   15  C   UNL     1     -10.193   8.723  66.823  1.00  0.00    -0.354 C  
BRANCH  15  16
HETATM   16  C   UNL     1     -10.801   7.342  67.050  1.00  0.00    -0.307 C  
BRANCH  16  17
HETATM   17  C   UNL     1      -9.843   6.420  67.796  1.00  0.00    -0.136 C  
HETATM   18  C   UNL     1     -10.372   6.065  69.163  1.00  0.00    -0.229 C  
HETATM   19  O   UNL     1     -11.427   6.449  69.641  1.00  0.00    -0.416 OA 
HETATM   20  O   UNL     1      -9.531   5.248  69.842  1.00  0.00    -0.139 OA 
ENDBRANCH  16  17
ENDBRANCH  15  16
ENDBRANCH  14  15
ENDBRANCH  13  14
ENDBRANCH  12  13
ENDBRANCH  11  12
ENDBRANCH  10  11
ENDBRANCH   8   9
ENDBRANCH   7   8
ENDBRANCH   5   6
ENDBRANCH   4   5
ENDBRANCH   3   4
ENDBRANCH   2   3
TORSDOF 13
ENDMDL
MODEL      195
REMARK 921   NORMALIZED FREE ENERGY PREDICTED BY IDOCK:   -3.76 KCAL/MOL
REMARK 922        TOTAL FREE ENERGY PREDICTED BY IDOCK:   -8.37 KCAL/MOL
REMARK 923 INTER-LIGAND FREE ENERGY PREDICTED BY IDOCK:   -6.59 KCAL/MOL
REMARK 924 INTRA-LIGAND FREE ENERGY PREDICTED BY IDOCK:   -1.78 KCAL/MOL
REMARK 927      BINDING AFFINITY PREDICTED BY RF-SCORE:    0.00 PKD
ROOT
HETATM    1  C   UNL     1     -11.538  12.010  63.259  1.00  0.00    -0.409 C  
HETATM    2  C   UNL     1     -12.469  13.165  63.585  1.00  0.00    -0.374 C  
ENDROOT
BRANCH   2   3
HETATM    3  C   UNL     1     -12.589  13.366  65.090  1.00  0.00    -0.495 C  
BRANCH   3   4
HETATM    4  C   UNL     1     -11.627  12.452  65.847  1.00  0.00    -0.449 C  
BRANCH   4   5
HETATM    5  C   UNL     1     -11.853  12.598  67.346  1.00  0.00    -0.393 C  
BRANCH   5   6
HETATM    6  C   UNL     1     -11.290  11.463  68.147  1.00  0.00    -0.374 C  
HETATM    7  C   UNL     1      -9.972  11.222  68.229  1.00  0.00    -0.201 C  
BRANCH   7   8
HETATM    8  C   UNL     1      -8.919  12.025  67.523  1.00  0.00    -0.174 C  
BRANCH   8   9
HETATM    9  C   UNL     1      -8.388  13.130  68.386  1.00  0.00    -0.122 C  
HETATM   10  C   UNL     1      -8.402  14.427  68.044  1.00  0.00    -0.157 C  
BRANCH  10  11
HETATM   11  C   UNL     1      -8.934  14.907  66.727  1.00  0.00    -0.295 C  
BRANCH  11  12
HETATM   12  C   UNL     1     -10.189  15.754  66.862  1.00  0.00    -0.280 C  
BRANCH  12  13
HETATM   13  C   UNL     1     -10.556  15.896  68.337  1.00  0.00    -0.266 C  
BRANCH  13  14
HETATM   14  C   UNL     1     -10.518  17.357  68.760  1.00  0.00    -0.333 C  
BRANCH  14  15
HETATM   15  C   UNL     1      -9.086  17.881  68.820  1.00  0.00    -0.213 C  
BRANCH  15  16
HETATM   16  C   UNL     1      -9.054  19.368  68.483  1.00  0.00    -0.426 C  
BRANCH  16  17
HETATM   17  C   UNL     1     -10.241  19.777  67.618  1.00  0.00    -0.569 C  
HETATM   18  C   UNL     1      -9.933  19.615  66.149  1.00  0.00    -0.463 C  
HETATM   19  O   UNL     1      -8.882  19.211  65.681  1.00  0.00    -0.296 OA 
HETATM   20  O   UNL     1     -10.977  19.977  65.365  1.00  0.00    -0.300 OA 
ENDBRANCH  16  17
ENDBRANCH  15  16
ENDBRANCH  14  15
ENDBRANCH  13  14
ENDBRANCH  12  13
ENDBRANCH  11  12
ENDBRANCH  10  11
ENDBRANCH   8   9
ENDBRANCH   7   8
ENDBRANCH   5   6
ENDBRANCH   4   5
ENDBRANCH   3   4
ENDBRANCH   2   3
TORSDOF 13
ENDMDL
MODEL      196
REMARK 921   NORMALIZED FREE ENERGY PREDICTED BY IDOCK:   -3.75 KCAL/MOL
REMARK 922        TOTAL FREE ENERGY PREDICTED BY IDOCK:   -8.35 KCAL/MOL
REMARK 923 INTER-LIGAND FREE ENERGY PREDICTED BY IDOCK:   -6.40 KCAL/MOL
REMARK 924 INTRA-LIGAND FREE ENERGY PREDICTED BY IDOCK:   -1.95 KCAL/MOL
REMARK 927      BINDING AFFINITY PREDICTED BY RF-SCORE:    0.00 PKD
ROOT
HETATM    1  C   UNL     1      -6.312   7.491  70.169  1.00  0.00    -0.034 C  
HETATM    2  C   UNL     1      -7.231   7.820  69.005  1.00  0.00    -0.080 C  
ENDROOT
BRANCH   2   3
HETATM    3  C   UNL     1      -7.899   9.175  69.198  1.00  0.00    -0.092 C  
BRANCH   3   4
HETATM    4  C   UNL     1      -8.357   9.364  70.642  1.00  0.00    -0.217 C  
BRANCH   4   5
HETATM    5  C   UNL     1      -9.683   8.646  70.857  1.00  0.00    -0.254 C  
BRANCH   5   6
HETATM    6  C   UNL     1      -9.875   8.157  72.261  1.00  0.00    -0.329 C  
HETATM    7  C   UNL     1     -11.089   7.934  72.788  1.00  0.00    -0.462 C  
BRANCH   7   8
HETATM    8  C   UNL     1     -12.382   8.168  72.064  1.00  0.00    -0.380 C  
BRANCH   8   9
HETATM    9  C   UNL     1     -13.048   9.436  72.507  1.00  0.00    -0.374 C  
HETATM   10  C   UNL     1     -13.134  10.546  71.756  1.00  0.00    -0.570 C  
BRANCH  10  11
HETATM   11  C   UNL     1     -12.535  10.637  70.385  1.00  0.00    -0.421 C  
BRANCH  11  12
HETATM   12  C   UNL     1     -11.743  11.916  70.163  1.00  0.00    -0.337 C  
BRANCH  12  13
HETATM   13  C   UNL     1     -10.688  11.684  69.083  1.00  0.00    -0.188 C  
BRANCH  13  14
HETATM   14  C   UNL     1     -11.262  10.853  67.945  1.00  0.00    -0.387 C  
BRANCH  14  15
HETATM   15  C   UNL     1     -10.274  10.738  66.788  1.00  0.00    -0.279 C  
BRANCH  15  16
HETATM   16  C   UNL     1     -10.887  11.304  65.511  1.00  0.00    -0.244 C  
BRANCH  16  17
HETATM   17  C   UNL     1     -12.064  12.226  65.811  1.00  0.00    -0.287 C  
HETATM   18  C   UNL     1     -12.174  13.330  64.787  1.00  0.00    -0.417 C  
HETATM   19  O   UNL     1     -11.434  13.492  63.831  1.00  0.00    -0.355 OA 
HETATM   20  O   UNL     1     -13.213  14.161  65.041  1.00  0.00    -0.691 OA 
ENDBRANCH  16  17
ENDBRANCH  15  16
ENDBRANCH  14  15
ENDBRANCH  13  14
ENDBRANCH  12  13
ENDBRANCH  11  12
ENDBRANCH  10  11
ENDBRANCH   8   9
ENDBRANCH   7   8
ENDBRANCH   5   6
ENDBRANCH   4   5
ENDBRANCH   3   4
ENDBRANCH   2   3
TORSDOF 13
ENDMDL
MODEL      197
REMARK 921   NORMALIZED FREE ENERGY PREDICTED BY IDOCK:   -3.75 KCAL/MOL
REMARK 922        TOTAL FREE ENERGY PREDICTED BY IDOCK:   -8.34 KCAL/MOL
REMARK 923 INTER-LIGAND FREE ENERGY PREDICTED BY IDOCK:   -6.48 KCAL/MOL
REMARK 924 INTRA-LIGAND FREE ENERGY PREDICTED BY IDOCK:   -1.86 KCAL/MOL
REMARK 927      BINDING AFFINITY PREDICTED BY RF-SCORE:    0.00 PKD
ROOT
HETATM    1  C   UNL     1     -10.675  14.774  64.868  1.00  0.00    -0.438 C  
HETATM    2  C   UNL     1     -12.080  14.291  64.555  1.00  0.00    -0.499 C  
ENDROOT
BRANCH   2   3
HETATM    3  C   UNL     1     -12.446  13.080  65.403  1.00  0.00    -0.531 C  
BRANCH   3   4
HETATM    4  C   UNL     1     -11.727  13.111  66.750  1.00  0.00    -0.439 C  
BRANCH   4   5
HETATM    5  C   UNL     1     -11.329  11.697  67.153  1.00  0.00    -0.373 C  
BRANCH   5   6
HETATM    6  C   UNL     1     -11.884  11.278  68.481  1.00  0.00    -0.355 C  
HETATM    7  C   UNL     1     -11.329  10.306  69.221  1.00  0.00    -0.253 C  
BRANCH   7   8
HETATM    8  C   UNL     1     -10.124   9.513  68.808  1.00  0.00    -0.202 C  
BRANCH   8   9
HETATM    9  C   UNL     1      -8.867  10.044  69.430  1.00  0.00    -0.200 C  
HETATM   10  C   UNL     1      -8.258   9.491  70.491  1.00  0.00    -0.203 C  
BRANCH  10  11
HETATM   11  C   UNL     1      -8.801   8.281  71.190  1.00  0.00    -0.182 C  
BRANCH  11  12
HETATM   12  C   UNL     1      -9.340   8.585  72.579  1.00  0.00    -0.316 C  
BRANCH  12  13
HETATM   13  C   UNL     1     -10.588   7.745  72.839  1.00  0.00    -0.428 C  
BRANCH  13  14
HETATM   14  C   UNL     1     -11.808   8.388  72.196  1.00  0.00    -0.441 C  
BRANCH  14  15
HETATM   15  C   UNL     1     -12.551   7.401  71.301  1.00  0.00    -0.376 C  
BRANCH  15  16
HETATM   16  C   UNL     1     -11.612   6.282  70.857  1.00  0.00    -0.338 C  
BRANCH  16  17
HETATM   17  C   UNL     1     -11.377   6.307  69.351  1.00  0.00    -0.448 C  
HETATM   18  C   UNL     1     -10.145   5.522  68.973  1.00  0.00    -0.205 C  
HETATM   19  O   UNL     1      -9.410   4.931  69.748  1.00  0.00    -0.118 OA 
HETATM   20  O   UNL     1      -9.918   5.536  67.637  1.00  0.00    -0.136 OA 
ENDBRANCH  16  17
ENDBRANCH  15  16
ENDBRANCH  14  15
ENDBRANCH  13  14
ENDBRANCH  12  13
ENDBRANCH  11  12
ENDBRANCH  10  11
ENDBRANCH   8   9
ENDBRANCH   7   8
ENDBRANCH   5   6
ENDBRANCH   4   5
ENDBRANCH   3   4
ENDBRANCH   2   3
TORSDOF 13
ENDMDL
MODEL      198
REMARK 921   NORMALIZED FREE ENERGY PREDICTED BY IDOCK:   -3.74 KCAL/MOL
REMARK 922        TOTAL FREE ENERGY PREDICTED BY IDOCK:   -8.33 KCAL/MOL
REMARK 923 INTER-LIGAND FREE ENERGY PREDICTED BY IDOCK:   -5.92 KCAL/MOL
REMARK 924 INTRA-LIGAND FREE ENERGY PREDICTED BY IDOCK:   -2.42 KCAL/MOL
REMARK 927      BINDING AFFINITY PREDICTED BY RF-SCORE:    0.00 PKD
ROOT
HETATM    1  C   UNL     1      -9.510  10.681  63.070  1.00  0.00    -0.363 C  
HETATM    2  C   UNL     1     -10.295  11.320  64.202  1.00  0.00    -0.410 C  
ENDROOT
BRANCH   2   3
HETATM    3  C   UNL     1     -10.131  10.532  65.496  1.00  0.00    -0.349 C  
BRANCH   3   4
HETATM    4  C   UNL     1      -9.029  11.127  66.369  1.00  0.00    -0.190 C  
BRANCH   4   5
HETATM    5  C   UNL     1      -7.954  10.079  66.623  1.00  0.00    -0.115 C  
BRANCH   5   6
HETATM    6  C   UNL     1      -7.949   9.560  68.030  1.00  0.00    -0.091 C  
HETATM    7  C   UNL     1      -8.264   8.291  68.332  1.00  0.00    -0.132 C  
BRANCH   7   8
HETATM    8  C   UNL     1      -8.679   7.259  67.325  1.00  0.00    -0.121 C  
BRANCH   8   9
HETATM    9  C   UNL     1     -10.150   7.317  67.040  1.00  0.00    -0.316 C  
HETATM   10  C   UNL     1     -11.086   6.702  67.779  1.00  0.00    -0.332 C  
BRANCH  10  11
HETATM   11  C   UNL     1     -10.745   5.857  68.969  1.00  0.00    -0.379 C  
BRANCH  11  12
HETATM   12  C   UNL     1     -11.535   6.229  70.213  1.00  0.00    -0.428 C  
BRANCH  12  13
HETATM   13  C   UNL     1     -10.573   6.548  71.355  1.00  0.00    -0.266 C  
BRANCH  13  14
HETATM   14  C   UNL     1     -10.443   8.053  71.538  1.00  0.00    -0.265 C  
BRANCH  14  15
HETATM   15  C   UNL     1     -11.679   8.785  71.023  1.00  0.00    -0.329 C  
BRANCH  15  16
HETATM   16  C   UNL     1     -11.321  10.216  70.635  1.00  0.00    -0.433 C  
BRANCH  16  17
HETATM   17  C   UNL     1     -11.657  10.506  69.176  1.00  0.00    -0.295 C  
HETATM   18  C   UNL     1     -11.756  11.990  68.917  1.00  0.00    -0.326 C  
HETATM   19  O   UNL     1     -11.594  12.870  69.746  1.00  0.00    -0.278 OA 
HETATM   20  O   UNL     1     -12.057  12.265  67.625  1.00  0.00    -0.502 OA 
ENDBRANCH  16  17
ENDBRANCH  15  16
ENDBRANCH  14  15
ENDBRANCH  13  14
ENDBRANCH  12  13
ENDBRANCH  11  12
ENDBRANCH  10  11
ENDBRANCH   8   9
ENDBRANCH   7   8
ENDBRANCH   5   6
ENDBRANCH   4   5
ENDBRANCH   3   4
ENDBRANCH   2   3
TORSDOF 13
ENDMDL
MODEL      199
REMARK 921   NORMALIZED FREE ENERGY PREDICTED BY IDOCK:   -3.74 KCAL/MOL
REMARK 922        TOTAL FREE ENERGY PREDICTED BY IDOCK:   -8.33 KCAL/MOL
REMARK 923 INTER-LIGAND FREE ENERGY PREDICTED BY IDOCK:   -6.52 KCAL/MOL
REMARK 924 INTRA-LIGAND FREE ENERGY PREDICTED BY IDOCK:   -1.81 KCAL/MOL
REMARK 927      BINDING AFFINITY PREDICTED BY RF-SCORE:    0.00 PKD
ROOT
HETATM    1  C   UNL     1     -13.125  15.395  73.338  1.00  0.00    -0.633 C  
HETATM    2  C   UNL     1     -13.628  14.236  72.495  1.00  0.00    -0.620 C  
ENDROOT
BRANCH   2   3
HETATM    3  C   UNL     1     -12.690  13.959  71.327  1.00  0.00    -0.444 C  
BRANCH   3   4
HETATM    4  C   UNL     1     -11.624  15.045  71.206  1.00  0.00    -0.384 C  
BRANCH   4   5
HETATM    5  C   UNL     1     -11.676  15.661  69.814  1.00  0.00    -0.368 C  
BRANCH   5   6
HETATM    6  C   UNL     1     -10.406  15.485  69.037  1.00  0.00    -0.235 C  
HETATM    7  C   UNL     1      -9.929  16.429  68.211  1.00  0.00    -0.243 C  
BRANCH   7   8
HETATM    8  C   UNL     1     -10.605  17.742  67.946  1.00  0.00    -0.389 C  
BRANCH   8   9
HETATM    9  C   UNL     1     -10.371  18.217  66.543  1.00  0.00    -0.397 C  
HETATM   10  C   UNL     1      -9.833  19.406  66.229  1.00  0.00    -0.477 C  
BRANCH  10  11
HETATM   11  C   UNL     1      -9.433  20.408  67.269  1.00  0.00    -0.568 C  
BRANCH  11  12
HETATM   12  C   UNL     1      -7.944  20.386  67.579  1.00  0.00    -0.329 C  
BRANCH  12  13
HETATM   13  C   UNL     1      -7.167  19.981  66.328  1.00  0.00    -0.298 C  
BRANCH  13  14
HETATM   14  C   UNL     1      -6.277  18.781  66.618  1.00  0.00    -0.200 C  
BRANCH  14  15
HETATM   15  C   UNL     1      -6.557  18.202  68.001  1.00  0.00    -0.194 C  
BRANCH  15  16
HETATM   16  C   UNL     1      -6.257  16.706  68.018  1.00  0.00    -0.139 C  
BRANCH  16  17
HETATM   17  C   UNL     1      -5.879  16.222  69.413  1.00  0.00    -0.149 C  
HETATM   18  C   UNL     1      -6.422  14.840  69.683  1.00  0.00    -0.150 C  
HETATM   19  O   UNL     1      -7.082  14.169  68.906  1.00  0.00    -0.102 OA 
HETATM   20  O   UNL     1      -6.098  14.395  70.921  1.00  0.00    -0.200 OA 
ENDBRANCH  16  17
ENDBRANCH  15  16
ENDBRANCH  14  15
ENDBRANCH  13  14
ENDBRANCH  12  13
ENDBRANCH  11  12
ENDBRANCH  10  11
ENDBRANCH   8   9
ENDBRANCH   7   8
ENDBRANCH   5   6
ENDBRANCH   4   5
ENDBRANCH   3   4
ENDBRANCH   2   3
TORSDOF 13
ENDMDL
MODEL      200
REMARK 921   NORMALIZED FREE ENERGY PREDICTED BY IDOCK:   -3.74 KCAL/MOL
REMARK 922        TOTAL FREE ENERGY PREDICTED BY IDOCK:   -8.33 KCAL/MOL
REMARK 923 INTER-LIGAND FREE ENERGY PREDICTED BY IDOCK:   -7.28 KCAL/MOL
REMARK 924 INTRA-LIGAND FREE ENERGY PREDICTED BY IDOCK:   -1.04 KCAL/MOL
REMARK 927      BINDING AFFINITY PREDICTED BY RF-SCORE:    0.00 PKD
ROOT
HETATM    1  C   UNL     1     -10.469  19.472  68.473  1.00  0.00    -0.308 C  
HETATM    2  C   UNL     1     -10.608  19.287  66.972  1.00  0.00    -0.571 C  
ENDROOT
BRANCH   2   3
HETATM    3  C   UNL     1      -9.308  19.624  66.254  1.00  0.00    -0.453 C  
BRANCH   3   4
HETATM    4  C   UNL     1      -8.110  18.982  66.951  1.00  0.00    -0.277 C  
BRANCH   4   5
HETATM    5  C   UNL     1      -7.876  17.587  66.389  1.00  0.00    -0.329 C  
BRANCH   5   6
HETATM    6  C   UNL     1      -6.908  16.774  67.195  1.00  0.00    -0.231 C  
HETATM    7  C   UNL     1      -7.258  16.155  68.333  1.00  0.00    -0.135 C  
BRANCH   7   8
HETATM    8  C   UNL     1      -8.627  16.220  68.945  1.00  0.00    -0.260 C  
BRANCH   8   9
HETATM    9  C   UNL     1      -9.275  14.869  69.007  1.00  0.00    -0.176 C  
HETATM   10  C   UNL     1     -10.594  14.672  69.156  1.00  0.00    -0.247 C  
BRANCH  10  11
HETATM   11  C   UNL     1     -11.565  15.803  69.306  1.00  0.00    -0.380 C  
BRANCH  11  12
HETATM   12  C   UNL     1     -11.608  16.371  70.716  1.00  0.00    -0.156 C  
BRANCH  12  13
HETATM   13  C   UNL     1     -11.305  15.265  71.724  1.00  0.00    -0.445 C  
BRANCH  13  14
HETATM   14  C   UNL     1     -11.991  15.550  73.052  1.00  0.00    -0.571 C  
BRANCH  14  15
HETATM   15  C   UNL     1     -13.501  15.353  72.951  1.00  0.00    -0.629 C  
BRANCH  15  16
HETATM   16  C   UNL     1     -13.829  14.332  71.866  1.00  0.00    -0.545 C  
BRANCH  16  17
HETATM   17  C   UNL     1     -13.843  12.910  72.415  1.00  0.00    -0.443 C  
HETATM   18  C   UNL     1     -12.915  12.010  71.636  1.00  0.00    -0.334 C  
HETATM   19  O   UNL     1     -12.229  12.345  70.684  1.00  0.00    -0.368 OA 
HETATM   20  O   UNL     1     -12.918  10.740  72.109  1.00  0.00    -0.424 OA 
ENDBRANCH  16  17
ENDBRANCH  15  16
ENDBRANCH  14  15
ENDBRANCH  13  14
ENDBRANCH  12  13
ENDBRANCH  11  12
ENDBRANCH  10  11
ENDBRANCH   8   9
ENDBRANCH   7   8
ENDBRANCH   5   6
ENDBRANCH   4   5
ENDBRANCH   3   4
ENDBRANCH   2   3
TORSDOF 13
ENDMDL
MODEL      201
REMARK 921   NORMALIZED FREE ENERGY PREDICTED BY IDOCK:   -3.74 KCAL/MOL
REMARK 922        TOTAL FREE ENERGY PREDICTED BY IDOCK:   -8.32 KCAL/MOL
REMARK 923 INTER-LIGAND FREE ENERGY PREDICTED BY IDOCK:   -7.05 KCAL/MOL
REMARK 924 INTRA-LIGAND FREE ENERGY PREDICTED BY IDOCK:   -1.27 KCAL/MOL
REMARK 927      BINDING AFFINITY PREDICTED BY RF-SCORE:    0.00 PKD
ROOT
HETATM    1  C   UNL     1     -12.842  13.905  65.565  1.00  0.00    -0.471 C  
HETATM    2  C   UNL     1     -12.160  12.657  65.035  1.00  0.00    -0.497 C  
ENDROOT
BRANCH   2   3
HETATM    3  C   UNL     1     -10.646  12.823  65.018  1.00  0.00    -0.330 C  
BRANCH   3   4
HETATM    4  C   UNL     1      -9.941  11.493  65.275  1.00  0.00    -0.302 C  
BRANCH   4   5
HETATM    5  C   UNL     1      -9.738  11.301  66.772  1.00  0.00    -0.218 C  
BRANCH   5   6
HETATM    6  C   UNL     1     -10.954  10.782  67.476  1.00  0.00    -0.372 C  
HETATM    7  C   UNL     1     -11.552  11.452  68.474  1.00  0.00    -0.384 C  
BRANCH   7   8
HETATM    8  C   UNL     1     -11.072  12.766  69.017  1.00  0.00    -0.285 C  
BRANCH   8   9
HETATM    9  C   UNL     1     -12.004  13.888  68.668  1.00  0.00    -0.401 C  
HETATM   10  C   UNL     1     -11.888  15.139  69.139  1.00  0.00    -0.340 C  
BRANCH  10  11
HETATM   11  C   UNL     1     -10.812  15.539  70.103  1.00  0.00    -0.346 C  
BRANCH  11  12
HETATM   12  C   UNL     1      -9.633  16.226  69.432  1.00  0.00    -0.173 C  
BRANCH  12  13
HETATM   13  C   UNL     1     -10.075  16.808  68.091  1.00  0.00    -0.282 C  
BRANCH  13  14
HETATM   14  C   UNL     1     -10.091  18.329  68.149  1.00  0.00    -0.397 C  
BRANCH  14  15
HETATM   15  C   UNL     1     -10.527  18.931  66.816  1.00  0.00    -0.497 C  
BRANCH  15  16
HETATM   16  C   UNL     1      -9.557  20.028  66.391  1.00  0.00    -0.536 C  
BRANCH  16  17
HETATM   17  C   UNL     1      -8.667  20.474  67.546  1.00  0.00    -0.331 C  
HETATM   18  C   UNL     1      -7.239  20.667  67.098  1.00  0.00    -0.335 C  
HETATM   19  O   UNL     1      -6.817  20.497  65.966  1.00  0.00    -0.245 OA 
HETATM   20  O   UNL     1      -6.433  21.061  68.114  1.00  0.00    -0.311 OA 
ENDBRANCH  16  17
ENDBRANCH  15  16
ENDBRANCH  14  15
ENDBRANCH  13  14
ENDBRANCH  12  13
ENDBRANCH  11  12
ENDBRANCH  10  11
ENDBRANCH   8   9
ENDBRANCH   7   8
ENDBRANCH   5   6
ENDBRANCH   4   5
ENDBRANCH   3   4
ENDBRANCH   2   3
TORSDOF 13
ENDMDL
MODEL      202
REMARK 921   NORMALIZED FREE ENERGY PREDICTED BY IDOCK:   -3.74 KCAL/MOL
REMARK 922        TOTAL FREE ENERGY PREDICTED BY IDOCK:   -8.32 KCAL/MOL
REMARK 923 INTER-LIGAND FREE ENERGY PREDICTED BY IDOCK:   -6.23 KCAL/MOL
REMARK 924 INTRA-LIGAND FREE ENERGY PREDICTED BY IDOCK:   -2.09 KCAL/MOL
REMARK 927      BINDING AFFINITY PREDICTED BY RF-SCORE:    0.00 PKD
ROOT
HETATM    1  C   UNL     1     -10.106   7.209  66.606  1.00  0.00    -0.229 C  
HETATM    2  C   UNL     1     -10.660   8.581  66.948  1.00  0.00    -0.279 C  
ENDROOT
BRANCH   2   3
HETATM    3  C   UNL     1     -10.028   9.661  66.078  1.00  0.00    -0.344 C  
BRANCH   3   4
HETATM    4  C   UNL     1      -9.146  10.592  66.907  1.00  0.00    -0.161 C  
BRANCH   4   5
HETATM    5  C   UNL     1      -8.050   9.786  67.590  1.00  0.00    -0.113 C  
BRANCH   5   6
HETATM    6  C   UNL     1      -7.669  10.321  68.938  1.00  0.00    -0.098 C  
HETATM    7  C   UNL     1      -8.304   9.959  70.064  1.00  0.00    -0.191 C  
BRANCH   7   8
HETATM    8  C   UNL     1      -9.469   9.014  70.112  1.00  0.00    -0.217 C  
BRANCH   8   9
HETATM    9  C   UNL     1     -10.465   9.409  71.161  1.00  0.00    -0.392 C  
HETATM   10  C   UNL     1     -11.537  10.182  70.929  1.00  0.00    -0.459 C  
BRANCH  10  11
HETATM   11  C   UNL     1     -11.835  10.761  69.580  1.00  0.00    -0.380 C  
BRANCH  11  12
HETATM   12  C   UNL     1     -11.188  12.118  69.355  1.00  0.00    -0.248 C  
BRANCH  12  13
HETATM   13  C   UNL     1     -12.225  13.220  69.559  1.00  0.00    -0.233 C  
BRANCH  13  14
HETATM   14  C   UNL     1     -12.143  14.245  68.437  1.00  0.00    -0.297 C  
BRANCH  14  15
HETATM   15  C   UNL     1     -11.218  13.773  67.319  1.00  0.00    -0.329 C  
BRANCH  15  16
HETATM   16  C   UNL     1     -11.518  14.532  66.030  1.00  0.00    -0.348 C  
BRANCH  16  17
HETATM   17  C   UNL     1     -10.841  13.888  64.826  1.00  0.00    -0.430 C  
HETATM   18  C   UNL     1     -11.730  12.852  64.182  1.00  0.00    -0.406 C  
HETATM   19  O   UNL     1     -12.851  12.545  64.553  1.00  0.00    -0.701 OA 
HETATM   20  O   UNL     1     -11.142  12.267  63.111  1.00  0.00    -0.372 OA 
ENDBRANCH  16  17
ENDBRANCH  15  16
ENDBRANCH  14  15
ENDBRANCH  13  14
ENDBRANCH  12  13
ENDBRANCH  11  12
ENDBRANCH  10  11
ENDBRANCH   8   9
ENDBRANCH   7   8
ENDBRANCH   5   6
ENDBRANCH   4   5
ENDBRANCH   3   4
ENDBRANCH   2   3
TORSDOF 13
ENDMDL
MODEL      203
REMARK 921   NORMALIZED FREE ENERGY PREDICTED BY IDOCK:   -3.73 KCAL/MOL
REMARK 922        TOTAL FREE ENERGY PREDICTED BY IDOCK:   -8.31 KCAL/MOL
REMARK 923 INTER-LIGAND FREE ENERGY PREDICTED BY IDOCK:   -6.44 KCAL/MOL
REMARK 924 INTRA-LIGAND FREE ENERGY PREDICTED BY IDOCK:   -1.87 KCAL/MOL
REMARK 927      BINDING AFFINITY PREDICTED BY RF-SCORE:    0.00 PKD
ROOT
HETATM    1  C   UNL     1     -10.781  16.991  68.309  1.00  0.00    -0.372 C  
HETATM    2  C   UNL     1     -10.052  16.133  67.290  1.00  0.00    -0.265 C  
ENDROOT
BRANCH   2   3
HETATM    3  C   UNL     1     -10.477  16.485  65.871  1.00  0.00    -0.335 C  
BRANCH   3   4
HETATM    4  C   UNL     1     -10.454  15.254  64.966  1.00  0.00    -0.411 C  
BRANCH   4   5
HETATM    5  C   UNL     1     -10.319  13.997  65.815  1.00  0.00    -0.330 C  
BRANCH   5   6
HETATM    6  C   UNL     1     -11.629  13.324  66.094  1.00  0.00    -0.385 C  
HETATM    7  C   UNL     1     -11.894  12.717  67.262  1.00  0.00    -0.414 C  
BRANCH   7   8
HETATM    8  C   UNL     1     -10.924  12.615  68.402  1.00  0.00    -0.284 C  
BRANCH   8   9
HETATM    9  C   UNL     1     -11.548  13.017  69.705  1.00  0.00    -0.322 C  
HETATM   10  C   UNL     1     -12.164  12.166  70.540  1.00  0.00    -0.392 C  
BRANCH  10  11
HETATM   11  C   UNL     1     -12.316  10.707  70.234  1.00  0.00    -0.406 C  
BRANCH  11  12
HETATM   12  C   UNL     1     -12.073   9.814  71.440  1.00  0.00    -0.486 C  
BRANCH  12  13
HETATM   13  C   UNL     1     -10.623   9.335  71.438  1.00  0.00    -0.417 C  
BRANCH  13  14
HETATM   14  C   UNL     1     -10.045   9.385  70.031  1.00  0.00    -0.259 C  
BRANCH  14  15
HETATM   15  C   UNL     1     -10.152   8.031  69.337  1.00  0.00    -0.197 C  
BRANCH  15  16
HETATM   16  C   UNL     1      -9.334   8.032  68.049  1.00  0.00    -0.146 C  
BRANCH  16  17
HETATM   17  C   UNL     1     -10.163   8.492  66.854  1.00  0.00    -0.375 C  
HETATM   18  C   UNL     1      -9.673   9.816  66.322  1.00  0.00    -0.234 C  
HETATM   19  O   UNL     1      -8.739  10.462  66.767  1.00  0.00    -0.127 OA 
HETATM   20  O   UNL     1     -10.401  10.242  65.261  1.00  0.00    -0.278 OA 
ENDBRANCH  16  17
ENDBRANCH  15  16
ENDBRANCH  14  15
ENDBRANCH  13  14
ENDBRANCH  12  13
ENDBRANCH  11  12
ENDBRANCH  10  11
ENDBRANCH   8   9
ENDBRANCH   7   8
ENDBRANCH   5   6
ENDBRANCH   4   5
ENDBRANCH   3   4
ENDBRANCH   2   3
TORSDOF 13
ENDMDL
MODEL      204
REMARK 921   NORMALIZED FREE ENERGY PREDICTED BY IDOCK:   -3.73 KCAL/MOL
REMARK 922        TOTAL FREE ENERGY PREDICTED BY IDOCK:   -8.30 KCAL/MOL
REMARK 923 INTER-LIGAND FREE ENERGY PREDICTED BY IDOCK:   -6.66 KCAL/MOL
REMARK 924 INTRA-LIGAND FREE ENERGY PREDICTED BY IDOCK:   -1.64 KCAL/MOL
REMARK 927      BINDING AFFINITY PREDICTED BY RF-SCORE:    0.00 PKD
ROOT
HETATM    1  C   UNL     1      -7.355  14.012  68.711  1.00  0.00    -0.127 C  
HETATM    2  C   UNL     1      -8.393  14.401  67.673  1.00  0.00    -0.186 C  
ENDROOT
BRANCH   2   3
HETATM    3  C   UNL     1      -9.457  15.309  68.274  1.00  0.00    -0.205 C  
BRANCH   3   4
HETATM    4  C   UNL     1     -10.614  15.524  67.301  1.00  0.00    -0.299 C  
BRANCH   4   5
HETATM    5  C   UNL     1     -10.259  14.931  65.944  1.00  0.00    -0.333 C  
BRANCH   5   6
HETATM    6  C   UNL     1     -11.139  15.419  64.832  1.00  0.00    -0.435 C  
HETATM    7  C   UNL     1     -12.156  14.691  64.345  1.00  0.00    -0.481 C  
BRANCH   7   8
HETATM    8  C   UNL     1     -12.516  13.314  64.821  1.00  0.00    -0.439 C  
BRANCH   8   9
HETATM    9  C   UNL     1     -11.954  12.250  63.928  1.00  0.00    -0.582 C  
HETATM   10  C   UNL     1     -10.921  11.458  64.255  1.00  0.00    -0.390 C  
BRANCH  10  11
HETATM   11  C   UNL     1     -10.195  11.581  65.560  1.00  0.00    -0.303 C  
BRANCH  11  12
HETATM   12  C   UNL     1     -11.102  11.416  66.768  1.00  0.00    -0.343 C  
BRANCH  12  13
HETATM   13  C   UNL     1     -10.275  11.516  68.048  1.00  0.00    -0.205 C  
BRANCH  13  14
HETATM   14  C   UNL     1     -11.087  12.164  69.160  1.00  0.00    -0.263 C  
BRANCH  14  15
HETATM   15  C   UNL     1     -11.522  11.138  70.202  1.00  0.00    -0.361 C  
BRANCH  15  16
HETATM   16  C   UNL     1     -10.715   9.853  70.046  1.00  0.00    -0.338 C  
BRANCH  16  17
HETATM   17  C   UNL     1     -10.412   9.210  71.395  1.00  0.00    -0.414 C  
HETATM   18  C   UNL     1     -11.479   8.217  71.784  1.00  0.00    -0.284 C  
HETATM   19  O   UNL     1     -12.470   7.941  71.128  1.00  0.00    -0.288 OA 
HETATM   20  O   UNL     1     -11.226   7.637  72.983  1.00  0.00    -0.384 OA 
ENDBRANCH  16  17
ENDBRANCH  15  16
ENDBRANCH  14  15
ENDBRANCH  13  14
ENDBRANCH  12  13
ENDBRANCH  11  12
ENDBRANCH  10  11
ENDBRANCH   8   9
ENDBRANCH   7   8
ENDBRANCH   5   6
ENDBRANCH   4   5
ENDBRANCH   3   4
ENDBRANCH   2   3
TORSDOF 13
ENDMDL
MODEL      205
REMARK 921   NORMALIZED FREE ENERGY PREDICTED BY IDOCK:   -3.72 KCAL/MOL
REMARK 922        TOTAL FREE ENERGY PREDICTED BY IDOCK:   -8.29 KCAL/MOL
REMARK 923 INTER-LIGAND FREE ENERGY PREDICTED BY IDOCK:   -6.41 KCAL/MOL
REMARK 924 INTRA-LIGAND FREE ENERGY PREDICTED BY IDOCK:   -1.88 KCAL/MOL
REMARK 927      BINDING AFFINITY PREDICTED BY RF-SCORE:    0.00 PKD
ROOT
HETATM    1  C   UNL     1     -10.537   6.739  66.871  1.00  0.00    -0.374 C  
HETATM    2  C   UNL     1     -10.878   7.842  67.856  1.00  0.00    -0.063 C  
ENDROOT
BRANCH   2   3
HETATM    3  C   UNL     1     -10.133   9.128  67.522  1.00  0.00    -0.284 C  
BRANCH   3   4
HETATM    4  C   UNL     1      -9.392   9.670  68.743  1.00  0.00    -0.148 C  
BRANCH   4   5
HETATM    5  C   UNL     1      -8.958   8.514  69.634  1.00  0.00    -0.145 C  
BRANCH   5   6
HETATM    6  C   UNL     1      -8.878   8.880  71.086  1.00  0.00    -0.297 C  
HETATM    7  C   UNL     1      -9.866   8.610  71.954  1.00  0.00    -0.384 C  
BRANCH   7   8
HETATM    8  C   UNL     1     -11.160   7.947  71.583  1.00  0.00    -0.285 C  
BRANCH   8   9
HETATM    9  C   UNL     1     -12.303   8.449  72.414  1.00  0.00    -0.412 C  
HETATM   10  C   UNL     1     -13.151   9.413  72.025  1.00  0.00    -0.516 C  
BRANCH  10  11
HETATM   11  C   UNL     1     -13.021  10.117  70.709  1.00  0.00    -0.380 C  
BRANCH  11  12
HETATM   12  C   UNL     1     -11.924  11.169  70.699  1.00  0.00    -0.459 C  
BRANCH  12  13
HETATM   13  C   UNL     1     -12.535  12.550  70.927  1.00  0.00    -0.361 C  
BRANCH  13  14
HETATM   14  C   UNL     1     -11.911  13.572  69.989  1.00  0.00    -0.410 C  
BRANCH  14  15
HETATM   15  C   UNL     1     -11.209  12.894  68.816  1.00  0.00    -0.323 C  
BRANCH  15  16
HETATM   16  C   UNL     1     -11.363  13.734  67.552  1.00  0.00    -0.334 C  
BRANCH  16  17
HETATM   17  C   UNL     1     -11.520  15.216  67.874  1.00  0.00    -0.344 C  
HETATM   18  C   UNL     1     -10.566  16.060  67.064  1.00  0.00    -0.302 C  
HETATM   19  O   UNL     1      -9.760  15.642  66.249  1.00  0.00    -0.258 OA 
HETATM   20  O   UNL     1     -10.691  17.381  67.341  1.00  0.00    -0.333 OA 
ENDBRANCH  16  17
ENDBRANCH  15  16
ENDBRANCH  14  15
ENDBRANCH  13  14
ENDBRANCH  12  13
ENDBRANCH  11  12
ENDBRANCH  10  11
ENDBRANCH   8   9
ENDBRANCH   7   8
ENDBRANCH   5   6
ENDBRANCH   4   5
ENDBRANCH   3   4
ENDBRANCH   2   3
TORSDOF 13
ENDMDL
MODEL      206
REMARK 921   NORMALIZED FREE ENERGY PREDICTED BY IDOCK:   -3.71 KCAL/MOL
REMARK 922        TOTAL FREE ENERGY PREDICTED BY IDOCK:   -8.28 KCAL/MOL
REMARK 923 INTER-LIGAND FREE ENERGY PREDICTED BY IDOCK:   -5.59 KCAL/MOL
REMARK 924 INTRA-LIGAND FREE ENERGY PREDICTED BY IDOCK:   -2.69 KCAL/MOL
REMARK 927      BINDING AFFINITY PREDICTED BY RF-SCORE:    0.00 PKD
ROOT
HETATM    1  C   UNL     1      -9.825   4.223  66.479  1.00  0.00    -0.238 C  
HETATM    2  C   UNL     1      -8.980   5.466  66.265  1.00  0.00    -0.137 C  
ENDROOT
BRANCH   2   3
HETATM    3  C   UNL     1      -9.788   6.731  66.525  1.00  0.00    -0.167 C  
BRANCH   3   4
HETATM    4  C   UNL     1     -10.922   6.468  67.514  1.00  0.00    -0.444 C  
BRANCH   4   5
HETATM    5  C   UNL     1     -10.766   7.376  68.726  1.00  0.00    -0.145 C  
BRANCH   5   6
HETATM    6  C   UNL     1      -9.475   7.172  69.460  1.00  0.00    -0.151 C  
HETATM    7  C   UNL     1      -8.595   8.166  69.661  1.00  0.00    -0.131 C  
BRANCH   7   8
HETATM    8  C   UNL     1      -8.775   9.570  69.163  1.00  0.00    -0.146 C  
BRANCH   8   9
HETATM    9  C   UNL     1      -8.081   9.791  67.853  1.00  0.00    -0.112 C  
HETATM   10  C   UNL     1      -8.695  10.208  66.735  1.00  0.00    -0.133 C  
BRANCH  10  11
HETATM   11  C   UNL     1     -10.169  10.471  66.677  1.00  0.00    -0.289 C  
BRANCH  11  12
HETATM   12  C   UNL     1     -10.509  11.948  66.551  1.00  0.00    -0.256 C  
BRANCH  12  13
HETATM   13  C   UNL     1     -11.677  12.285  67.475  1.00  0.00    -0.402 C  
BRANCH  13  14
HETATM   14  C   UNL     1     -11.908  11.163  68.476  1.00  0.00    -0.330 C  
BRANCH  14  15
HETATM   15  C   UNL     1     -11.817  11.672  69.912  1.00  0.00    -0.434 C  
BRANCH  15  16
HETATM   16  C   UNL     1     -12.576  10.740  70.851  1.00  0.00    -0.498 C  
BRANCH  16  17
HETATM   17  C   UNL     1     -11.676   9.642  71.408  1.00  0.00    -0.478 C  
HETATM   18  C   UNL     1     -12.468   8.627  72.195  1.00  0.00    -0.389 C  
HETATM   19  O   UNL     1     -13.673   8.651  72.381  1.00  0.00    -0.386 OA 
HETATM   20  O   UNL     1     -11.682   7.645  72.700  1.00  0.00    -0.322 OA 
ENDBRANCH  16  17
ENDBRANCH  15  16
ENDBRANCH  14  15
ENDBRANCH  13  14
ENDBRANCH  12  13
ENDBRANCH  11  12
ENDBRANCH  10  11
ENDBRANCH   8   9
ENDBRANCH   7   8
ENDBRANCH   5   6
ENDBRANCH   4   5
ENDBRANCH   3   4
ENDBRANCH   2   3
TORSDOF 13
ENDMDL
MODEL      207
REMARK 921   NORMALIZED FREE ENERGY PREDICTED BY IDOCK:   -3.71 KCAL/MOL
REMARK 922        TOTAL FREE ENERGY PREDICTED BY IDOCK:   -8.27 KCAL/MOL
REMARK 923 INTER-LIGAND FREE ENERGY PREDICTED BY IDOCK:   -6.37 KCAL/MOL
REMARK 924 INTRA-LIGAND FREE ENERGY PREDICTED BY IDOCK:   -1.90 KCAL/MOL
REMARK 927      BINDING AFFINITY PREDICTED BY RF-SCORE:    0.00 PKD
ROOT
HETATM    1  C   UNL     1     -11.132  14.748  64.533  1.00  0.00    -0.260 C  
HETATM    2  C   UNL     1     -11.593  13.301  64.554  1.00  0.00    -0.407 C  
ENDROOT
BRANCH   2   3
HETATM    3  C   UNL     1     -10.728  12.435  63.647  1.00  0.00    -0.497 C  
BRANCH   3   4
HETATM    4  C   UNL     1     -10.601  11.016  64.196  1.00  0.00    -0.412 C  
BRANCH   4   5
HETATM    5  C   UNL     1      -9.139  10.712  64.497  1.00  0.00    -0.243 C  
BRANCH   5   6
HETATM    6  C   UNL     1      -8.826   9.246  64.504  1.00  0.00    -0.203 C  
HETATM    7  C   UNL     1      -8.669   8.547  65.639  1.00  0.00    -0.213 C  
BRANCH   7   8
HETATM    8  C   UNL     1      -8.760   9.137  67.015  1.00  0.00    -0.131 C  
BRANCH   8   9
HETATM    9  C   UNL     1      -9.989   8.677  67.740  1.00  0.00    -0.240 C  
HETATM   10  C   UNL     1     -11.018   9.476  68.063  1.00  0.00    -0.155 C  
BRANCH  10  11
HETATM   11  C   UNL     1     -11.026  10.942  67.751  1.00  0.00    -0.339 C  
BRANCH  11  12
HETATM   12  C   UNL     1     -11.999  11.732  68.612  1.00  0.00    -0.299 C  
BRANCH  12  13
HETATM   13  C   UNL     1     -11.572  11.650  70.075  1.00  0.00    -0.338 C  
BRANCH  13  14
HETATM   14  C   UNL     1     -12.782  11.748  70.992  1.00  0.00    -0.372 C  
BRANCH  14  15
HETATM   15  C   UNL     1     -13.077  10.412  71.669  1.00  0.00    -0.553 C  
BRANCH  15  16
HETATM   16  C   UNL     1     -11.805   9.575  71.758  1.00  0.00    -0.430 C  
BRANCH  16  17
HETATM   17  C   UNL     1     -12.064   8.114  71.404  1.00  0.00    -0.326 C  
HETATM   18  C   UNL     1     -11.436   7.183  72.412  1.00  0.00    -0.264 C  
HETATM   19  O   UNL     1     -10.796   7.522  73.394  1.00  0.00    -0.394 OA 
HETATM   20  O   UNL     1     -11.654   5.880  72.110  1.00  0.00    -0.296 OA 
ENDBRANCH  16  17
ENDBRANCH  15  16
ENDBRANCH  14  15
ENDBRANCH  13  14
ENDBRANCH  12  13
ENDBRANCH  11  12
ENDBRANCH  10  11
ENDBRANCH   8   9
ENDBRANCH   7   8
ENDBRANCH   5   6
ENDBRANCH   4   5
ENDBRANCH   3   4
ENDBRANCH   2   3
TORSDOF 13
ENDMDL
MODEL      208
REMARK 921   NORMALIZED FREE ENERGY PREDICTED BY IDOCK:   -3.70 KCAL/MOL
REMARK 922        TOTAL FREE ENERGY PREDICTED BY IDOCK:   -8.26 KCAL/MOL
REMARK 923 INTER-LIGAND FREE ENERGY PREDICTED BY IDOCK:   -6.62 KCAL/MOL
REMARK 924 INTRA-LIGAND FREE ENERGY PREDICTED BY IDOCK:   -1.63 KCAL/MOL
REMARK 927      BINDING AFFINITY PREDICTED BY RF-SCORE:    0.00 PKD
ROOT
HETATM    1  C   UNL     1     -10.285  19.838  68.572  1.00  0.00    -0.547 C  
HETATM    2  C   UNL     1     -10.852  19.324  67.261  1.00  0.00    -0.554 C  
ENDROOT
BRANCH   2   3
HETATM    3  C   UNL     1      -9.936  19.667  66.094  1.00  0.00    -0.554 C  
BRANCH   3   4
HETATM    4  C   UNL     1      -8.485  19.804  66.553  1.00  0.00    -0.380 C  
BRANCH   4   5
HETATM    5  C   UNL     1      -7.770  18.469  66.395  1.00  0.00    -0.291 C  
BRANCH   5   6
HETATM    6  C   UNL     1      -7.236  17.924  67.686  1.00  0.00    -0.206 C  
HETATM    7  C   UNL     1      -7.817  16.902  68.333  1.00  0.00    -0.229 C  
BRANCH   7   8
HETATM    8  C   UNL     1      -9.065  16.208  67.871  1.00  0.00    -0.192 C  
BRANCH   8   9
HETATM    9  C   UNL     1      -8.761  15.089  66.921  1.00  0.00    -0.285 C  
HETATM   10  C   UNL     1      -9.614  14.640  65.987  1.00  0.00    -0.322 C  
BRANCH  10  11
HETATM   11  C   UNL     1     -10.993  15.204  65.819  1.00  0.00    -0.350 C  
BRANCH  11  12
HETATM   12  C   UNL     1     -11.864  14.384  64.882  1.00  0.00    -0.419 C  
BRANCH  12  13
HETATM   13  C   UNL     1     -11.012  13.327  64.183  1.00  0.00    -0.380 C  
BRANCH  13  14
HETATM   14  C   UNL     1     -11.463  11.929  64.580  1.00  0.00    -0.345 C  
BRANCH  14  15
HETATM   15  C   UNL     1     -10.374  10.895  64.309  1.00  0.00    -0.436 C  
BRANCH  15  16
HETATM   16  C   UNL     1      -9.615  10.579  65.594  1.00  0.00    -0.278 C  
BRANCH  16  17
HETATM   17  C   UNL     1     -10.080   9.266  66.216  1.00  0.00    -0.322 C  
HETATM   18  C   UNL     1      -9.968   9.299  67.720  1.00  0.00    -0.190 C  
HETATM   19  O   UNL     1      -9.563  10.239  68.385  1.00  0.00    -0.143 OA 
HETATM   20  O   UNL     1     -10.375   8.139  68.289  1.00  0.00    -0.202 OA 
ENDBRANCH  16  17
ENDBRANCH  15  16
ENDBRANCH  14  15
ENDBRANCH  13  14
ENDBRANCH  12  13
ENDBRANCH  11  12
ENDBRANCH  10  11
ENDBRANCH   8   9
ENDBRANCH   7   8
ENDBRANCH   5   6
ENDBRANCH   4   5
ENDBRANCH   3   4
ENDBRANCH   2   3
TORSDOF 13
ENDMDL
MODEL      209
REMARK 921   NORMALIZED FREE ENERGY PREDICTED BY IDOCK:   -3.68 KCAL/MOL
REMARK 922        TOTAL FREE ENERGY PREDICTED BY IDOCK:   -8.23 KCAL/MOL
REMARK 923 INTER-LIGAND FREE ENERGY PREDICTED BY IDOCK:   -6.40 KCAL/MOL
REMARK 924 INTRA-LIGAND FREE ENERGY PREDICTED BY IDOCK:   -1.83 KCAL/MOL
REMARK 927      BINDING AFFINITY PREDICTED BY RF-SCORE:    0.00 PKD
ROOT
HETATM    1  C   UNL     1      -6.555  13.408  68.404  1.00  0.00    -0.094 C  
HETATM    2  C   UNL     1      -6.699  11.932  68.077  1.00  0.00    -0.070 C  
ENDROOT
BRANCH   2   3
HETATM    3  C   UNL     1      -7.940  11.675  67.232  1.00  0.00    -0.157 C  
BRANCH   3   4
HETATM    4  C   UNL     1      -8.769  10.527  67.804  1.00  0.00    -0.122 C  
BRANCH   4   5
HETATM    5  C   UNL     1      -9.969  10.263  66.905  1.00  0.00    -0.259 C  
BRANCH   5   6
HETATM    6  C   UNL     1      -9.618   9.532  65.644  1.00  0.00    -0.346 C  
HETATM    7  C   UNL     1      -9.631  10.124  64.439  1.00  0.00    -0.366 C  
BRANCH   7   8
HETATM    8  C   UNL     1     -10.015  11.555  64.204  1.00  0.00    -0.327 C  
BRANCH   8   9
HETATM    9  C   UNL     1     -11.375  11.673  63.582  1.00  0.00    -0.485 C  
HETATM   10  C   UNL     1     -12.213  12.700  63.790  1.00  0.00    -0.600 C  
BRANCH  10  11
HETATM   11  C   UNL     1     -11.878  13.840  64.704  1.00  0.00    -0.427 C  
BRANCH  11  12
HETATM   12  C   UNL     1     -12.542  13.729  66.066  1.00  0.00    -0.458 C  
BRANCH  12  13
HETATM   13  C   UNL     1     -11.484  13.834  67.162  1.00  0.00    -0.365 C  
BRANCH  13  14
HETATM   14  C   UNL     1     -11.993  13.220  68.458  1.00  0.00    -0.340 C  
BRANCH  14  15
HETATM   15  C   UNL     1     -11.686  14.113  69.656  1.00  0.00    -0.372 C  
BRANCH  15  16
HETATM   16  C   UNL     1     -11.925  15.577  69.297  1.00  0.00    -0.338 C  
BRANCH  16  17
HETATM   17  C   UNL     1     -10.747  16.457  69.703  1.00  0.00    -0.337 C  
HETATM   18  C   UNL     1     -10.201  17.224  68.524  1.00  0.00    -0.358 C  
HETATM   19  O   UNL     1     -10.623  17.171  67.381  1.00  0.00    -0.337 OA 
HETATM   20  O   UNL     1      -9.151  18.010  68.867  1.00  0.00    -0.242 OA 
ENDBRANCH  16  17
ENDBRANCH  15  16
ENDBRANCH  14  15
ENDBRANCH  13  14
ENDBRANCH  12  13
ENDBRANCH  11  12
ENDBRANCH  10  11
ENDBRANCH   8   9
ENDBRANCH   7   8
ENDBRANCH   5   6
ENDBRANCH   4   5
ENDBRANCH   3   4
ENDBRANCH   2   3
TORSDOF 13
ENDMDL
MODEL      210
REMARK 921   NORMALIZED FREE ENERGY PREDICTED BY IDOCK:   -3.68 KCAL/MOL
REMARK 922        TOTAL FREE ENERGY PREDICTED BY IDOCK:   -8.22 KCAL/MOL
REMARK 923 INTER-LIGAND FREE ENERGY PREDICTED BY IDOCK:   -7.14 KCAL/MOL
REMARK 924 INTRA-LIGAND FREE ENERGY PREDICTED BY IDOCK:   -1.08 KCAL/MOL
REMARK 927      BINDING AFFINITY PREDICTED BY RF-SCORE:    0.00 PKD
ROOT
HETATM    1  C   UNL     1     -10.546   5.286  66.470  1.00  0.00    -0.348 C  
HETATM    2  C   UNL     1      -9.944   6.674  66.594  1.00  0.00    -0.203 C  
ENDROOT
BRANCH   2   3
HETATM    3  C   UNL     1     -10.679   7.501  67.640  1.00  0.00    -0.266 C  
BRANCH   3   4
HETATM    4  C   UNL     1     -10.115   7.249  69.038  1.00  0.00    -0.186 C  
BRANCH   4   5
HETATM    5  C   UNL     1      -9.835   8.579  69.725  1.00  0.00    -0.186 C  
BRANCH   5   6
HETATM    6  C   UNL     1      -9.912   8.504  71.220  1.00  0.00    -0.284 C  
HETATM    7  C   UNL     1     -11.046   8.745  71.897  1.00  0.00    -0.434 C  
BRANCH   7   8
HETATM    8  C   UNL     1     -12.346   9.137  71.258  1.00  0.00    -0.382 C  
BRANCH   8   9
HETATM    9  C   UNL     1     -12.816  10.480  71.729  1.00  0.00    -0.559 C  
HETATM   10  C   UNL     1     -12.572  11.633  71.086  1.00  0.00    -0.439 C  
BRANCH  10  11
HETATM   11  C   UNL     1     -11.765  11.695  69.824  1.00  0.00    -0.425 C  
BRANCH  11  12
HETATM   12  C   UNL     1     -11.804  13.059  69.156  1.00  0.00    -0.360 C  
BRANCH  12  13
HETATM   13  C   UNL     1     -11.917  14.148  70.220  1.00  0.00    -0.404 C  
BRANCH  13  14
HETATM   14  C   UNL     1     -12.069  15.516  69.571  1.00  0.00    -0.326 C  
BRANCH  14  15
HETATM   15  C   UNL     1     -10.804  16.353  69.736  1.00  0.00    -0.343 C  
BRANCH  15  16
HETATM   16  C   UNL     1     -10.345  16.889  68.384  1.00  0.00    -0.338 C  
BRANCH  16  17
HETATM   17  C   UNL     1     -10.174  18.404  68.405  1.00  0.00    -0.407 C  
HETATM   18  C   UNL     1     -10.380  19.001  67.034  1.00  0.00    -0.409 C  
HETATM   19  O   UNL     1     -10.650  18.380  66.019  1.00  0.00    -0.427 OA 
HETATM   20  O   UNL     1     -10.229  20.347  67.034  1.00  0.00    -0.416 OA 
ENDBRANCH  16  17
ENDBRANCH  15  16
ENDBRANCH  14  15
ENDBRANCH  13  14
ENDBRANCH  12  13
ENDBRANCH  11  12
ENDBRANCH  10  11
ENDBRANCH   8   9
ENDBRANCH   7   8
ENDBRANCH   5   6
ENDBRANCH   4   5
ENDBRANCH   3   4
ENDBRANCH   2   3
TORSDOF 13
ENDMDL
MODEL      211
REMARK 921   NORMALIZED FREE ENERGY PREDICTED BY IDOCK:   -3.68 KCAL/MOL
REMARK 922        TOTAL FREE ENERGY PREDICTED BY IDOCK:   -8.22 KCAL/MOL
REMARK 923 INTER-LIGAND FREE ENERGY PREDICTED BY IDOCK:   -6.15 KCAL/MOL
REMARK 924 INTRA-LIGAND FREE ENERGY PREDICTED BY IDOCK:   -2.07 KCAL/MOL
REMARK 927      BINDING AFFINITY PREDICTED BY RF-SCORE:    0.00 PKD
ROOT
HETATM    1  C   UNL     1     -12.252  12.827  63.384  1.00  0.00    -0.594 C  
HETATM    2  C   UNL     1     -11.556  12.116  64.531  1.00  0.00    -0.403 C  
ENDROOT
BRANCH   2   3
HETATM    3  C   UNL     1     -10.972  13.115  65.522  1.00  0.00    -0.296 C  
BRANCH   3   4
HETATM    4  C   UNL     1     -11.960  13.422  66.645  1.00  0.00    -0.452 C  
BRANCH   4   5
HETATM    5  C   UNL     1     -11.851  12.358  67.729  1.00  0.00    -0.362 C  
BRANCH   5   6
HETATM    6  C   UNL     1     -11.623  12.924  69.098  1.00  0.00    -0.375 C  
HETATM    7  C   UNL     1     -11.997  12.282  70.216  1.00  0.00    -0.373 C  
BRANCH   7   8
HETATM    8  C   UNL     1     -12.700  10.957  70.235  1.00  0.00    -0.285 C  
BRANCH   8   9
HETATM    9  C   UNL     1     -12.685  10.337  71.601  1.00  0.00    -0.561 C  
HETATM   10  C   UNL     1     -11.947   9.267  71.935  1.00  0.00    -0.433 C  
BRANCH  10  11
HETATM   11  C   UNL     1     -11.071   8.554  70.950  1.00  0.00    -0.295 C  
BRANCH  11  12
HETATM   12  C   UNL     1      -9.795   9.313  70.625  1.00  0.00    -0.332 C  
BRANCH  12  13
HETATM   13  C   UNL     1      -9.554   9.291  69.117  1.00  0.00    -0.161 C  
BRANCH  13  14
HETATM   14  C   UNL     1      -8.846  10.562  68.671  1.00  0.00    -0.147 C  
BRANCH  14  15
HETATM   15  C   UNL     1      -8.624  10.573  67.161  1.00  0.00    -0.127 C  
BRANCH  15  16
HETATM   16  C   UNL     1      -9.585   9.604  66.479  1.00  0.00    -0.252 C  
BRANCH  16  17
HETATM   17  C   UNL     1      -8.842   8.500  65.736  1.00  0.00    -0.229 C  
HETATM   18  C   UNL     1      -8.609   8.869  64.291  1.00  0.00    -0.109 C  
HETATM   19  O   UNL     1      -8.957   9.908  63.755  1.00  0.00    -0.217 OA 
HETATM   20  O   UNL     1      -7.951   7.896  63.615  1.00  0.00    -0.144 OA 
ENDBRANCH  16  17
ENDBRANCH  15  16
ENDBRANCH  14  15
ENDBRANCH  13  14
ENDBRANCH  12  13
ENDBRANCH  11  12
ENDBRANCH  10  11
ENDBRANCH   8   9
ENDBRANCH   7   8
ENDBRANCH   5   6
ENDBRANCH   4   5
ENDBRANCH   3   4
ENDBRANCH   2   3
TORSDOF 13
ENDMDL
MODEL      212
REMARK 921   NORMALIZED FREE ENERGY PREDICTED BY IDOCK:   -3.67 KCAL/MOL
REMARK 922        TOTAL FREE ENERGY PREDICTED BY IDOCK:   -8.20 KCAL/MOL
REMARK 923 INTER-LIGAND FREE ENERGY PREDICTED BY IDOCK:   -6.00 KCAL/MOL
REMARK 924 INTRA-LIGAND FREE ENERGY PREDICTED BY IDOCK:   -2.20 KCAL/MOL
REMARK 927      BINDING AFFINITY PREDICTED BY RF-SCORE:    0.00 PKD
ROOT
HETATM    1  C   UNL     1     -12.048  13.742  64.487  1.00  0.00    -0.463 C  
HETATM    2  C   UNL     1     -12.624  14.017  65.865  1.00  0.00    -0.484 C  
ENDROOT
BRANCH   2   3
HETATM    3  C   UNL     1     -11.990  13.114  66.915  1.00  0.00    -0.421 C  
BRANCH   3   4
HETATM    4  C   UNL     1     -11.867  13.832  68.258  1.00  0.00    -0.413 C  
BRANCH   4   5
HETATM    5  C   UNL     1     -11.629  12.813  69.364  1.00  0.00    -0.361 C  
BRANCH   5   6
HETATM    6  C   UNL     1     -12.069  11.427  69.001  1.00  0.00    -0.316 C  
HETATM    7  C   UNL     1     -11.223  10.384  68.977  1.00  0.00    -0.289 C  
BRANCH   7   8
HETATM    8  C   UNL     1      -9.756  10.478  69.279  1.00  0.00    -0.215 C  
BRANCH   8   9
HETATM    9  C   UNL     1      -8.931   9.737  68.270  1.00  0.00    -0.119 C  
HETATM   10  C   UNL     1      -8.370  10.305  67.191  1.00  0.00    -0.122 C  
BRANCH  10  11
HETATM   11  C   UNL     1      -8.540  11.759  66.867  1.00  0.00    -0.177 C  
BRANCH  11  12
HETATM   12  C   UNL     1      -7.387  12.620  67.356  1.00  0.00    -0.140 C  
BRANCH  12  13
HETATM   13  C   UNL     1      -7.920  13.713  68.279  1.00  0.00    -0.150 C  
BRANCH  13  14
HETATM   14  C   UNL     1      -8.109  15.014  67.513  1.00  0.00    -0.200 C  
BRANCH  14  15
HETATM   15  C   UNL     1      -9.080  14.838  66.349  1.00  0.00    -0.267 C  
BRANCH  15  16
HETATM   16  C   UNL     1      -9.416  16.193  65.733  1.00  0.00    -0.254 C  
BRANCH  16  17
HETATM   17  C   UNL     1     -10.405  16.974  66.591  1.00  0.00    -0.299 C  
HETATM   18  C   UNL     1     -10.072  18.446  66.613  1.00  0.00    -0.380 C  
HETATM   19  O   UNL     1      -9.140  18.975  66.031  1.00  0.00    -0.459 OA 
HETATM   20  O   UNL     1     -10.940  19.155  67.375  1.00  0.00    -0.475 OA 
ENDBRANCH  16  17
ENDBRANCH  15  16
ENDBRANCH  14  15
ENDBRANCH  13  14
ENDBRANCH  12  13
ENDBRANCH  11  12
ENDBRANCH  10  11
ENDBRANCH   8   9
ENDBRANCH   7   8
ENDBRANCH   5   6
ENDBRANCH   4   5
ENDBRANCH   3   4
ENDBRANCH   2   3
TORSDOF 13
ENDMDL
MODEL      213
REMARK 921   NORMALIZED FREE ENERGY PREDICTED BY IDOCK:   -3.67 KCAL/MOL
REMARK 922        TOTAL FREE ENERGY PREDICTED BY IDOCK:   -8.20 KCAL/MOL
REMARK 923 INTER-LIGAND FREE ENERGY PREDICTED BY IDOCK:   -6.27 KCAL/MOL
REMARK 924 INTRA-LIGAND FREE ENERGY PREDICTED BY IDOCK:   -1.93 KCAL/MOL
REMARK 927      BINDING AFFINITY PREDICTED BY RF-SCORE:    0.00 PKD
ROOT
HETATM    1  C   UNL     1     -12.673  10.143  71.389  1.00  0.00    -0.530 C  
HETATM    2  C   UNL     1     -11.278  10.086  70.791  1.00  0.00    -0.428 C  
ENDROOT
BRANCH   2   3
HETATM    3  C   UNL     1     -10.407   9.074  71.523  1.00  0.00    -0.412 C  
BRANCH   3   4
HETATM    4  C   UNL     1     -11.242   8.202  72.459  1.00  0.00    -0.459 C  
BRANCH   4   5
HETATM    5  C   UNL     1     -11.211   6.757  71.978  1.00  0.00    -0.297 C  
BRANCH   5   6
HETATM    6  C   UNL     1     -11.722   6.584  70.580  1.00  0.00    -0.438 C  
HETATM    7  C   UNL     1     -11.051   5.889  69.647  1.00  0.00    -0.414 C  
BRANCH   7   8
HETATM    8  C   UNL     1      -9.721   5.234  69.874  1.00  0.00    -0.260 C  
BRANCH   8   9
HETATM    9  C   UNL     1      -8.604   6.234  69.902  1.00  0.00    -0.134 C  
HETATM   10  C   UNL     1      -8.084   6.814  68.809  1.00  0.00    -0.120 C  
BRANCH  10  11
HETATM   11  C   UNL     1      -8.559   6.492  67.424  1.00  0.00    -0.118 C  
BRANCH  11  12
HETATM   12  C   UNL     1      -9.096   7.703  66.679  1.00  0.00    -0.198 C  
BRANCH  12  13
HETATM   13  C   UNL     1      -9.557   8.759  67.681  1.00  0.00    -0.179 C  
BRANCH  13  14
HETATM   14  C   UNL     1     -10.601   9.671  67.054  1.00  0.00    -0.267 C  
BRANCH  14  15
HETATM   15  C   UNL     1     -10.047  11.073  66.821  1.00  0.00    -0.260 C  
BRANCH  15  16
HETATM   16  C   UNL     1     -11.189  12.068  66.638  1.00  0.00    -0.380 C  
BRANCH  16  17
HETATM   17  C   UNL     1     -11.892  12.370  67.958  1.00  0.00    -0.376 C  
HETATM   18  C   UNL     1     -11.788  13.833  68.315  1.00  0.00    -0.378 C  
HETATM   19  O   UNL     1     -11.223  14.689  67.655  1.00  0.00    -0.295 OA 
HETATM   20  O   UNL     1     -12.405  14.118  69.487  1.00  0.00    -0.328 OA 
ENDBRANCH  16  17
ENDBRANCH  15  16
ENDBRANCH  14  15
ENDBRANCH  13  14
ENDBRANCH  12  13
ENDBRANCH  11  12
ENDBRANCH  10  11
ENDBRANCH   8   9
ENDBRANCH   7   8
ENDBRANCH   5   6
ENDBRANCH   4   5
ENDBRANCH   3   4
ENDBRANCH   2   3
TORSDOF 13
ENDMDL
MODEL      214
REMARK 921   NORMALIZED FREE ENERGY PREDICTED BY IDOCK:   -3.63 KCAL/MOL
REMARK 922        TOTAL FREE ENERGY PREDICTED BY IDOCK:   -8.13 KCAL/MOL
REMARK 923 INTER-LIGAND FREE ENERGY PREDICTED BY IDOCK:   -6.01 KCAL/MOL
REMARK 924 INTRA-LIGAND FREE ENERGY PREDICTED BY IDOCK:   -2.13 KCAL/MOL
REMARK 927      BINDING AFFINITY PREDICTED BY RF-SCORE:    0.00 PKD
ROOT
HETATM    1  C   UNL     1      -6.625  11.063  69.839  1.00  0.00    -0.142 C  
HETATM    2  C   UNL     1      -7.592  11.299  68.692  1.00  0.00    -0.129 C  
ENDROOT
BRANCH   2   3
HETATM    3  C   UNL     1      -7.168  12.499  67.855  1.00  0.00    -0.115 C  
BRANCH   3   4
HETATM    4  C   UNL     1      -8.341  13.447  67.616  1.00  0.00    -0.179 C  
BRANCH   4   5
HETATM    5  C   UNL     1      -7.974  14.847  68.091  1.00  0.00    -0.130 C  
BRANCH   5   6
HETATM    6  C   UNL     1      -7.521  15.751  66.985  1.00  0.00    -0.242 C  
HETATM    7  C   UNL     1      -8.368  16.540  66.305  1.00  0.00    -0.364 C  
BRANCH   7   8
HETATM    8  C   UNL     1      -9.848  16.596  66.544  1.00  0.00    -0.295 C  
BRANCH   8   9
HETATM    9  C   UNL     1     -10.622  16.551  65.260  1.00  0.00    -0.273 C  
HETATM   10  C   UNL     1     -11.259  15.463  64.801  1.00  0.00    -0.404 C  
BRANCH  10  11
HETATM   11  C   UNL     1     -11.235  14.151  65.525  1.00  0.00    -0.317 C  
BRANCH  11  12
HETATM   12  C   UNL     1     -12.365  14.002  66.530  1.00  0.00    -0.442 C  
BRANCH  12  13
HETATM   13  C   UNL     1     -12.013  12.910  67.538  1.00  0.00    -0.354 C  
BRANCH  13  14
HETATM   14  C   UNL     1     -11.381  11.718  66.835  1.00  0.00    -0.386 C  
BRANCH  14  15
HETATM   15  C   UNL     1     -11.138  10.565  67.806  1.00  0.00    -0.382 C  
BRANCH  15  16
HETATM   16  C   UNL     1     -11.316  11.040  69.244  1.00  0.00    -0.350 C  
BRANCH  16  17
HETATM   17  C   UNL     1     -10.835   9.997  70.247  1.00  0.00    -0.370 C  
HETATM   18  C   UNL     1     -11.863   9.753  71.325  1.00  0.00    -0.399 C  
HETATM   19  O   UNL     1     -12.949  10.303  71.412  1.00  0.00    -0.373 OA 
HETATM   20  O   UNL     1     -11.450   8.830  72.227  1.00  0.00    -0.362 OA 
ENDBRANCH  16  17
ENDBRANCH  15  16
ENDBRANCH  14  15
ENDBRANCH  13  14
ENDBRANCH  12  13
ENDBRANCH  11  12
ENDBRANCH  10  11
ENDBRANCH   8   9
ENDBRANCH   7   8
ENDBRANCH   5   6
ENDBRANCH   4   5
ENDBRANCH   3   4
ENDBRANCH   2   3
TORSDOF 13
ENDMDL
MODEL      215
REMARK 921   NORMALIZED FREE ENERGY PREDICTED BY IDOCK:   -3.63 KCAL/MOL
REMARK 922        TOTAL FREE ENERGY PREDICTED BY IDOCK:   -8.13 KCAL/MOL
REMARK 923 INTER-LIGAND FREE ENERGY PREDICTED BY IDOCK:   -6.32 KCAL/MOL
REMARK 924 INTRA-LIGAND FREE ENERGY PREDICTED BY IDOCK:   -1.81 KCAL/MOL
REMARK 927      BINDING AFFINITY PREDICTED BY RF-SCORE:    0.00 PKD
ROOT
HETATM    1  C   UNL     1     -10.240   5.589  66.614  1.00  0.00    -0.279 C  
HETATM    2  C   UNL     1      -9.050   6.482  66.312  1.00  0.00    -0.168 C  
ENDROOT
BRANCH   2   3
HETATM    3  C   UNL     1      -9.454   7.951  66.297  1.00  0.00    -0.220 C  
BRANCH   3   4
HETATM    4  C   UNL     1     -10.519   8.240  67.353  1.00  0.00    -0.353 C  
BRANCH   4   5
HETATM    5  C   UNL     1     -10.111   9.455  68.174  1.00  0.00    -0.215 C  
BRANCH   5   6
HETATM    6  C   UNL     1     -11.267  10.144  68.835  1.00  0.00    -0.220 C  
HETATM    7  C   UNL     1     -11.751  11.318  68.400  1.00  0.00    -0.365 C  
BRANCH   7   8
HETATM    8  C   UNL     1     -11.191  12.087  67.240  1.00  0.00    -0.371 C  
BRANCH   8   9
HETATM    9  C   UNL     1     -12.155  13.121  66.738  1.00  0.00    -0.389 C  
HETATM   10  C   UNL     1     -11.835  14.091  65.868  1.00  0.00    -0.395 C  
BRANCH  10  11
HETATM   11  C   UNL     1     -10.449  14.259  65.324  1.00  0.00    -0.408 C  
BRANCH  11  12
HETATM   12  C   UNL     1      -9.822  15.595  65.685  1.00  0.00    -0.369 C  
BRANCH  12  13
HETATM   13  C   UNL     1      -8.667  15.373  66.660  1.00  0.00    -0.332 C  
BRANCH  13  14
HETATM   14  C   UNL     1      -8.876  16.187  67.929  1.00  0.00    -0.182 C  
BRANCH  14  15
HETATM   15  C   UNL     1      -9.669  15.401  68.969  1.00  0.00    -0.239 C  
BRANCH  15  16
HETATM   16  C   UNL     1     -11.008  16.082  69.237  1.00  0.00    -0.306 C  
BRANCH  16  17
HETATM   17  C   UNL     1     -12.048  15.097  69.758  1.00  0.00    -0.354 C  
HETATM   18  C   UNL     1     -12.301  15.291  71.233  1.00  0.00    -0.361 C  
HETATM   19  O   UNL     1     -11.760  16.121  71.946  1.00  0.00    -0.475 OA 
HETATM   20  O   UNL     1     -13.222  14.421  71.713  1.00  0.00    -0.321 OA 
ENDBRANCH  16  17
ENDBRANCH  15  16
ENDBRANCH  14  15
ENDBRANCH  13  14
ENDBRANCH  12  13
ENDBRANCH  11  12
ENDBRANCH  10  11
ENDBRANCH   8   9
ENDBRANCH   7   8
ENDBRANCH   5   6
ENDBRANCH   4   5
ENDBRANCH   3   4
ENDBRANCH   2   3
TORSDOF 13
ENDMDL
MODEL      216
REMARK 921   NORMALIZED FREE ENERGY PREDICTED BY IDOCK:   -3.63 KCAL/MOL
REMARK 922        TOTAL FREE ENERGY PREDICTED BY IDOCK:   -8.13 KCAL/MOL
REMARK 923 INTER-LIGAND FREE ENERGY PREDICTED BY IDOCK:   -6.19 KCAL/MOL
REMARK 924 INTRA-LIGAND FREE ENERGY PREDICTED BY IDOCK:   -1.94 KCAL/MOL
REMARK 927      BINDING AFFINITY PREDICTED BY RF-SCORE:    0.00 PKD
ROOT
HETATM    1  C   UNL     1      -9.973  19.503  68.920  1.00  0.00    -0.529 C  
HETATM    2  C   UNL     1     -10.761  19.322  67.635  1.00  0.00    -0.533 C  
ENDROOT
BRANCH   2   3
HETATM    3  C   UNL     1      -9.958  19.790  66.428  1.00  0.00    -0.578 C  
BRANCH   3   4
HETATM    4  C   UNL     1      -8.468  19.505  66.611  1.00  0.00    -0.352 C  
BRANCH   4   5
HETATM    5  C   UNL     1      -8.117  18.175  65.957  1.00  0.00    -0.118 C  
BRANCH   5   6
HETATM    6  C   UNL     1      -7.001  17.449  66.646  1.00  0.00    -0.268 C  
HETATM    7  C   UNL     1      -7.215  16.419  67.479  1.00  0.00    -0.171 C  
BRANCH   7   8
HETATM    8  C   UNL     1      -8.573  15.892  67.840  1.00  0.00    -0.164 C  
BRANCH   8   9
HETATM    9  C   UNL     1      -8.485  14.656  68.685  1.00  0.00    -0.164 C  
HETATM   10  C   UNL     1      -8.937  13.450  68.306  1.00  0.00    -0.176 C  
BRANCH  10  11
HETATM   11  C   UNL     1      -9.614  13.222  66.988  1.00  0.00    -0.243 C  
BRANCH  11  12
HETATM   12  C   UNL     1     -10.267  11.854  66.881  1.00  0.00    -0.233 C  
BRANCH  12  13
HETATM   13  C   UNL     1     -10.411  11.243  68.273  1.00  0.00    -0.200 C  
BRANCH  13  14
HETATM   14  C   UNL     1     -11.824  11.443  68.801  1.00  0.00    -0.388 C  
BRANCH  14  15
HETATM   15  C   UNL     1     -11.858  11.406  70.326  1.00  0.00    -0.438 C  
BRANCH  15  16
HETATM   16  C   UNL     1     -12.343  12.745  70.875  1.00  0.00    -0.356 C  
BRANCH  16  17
HETATM   17  C   UNL     1     -12.296  13.840  69.816  1.00  0.00    -0.311 C  
HETATM   18  C   UNL     1     -11.762  15.133  70.382  1.00  0.00    -0.293 C  
HETATM   19  O   UNL     1     -11.404  15.312  71.535  1.00  0.00    -0.373 OA 
HETATM   20  O   UNL     1     -11.717  16.119  69.454  1.00  0.00    -0.304 OA 
ENDBRANCH  16  17
ENDBRANCH  15  16
ENDBRANCH  14  15
ENDBRANCH  13  14
ENDBRANCH  12  13
ENDBRANCH  11  12
ENDBRANCH  10  11
ENDBRANCH   8   9
ENDBRANCH   7   8
ENDBRANCH   5   6
ENDBRANCH   4   5
ENDBRANCH   3   4
ENDBRANCH   2   3
TORSDOF 13
ENDMDL
MODEL      217
REMARK 921   NORMALIZED FREE ENERGY PREDICTED BY IDOCK:   -3.63 KCAL/MOL
REMARK 922        TOTAL FREE ENERGY PREDICTED BY IDOCK:   -8.13 KCAL/MOL
REMARK 923 INTER-LIGAND FREE ENERGY PREDICTED BY IDOCK:   -6.50 KCAL/MOL
REMARK 924 INTRA-LIGAND FREE ENERGY PREDICTED BY IDOCK:   -1.63 KCAL/MOL
REMARK 927      BINDING AFFINITY PREDICTED BY RF-SCORE:    0.00 PKD
ROOT
HETATM    1  C   UNL     1     -10.916   6.128  67.306  1.00  0.00    -0.418 C  
HETATM    2  C   UNL     1     -10.587   7.595  67.090  1.00  0.00    -0.410 C  
ENDROOT
BRANCH   2   3
HETATM    3  C   UNL     1     -11.029   8.438  68.280  1.00  0.00     0.154 C  
BRANCH   3   4
HETATM    4  C   UNL     1     -10.269   8.047  69.546  1.00  0.00    -0.209 C  
BRANCH   4   5
HETATM    5  C   UNL     1     -10.309   9.196  70.544  1.00  0.00    -0.288 C  
BRANCH   5   6
HETATM    6  C   UNL     1     -11.072   8.874  71.793  1.00  0.00    -0.433 C  
HETATM    7  C   UNL     1     -12.302   9.357  72.033  1.00  0.00    -0.418 C  
BRANCH   7   8
HETATM    8  C   UNL     1     -13.041  10.282  71.112  1.00  0.00    -0.481 C  
BRANCH   8   9
HETATM    9  C   UNL     1     -12.979  11.704  71.583  1.00  0.00    -0.483 C  
HETATM   10  C   UNL     1     -12.391  12.700  70.901  1.00  0.00    -0.352 C  
BRANCH  10  11
HETATM   11  C   UNL     1     -11.699  12.478  69.591  1.00  0.00    -0.372 C  
BRANCH  11  12
HETATM   12  C   UNL     1     -12.159  13.433  68.502  1.00  0.00    -0.283 C  
BRANCH  12  13
HETATM   13  C   UNL     1     -11.270  14.674  68.499  1.00  0.00    -0.288 C  
BRANCH  13  14
HETATM   14  C   UNL     1     -11.149  15.242  67.093  1.00  0.00    -0.323 C  
BRANCH  14  15
HETATM   15  C   UNL     1      -9.980  14.615  66.339  1.00  0.00    -0.296 C  
BRANCH  15  16
HETATM   16  C   UNL     1     -10.491  13.808  65.149  1.00  0.00    -0.399 C  
BRANCH  16  17
HETATM   17  C   UNL     1     -10.460  12.309  65.428  1.00  0.00    -0.302 C  
HETATM   18  C   UNL     1     -10.265  11.517  64.159  1.00  0.00    -0.325 C  
HETATM   19  O   UNL     1     -10.145  11.984  63.038  1.00  0.00    -0.348 OA 
HETATM   20  O   UNL     1     -10.238  10.182  64.388  1.00  0.00    -0.221 OA 
ENDBRANCH  16  17
ENDBRANCH  15  16
ENDBRANCH  14  15
ENDBRANCH  13  14
ENDBRANCH  12  13
ENDBRANCH  11  12
ENDBRANCH  10  11
ENDBRANCH   8   9
ENDBRANCH   7   8
ENDBRANCH   5   6
ENDBRANCH   4   5
ENDBRANCH   3   4
ENDBRANCH   2   3
TORSDOF 13
ENDMDL
MODEL      218
REMARK 921   NORMALIZED FREE ENERGY PREDICTED BY IDOCK:   -3.62 KCAL/MOL
REMARK 922        TOTAL FREE ENERGY PREDICTED BY IDOCK:   -8.12 KCAL/MOL
REMARK 923 INTER-LIGAND FREE ENERGY PREDICTED BY IDOCK:   -6.61 KCAL/MOL
REMARK 924 INTRA-LIGAND FREE ENERGY PREDICTED BY IDOCK:   -1.52 KCAL/MOL
REMARK 927      BINDING AFFINITY PREDICTED BY RF-SCORE:    0.00 PKD
ROOT
HETATM    1  C   UNL     1     -12.764  12.802  64.491  1.00  0.00    -0.405 C  
HETATM    2  C   UNL     1     -12.061  12.044  63.378  1.00  0.00    -0.597 C  
ENDROOT
BRANCH   2   3
HETATM    3  C   UNL     1     -10.548  12.142  63.517  1.00  0.00    -0.501 C  
BRANCH   3   4
HETATM    4  C   UNL     1      -9.933  10.781  63.833  1.00  0.00    -0.404 C  
BRANCH   4   5
HETATM    5  C   UNL     1      -9.216  10.841  65.175  1.00  0.00    -0.239 C  
BRANCH   5   6
HETATM    6  C   UNL     1      -9.781   9.899  66.195  1.00  0.00    -0.297 C  
HETATM    7  C   UNL     1     -10.693  10.280  67.103  1.00  0.00    -0.303 C  
BRANCH   7   8
HETATM    8  C   UNL     1     -11.230  11.676  67.228  1.00  0.00    -0.365 C  
BRANCH   8   9
HETATM    9  C   UNL     1     -11.638  11.993  68.635  1.00  0.00    -0.372 C  
HETATM   10  C   UNL     1     -11.436  13.179  69.230  1.00  0.00    -0.348 C  
BRANCH  10  11
HETATM   11  C   UNL     1     -10.742  14.316  68.543  1.00  0.00    -0.262 C  
BRANCH  11  12
HETATM   12  C   UNL     1     -10.085  15.288  69.509  1.00  0.00    -0.261 C  
BRANCH  12  13
HETATM   13  C   UNL     1     -10.670  16.684  69.307  1.00  0.00    -0.337 C  
BRANCH  13  14
HETATM   14  C   UNL     1     -10.645  17.065  67.834  1.00  0.00    -0.365 C  
BRANCH  14  15
HETATM   15  C   UNL     1     -10.089  18.472  67.633  1.00  0.00    -0.390 C  
BRANCH  15  16
HETATM   16  C   UNL     1      -8.644  18.542  68.117  1.00  0.00    -0.324 C  
BRANCH  16  17
HETATM   17  C   UNL     1      -7.666  18.068  67.046  1.00  0.00    -0.235 C  
HETATM   18  C   UNL     1      -6.846  16.897  67.528  1.00  0.00    -0.147 C  
HETATM   19  O   UNL     1      -6.930  16.372  68.626  1.00  0.00    -0.144 OA 
HETATM   20  O   UNL     1      -5.970  16.465  66.590  1.00  0.00    -0.310 OA 
ENDBRANCH  16  17
ENDBRANCH  15  16
ENDBRANCH  14  15
ENDBRANCH  13  14
ENDBRANCH  12  13
ENDBRANCH  11  12
ENDBRANCH  10  11
ENDBRANCH   8   9
ENDBRANCH   7   8
ENDBRANCH   5   6
ENDBRANCH   4   5
ENDBRANCH   3   4
ENDBRANCH   2   3
TORSDOF 13
ENDMDL
MODEL      219
REMARK 921   NORMALIZED FREE ENERGY PREDICTED BY IDOCK:   -3.62 KCAL/MOL
REMARK 922        TOTAL FREE ENERGY PREDICTED BY IDOCK:   -8.12 KCAL/MOL
REMARK 923 INTER-LIGAND FREE ENERGY PREDICTED BY IDOCK:   -6.52 KCAL/MOL
REMARK 924 INTRA-LIGAND FREE ENERGY PREDICTED BY IDOCK:   -1.60 KCAL/MOL
REMARK 927      BINDING AFFINITY PREDICTED BY RF-SCORE:    0.00 PKD
ROOT
HETATM    1  C   UNL     1      -9.380  16.421  68.495  1.00  0.00    -0.225 C  
HETATM    2  C   UNL     1      -8.827  15.820  67.216  1.00  0.00    -0.212 C  
ENDROOT
BRANCH   2   3
HETATM    3  C   UNL     1      -9.709  16.161  66.022  1.00  0.00    -0.376 C  
BRANCH   3   4
HETATM    4  C   UNL     1      -9.912  14.945  65.120  1.00  0.00    -0.277 C  
BRANCH   4   5
HETATM    5  C   UNL     1     -10.025  13.688  65.972  1.00  0.00    -0.313 C  
BRANCH   5   6
HETATM    6  C   UNL     1     -11.436  13.343  66.339  1.00  0.00    -0.359 C  
HETATM    7  C   UNL     1     -11.800  13.033  67.594  1.00  0.00    -0.401 C  
BRANCH   7   8
HETATM    8  C   UNL     1     -10.855  12.968  68.757  1.00  0.00    -0.277 C  
BRANCH   8   9
HETATM    9  C   UNL     1     -11.423  13.632  69.975  1.00  0.00    -0.160 C  
HETATM   10  C   UNL     1     -12.091  12.987  70.944  1.00  0.00    -0.182 C  
BRANCH  10  11
HETATM   11  C   UNL     1     -12.365  11.514  70.889  1.00  0.00    -0.460 C  
BRANCH  11  12
HETATM   12  C   UNL     1     -13.323  11.043  71.971  1.00  0.00    -0.393 C  
BRANCH  12  13
HETATM   13  C   UNL     1     -13.052   9.575  72.291  1.00  0.00    -0.492 C  
BRANCH  13  14
HETATM   14  C   UNL     1     -14.214   8.705  71.835  1.00  0.00    -0.507 C  
BRANCH  14  15
HETATM   15  C   UNL     1     -13.796   7.244  71.703  1.00  0.00    -0.461 C  
BRANCH  15  16
HETATM   16  C   UNL     1     -12.276   7.122  71.758  1.00  0.00    -0.379 C  
BRANCH  16  17
HETATM   17  C   UNL     1     -11.714   6.487  70.491  1.00  0.00    -0.438 C  
HETATM   18  C   UNL     1     -10.795   7.436  69.760  1.00  0.00    -0.234 C  
HETATM   19  O   UNL     1     -10.517   8.570  70.110  1.00  0.00    -0.210 OA 
HETATM   20  O   UNL     1     -10.289   6.888  68.629  1.00  0.00    -0.170 OA 
ENDBRANCH  16  17
ENDBRANCH  15  16
ENDBRANCH  14  15
ENDBRANCH  13  14
ENDBRANCH  12  13
ENDBRANCH  11  12
ENDBRANCH  10  11
ENDBRANCH   8   9
ENDBRANCH   7   8
ENDBRANCH   5   6
ENDBRANCH   4   5
ENDBRANCH   3   4
ENDBRANCH   2   3
TORSDOF 13
ENDMDL
MODEL      220
REMARK 921   NORMALIZED FREE ENERGY PREDICTED BY IDOCK:   -3.62 KCAL/MOL
REMARK 922        TOTAL FREE ENERGY PREDICTED BY IDOCK:   -8.12 KCAL/MOL
REMARK 923 INTER-LIGAND FREE ENERGY PREDICTED BY IDOCK:   -7.15 KCAL/MOL
REMARK 924 INTRA-LIGAND FREE ENERGY PREDICTED BY IDOCK:   -0.97 KCAL/MOL
REMARK 927      BINDING AFFINITY PREDICTED BY RF-SCORE:    0.00 PKD
ROOT
HETATM    1  C   UNL     1     -11.997   7.054  70.958  1.00  0.00    -0.406 C  
HETATM    2  C   UNL     1     -11.676   8.014  72.090  1.00  0.00    -0.399 C  
ENDROOT
BRANCH   2   3
HETATM    3  C   UNL     1     -11.590   9.448  71.586  1.00  0.00    -0.466 C  
BRANCH   3   4
HETATM    4  C   UNL     1     -12.950  10.141  71.657  1.00  0.00    -0.561 C  
BRANCH   4   5
HETATM    5  C   UNL     1     -12.781  11.630  71.388  1.00  0.00    -0.445 C  
BRANCH   5   6
HETATM    6  C   UNL     1     -13.658  12.493  72.245  1.00  0.00    -0.443 C  
HETATM    7  C   UNL     1     -13.411  13.797  72.447  1.00  0.00    -0.672 C  
BRANCH   7   8
HETATM    8  C   UNL     1     -12.237  14.534  71.874  1.00  0.00    -0.363 C  
BRANCH   8   9
HETATM    9  C   UNL     1     -12.610  15.311  70.646  1.00  0.00    -0.471 C  
HETATM   10  C   UNL     1     -11.727  15.759  69.740  1.00  0.00    -0.355 C  
BRANCH  10  11
HETATM   11  C   UNL     1     -10.250  15.550  69.884  1.00  0.00    -0.305 C  
BRANCH  11  12
HETATM   12  C   UNL     1      -9.701  14.494  68.938  1.00  0.00    -0.169 C  
BRANCH  12  13
HETATM   13  C   UNL     1      -8.434  15.018  68.266  1.00  0.00    -0.147 C  
BRANCH  13  14
HETATM   14  C   UNL     1      -7.462  15.558  69.304  1.00  0.00    -0.212 C  
BRANCH  14  15
HETATM   15  C   UNL     1      -6.825  16.866  68.843  1.00  0.00    -0.209 C  
BRANCH  15  16
HETATM   16  C   UNL     1      -7.553  17.403  67.615  1.00  0.00    -0.199 C  
BRANCH  16  17
HETATM   17  C   UNL     1      -6.633  17.485  66.402  1.00  0.00    -0.290 C  
HETATM   18  C   UNL     1      -6.999  18.644  65.509  1.00  0.00    -0.160 C  
HETATM   19  O   UNL     1      -7.909  19.434  65.703  1.00  0.00    -0.436 OA 
HETATM   20  O   UNL     1      -6.192  18.730  64.424  1.00  0.00    -0.441 OA 
ENDBRANCH  16  17
ENDBRANCH  15  16
ENDBRANCH  14  15
ENDBRANCH  13  14
ENDBRANCH  12  13
ENDBRANCH  11  12
ENDBRANCH  10  11
ENDBRANCH   8   9
ENDBRANCH   7   8
ENDBRANCH   5   6
ENDBRANCH   4   5
ENDBRANCH   3   4
ENDBRANCH   2   3
TORSDOF 13
ENDMDL
MODEL      221
REMARK 921   NORMALIZED FREE ENERGY PREDICTED BY IDOCK:   -3.62 KCAL/MOL
REMARK 922        TOTAL FREE ENERGY PREDICTED BY IDOCK:   -8.11 KCAL/MOL
REMARK 923 INTER-LIGAND FREE ENERGY PREDICTED BY IDOCK:   -6.73 KCAL/MOL
REMARK 924 INTRA-LIGAND FREE ENERGY PREDICTED BY IDOCK:   -1.38 KCAL/MOL
REMARK 927      BINDING AFFINITY PREDICTED BY RF-SCORE:    0.00 PKD
ROOT
HETATM    1  C   UNL     1     -10.557   4.593  73.972  1.00  0.00    -0.346 C  
HETATM    2  C   UNL     1     -11.545   5.183  72.982  1.00  0.00    -0.301 C  
ENDROOT
BRANCH   2   3
HETATM    3  C   UNL     1     -10.849   6.119  72.002  1.00  0.00    -0.292 C  
BRANCH   3   4
HETATM    4  C   UNL     1      -9.930   7.097  72.732  1.00  0.00    -0.219 C  
BRANCH   4   5
HETATM    5  C   UNL     1     -10.048   8.478  72.100  1.00  0.00    -0.393 C  
BRANCH   5   6
HETATM    6  C   UNL     1     -11.462   8.885  71.818  1.00  0.00    -0.423 C  
HETATM    7  C   UNL     1     -11.789   9.703  70.805  1.00  0.00    -0.378 C  
BRANCH   7   8
HETATM    8  C   UNL     1     -10.798  10.323  69.864  1.00  0.00    -0.355 C  
BRANCH   8   9
HETATM    9  C   UNL     1     -11.407  11.438  69.067  1.00  0.00    -0.345 C  
HETATM   10  C   UNL     1     -11.283  11.570  67.738  1.00  0.00    -0.343 C  
BRANCH  10  11
HETATM   11  C   UNL     1     -10.484  10.614  66.905  1.00  0.00    -0.304 C  
BRANCH  11  12
HETATM   12  C   UNL     1     -10.297  11.080  65.471  1.00  0.00    -0.321 C  
BRANCH  12  13
HETATM   13  C   UNL     1     -11.462  11.984  65.070  1.00  0.00    -0.343 C  
BRANCH  13  14
HETATM   14  C   UNL     1     -10.977  13.115  64.175  1.00  0.00    -0.418 C  
BRANCH  14  15
HETATM   15  C   UNL     1     -11.152  14.472  64.850  1.00  0.00    -0.401 C  
BRANCH  15  16
HETATM   16  C   UNL     1     -10.036  14.704  65.865  1.00  0.00    -0.341 C  
BRANCH  16  17
HETATM   17  C   UNL     1     -10.588  15.106  67.228  1.00  0.00    -0.286 C  
HETATM   18  C   UNL     1     -10.457  16.592  67.460  1.00  0.00    -0.310 C  
HETATM   19  O   UNL     1      -9.977  17.395  66.678  1.00  0.00    -0.281 OA 
HETATM   20  O   UNL     1     -10.940  16.966  68.669  1.00  0.00    -0.330 OA 
ENDBRANCH  16  17
ENDBRANCH  15  16
ENDBRANCH  14  15
ENDBRANCH  13  14
ENDBRANCH  12  13
ENDBRANCH  11  12
ENDBRANCH  10  11
ENDBRANCH   8   9
ENDBRANCH   7   8
ENDBRANCH   5   6
ENDBRANCH   4   5
ENDBRANCH   3   4
ENDBRANCH   2   3
TORSDOF 13
ENDMDL
MODEL      222
REMARK 921   NORMALIZED FREE ENERGY PREDICTED BY IDOCK:   -3.62 KCAL/MOL
REMARK 922        TOTAL FREE ENERGY PREDICTED BY IDOCK:   -8.11 KCAL/MOL
REMARK 923 INTER-LIGAND FREE ENERGY PREDICTED BY IDOCK:   -6.22 KCAL/MOL
REMARK 924 INTRA-LIGAND FREE ENERGY PREDICTED BY IDOCK:   -1.89 KCAL/MOL
REMARK 927      BINDING AFFINITY PREDICTED BY RF-SCORE:    0.00 PKD
ROOT
HETATM    1  C   UNL     1      -7.812  18.711  67.114  1.00  0.00    -0.241 C  
HETATM    2  C   UNL     1      -7.984  18.095  68.492  1.00  0.00    -0.312 C  
ENDROOT
BRANCH   2   3
HETATM    3  C   UNL     1      -6.976  16.976  68.723  1.00  0.00    -0.211 C  
BRANCH   3   4
HETATM    4  C   UNL     1      -7.674  15.683  69.140  1.00  0.00    -0.212 C  
BRANCH   4   5
HETATM    5  C   UNL     1      -9.183  15.881  69.107  1.00  0.00    -0.253 C  
BRANCH   5   6
HETATM    6  C   UNL     1      -9.940  14.634  68.764  1.00  0.00    -0.235 C  
HETATM    7  C   UNL     1     -10.007  14.152  67.512  1.00  0.00    -0.236 C  
BRANCH   7   8
HETATM    8  C   UNL     1      -9.370  14.803  66.320  1.00  0.00    -0.310 C  
BRANCH   8   9
HETATM    9  C   UNL     1     -10.104  16.042  65.902  1.00  0.00    -0.378 C  
HETATM   10  C   UNL     1     -11.139  16.054  65.047  1.00  0.00    -0.345 C  
BRANCH  10  11
HETATM   11  C   UNL     1     -11.654  14.810  64.390  1.00  0.00    -0.304 C  
BRANCH  11  12
HETATM   12  C   UNL     1     -12.607  14.019  65.271  1.00  0.00    -0.495 C  
BRANCH  12  13
HETATM   13  C   UNL     1     -12.558  12.543  64.883  1.00  0.00    -0.469 C  
BRANCH  13  14
HETATM   14  C   UNL     1     -11.733  12.350  63.619  1.00  0.00    -0.596 C  
BRANCH  14  15
HETATM   15  C   UNL     1     -10.814  11.137  63.735  1.00  0.00    -0.337 C  
BRANCH  15  16
HETATM   16  C   UNL     1      -9.779  11.363  64.834  1.00  0.00    -0.283 C  
BRANCH  16  17
HETATM   17  C   UNL     1      -9.432  10.066  65.557  1.00  0.00    -0.296 C  
HETATM   18  C   UNL     1     -10.232   9.913  66.828  1.00  0.00    -0.236 C  
HETATM   19  O   UNL     1     -11.058  10.705  67.250  1.00  0.00    -0.302 OA 
HETATM   20  O   UNL     1      -9.934   8.767  67.485  1.00  0.00    -0.171 OA 
ENDBRANCH  16  17
ENDBRANCH  15  16
ENDBRANCH  14  15
ENDBRANCH  13  14
ENDBRANCH  12  13
ENDBRANCH  11  12
ENDBRANCH  10  11
ENDBRANCH   8   9
ENDBRANCH   7   8
ENDBRANCH   5   6
ENDBRANCH   4   5
ENDBRANCH   3   4
ENDBRANCH   2   3
TORSDOF 13
ENDMDL
MODEL      223
REMARK 921   NORMALIZED FREE ENERGY PREDICTED BY IDOCK:   -3.62 KCAL/MOL
REMARK 922        TOTAL FREE ENERGY PREDICTED BY IDOCK:   -8.11 KCAL/MOL
REMARK 923 INTER-LIGAND FREE ENERGY PREDICTED BY IDOCK:   -5.64 KCAL/MOL
REMARK 924 INTRA-LIGAND FREE ENERGY PREDICTED BY IDOCK:   -2.47 KCAL/MOL
REMARK 927      BINDING AFFINITY PREDICTED BY RF-SCORE:    0.00 PKD
ROOT
HETATM    1  C   UNL     1     -12.661  13.057  64.791  1.00  0.00    -0.460 C  
HETATM    2  C   UNL     1     -12.147  12.152  63.685  1.00  0.00    -0.648 C  
ENDROOT
BRANCH   2   3
HETATM    3  C   UNL     1     -10.628  12.213  63.588  1.00  0.00    -0.504 C  
BRANCH   3   4
HETATM    4  C   UNL     1     -10.018  10.812  63.593  1.00  0.00    -0.405 C  
BRANCH   4   5
HETATM    5  C   UNL     1     -10.101  10.223  64.995  1.00  0.00    -0.353 C  
BRANCH   5   6
HETATM    6  C   UNL     1      -9.327  11.002  66.015  1.00  0.00    -0.225 C  
HETATM    7  C   UNL     1      -9.892  11.494  67.128  1.00  0.00    -0.210 C  
BRANCH   7   8
HETATM    8  C   UNL     1     -11.346  11.355  67.471  1.00  0.00    -0.362 C  
BRANCH   8   9
HETATM    9  C   UNL     1     -11.695  12.091  68.730  1.00  0.00    -0.377 C  
HETATM   10  C   UNL     1     -11.816  11.510  69.935  1.00  0.00    -0.430 C  
BRANCH  10  11
HETATM   11  C   UNL     1     -11.638  10.036  70.139  1.00  0.00    -0.320 C  
BRANCH  11  12
HETATM   12  C   UNL     1     -10.205   9.645  70.460  1.00  0.00    -0.351 C  
BRANCH  12  13
HETATM   13  C   UNL     1      -9.703   8.641  69.424  1.00  0.00    -0.176 C  
BRANCH  13  14
HETATM   14  C   UNL     1     -10.868   7.878  68.812  1.00  0.00     0.009 C  
BRANCH  14  15
HETATM   15  C   UNL     1     -10.584   7.498  67.362  1.00  0.00    -0.364 C  
BRANCH  15  16
HETATM   16  C   UNL     1      -9.887   6.142  67.298  1.00  0.00    -0.158 C  
BRANCH  16  17
HETATM   17  C   UNL     1      -8.499   6.249  66.677  1.00  0.00    -0.114 C  
HETATM   18  C   UNL     1      -7.418   5.969  67.692  1.00  0.00    -0.078 C  
HETATM   19  O   UNL     1      -7.598   5.689  68.866  1.00  0.00    -0.085 OA 
HETATM   20  O   UNL     1      -6.177   6.063  67.157  1.00  0.00    -0.027 OA 
ENDBRANCH  16  17
ENDBRANCH  15  16
ENDBRANCH  14  15
ENDBRANCH  13  14
ENDBRANCH  12  13
ENDBRANCH  11  12
ENDBRANCH  10  11
ENDBRANCH   8   9
ENDBRANCH   7   8
ENDBRANCH   5   6
ENDBRANCH   4   5
ENDBRANCH   3   4
ENDBRANCH   2   3
TORSDOF 13
ENDMDL
MODEL      224
REMARK 921   NORMALIZED FREE ENERGY PREDICTED BY IDOCK:   -3.62 KCAL/MOL
REMARK 922        TOTAL FREE ENERGY PREDICTED BY IDOCK:   -8.11 KCAL/MOL
REMARK 923 INTER-LIGAND FREE ENERGY PREDICTED BY IDOCK:   -6.09 KCAL/MOL
REMARK 924 INTRA-LIGAND FREE ENERGY PREDICTED BY IDOCK:   -2.02 KCAL/MOL
REMARK 927      BINDING AFFINITY PREDICTED BY RF-SCORE:    0.00 PKD
ROOT
HETATM    1  C   UNL     1     -10.381   8.747  67.314  1.00  0.00    -0.360 C  
HETATM    2  C   UNL     1     -10.651  10.241  67.323  1.00  0.00    -0.324 C  
ENDROOT
BRANCH   2   3
HETATM    3  C   UNL     1      -9.634  10.978  68.185  1.00  0.00    -0.175 C  
BRANCH   3   4
HETATM    4  C   UNL     1      -8.681  11.808  67.327  1.00  0.00    -0.163 C  
BRANCH   4   5
HETATM    5  C   UNL     1      -8.166  12.993  68.132  1.00  0.00    -0.157 C  
BRANCH   5   6
HETATM    6  C   UNL     1      -6.935  13.619  67.549  1.00  0.00    -0.157 C  
HETATM    7  C   UNL     1      -6.391  14.740  68.047  1.00  0.00    -0.164 C  
BRANCH   7   8
HETATM    8  C   UNL     1      -6.948  15.507  69.210  1.00  0.00    -0.171 C  
BRANCH   8   9
HETATM    9  C   UNL     1      -7.058  16.973  68.911  1.00  0.00    -0.233 C  
HETATM   10  C   UNL     1      -8.128  17.547  68.339  1.00  0.00    -0.266 C  
BRANCH  10  11
HETATM   11  C   UNL     1      -9.329  16.762  67.908  1.00  0.00    -0.229 C  
BRANCH  11  12
HETATM   12  C   UNL     1     -10.595  17.146  68.656  1.00  0.00    -0.352 C  
BRANCH  12  13
HETATM   13  C   UNL     1     -10.939  16.060  69.673  1.00  0.00    -0.326 C  
BRANCH  13  14
HETATM   14  C   UNL     1     -10.968  14.693  69.006  1.00  0.00    -0.269 C  
BRANCH  14  15
HETATM   15  C   UNL     1     -12.132  14.578  68.025  1.00  0.00    -0.233 C  
BRANCH  15  16
HETATM   16  C   UNL     1     -11.757  13.658  66.867  1.00  0.00    -0.423 C  
BRANCH  16  17
HETATM   17  C   UNL     1     -12.530  14.004  65.599  1.00  0.00    -0.531 C  
HETATM   18  C   UNL     1     -11.837  13.470  64.369  1.00  0.00    -0.414 C  
HETATM   19  O   UNL     1     -10.792  12.840  64.356  1.00  0.00    -0.323 OA 
HETATM   20  O   UNL     1     -12.509  13.772  63.232  1.00  0.00    -0.819 OA 
ENDBRANCH  16  17
ENDBRANCH  15  16
ENDBRANCH  14  15
ENDBRANCH  13  14
ENDBRANCH  12  13
ENDBRANCH  11  12
ENDBRANCH  10  11
ENDBRANCH   8   9
ENDBRANCH   7   8
ENDBRANCH   5   6
ENDBRANCH   4   5
ENDBRANCH   3   4
ENDBRANCH   2   3
TORSDOF 13
ENDMDL
MODEL      225
REMARK 921   NORMALIZED FREE ENERGY PREDICTED BY IDOCK:   -3.61 KCAL/MOL
REMARK 922        TOTAL FREE ENERGY PREDICTED BY IDOCK:   -8.09 KCAL/MOL
REMARK 923 INTER-LIGAND FREE ENERGY PREDICTED BY IDOCK:   -5.49 KCAL/MOL
REMARK 924 INTRA-LIGAND FREE ENERGY PREDICTED BY IDOCK:   -2.61 KCAL/MOL
REMARK 927      BINDING AFFINITY PREDICTED BY RF-SCORE:    0.00 PKD
ROOT
HETATM    1  C   UNL     1     -11.564   6.747  72.343  1.00  0.00    -0.284 C  
HETATM    2  C   UNL     1     -11.241   7.468  71.046  1.00  0.00    -0.281 C  
ENDROOT
BRANCH   2   3
HETATM    3  C   UNL     1     -11.337   6.524  69.855  1.00  0.00    -0.469 C  
BRANCH   3   4
HETATM    4  C   UNL     1     -10.495   5.269  70.076  1.00  0.00    -0.351 C  
BRANCH   4   5
HETATM    5  C   UNL     1      -9.027   5.585  69.824  1.00  0.00    -0.143 C  
BRANCH   5   6
HETATM    6  C   UNL     1      -8.181   5.512  71.059  1.00  0.00    -0.120 C  
HETATM    7  C   UNL     1      -7.275   6.453  71.370  1.00  0.00    -0.079 C  
BRANCH   7   8
HETATM    8  C   UNL     1      -6.983   7.658  70.526  1.00  0.00    -0.047 C  
BRANCH   8   9
HETATM    9  C   UNL     1      -7.775   8.853  70.965  1.00  0.00    -0.155 C  
HETATM   10  C   UNL     1      -8.618   9.532  70.171  1.00  0.00    -0.250 C  
BRANCH  10  11
HETATM   11  C   UNL     1      -8.831   9.174  68.731  1.00  0.00    -0.132 C  
BRANCH  11  12
HETATM   12  C   UNL     1      -8.887  10.386  67.815  1.00  0.00    -0.128 C  
BRANCH  12  13
HETATM   13  C   UNL     1     -10.160  10.334  66.974  1.00  0.00    -0.268 C  
BRANCH  13  14
HETATM   14  C   UNL     1     -11.354  10.821  67.781  1.00  0.00    -0.354 C  
BRANCH  14  15
HETATM   15  C   UNL     1     -11.108  12.213  68.355  1.00  0.00    -0.289 C  
BRANCH  15  16
HETATM   16  C   UNL     1     -11.794  12.354  69.710  1.00  0.00    -0.387 C  
BRANCH  16  17
HETATM   17  C   UNL     1     -12.293  11.012  70.233  1.00  0.00    -0.410 C  
HETATM   18  C   UNL     1     -13.031  11.169  71.540  1.00  0.00    -0.437 C  
HETATM   19  O   UNL     1     -13.221  12.221  72.130  1.00  0.00    -0.496 OA 
HETATM   20  O   UNL     1     -13.479   9.984  72.021  1.00  0.00    -0.407 OA 
ENDBRANCH  16  17
ENDBRANCH  15  16
ENDBRANCH  14  15
ENDBRANCH  13  14
ENDBRANCH  12  13
ENDBRANCH  11  12
ENDBRANCH  10  11
ENDBRANCH   8   9
ENDBRANCH   7   8
ENDBRANCH   5   6
ENDBRANCH   4   5
ENDBRANCH   3   4
ENDBRANCH   2   3
TORSDOF 13
ENDMDL
MODEL      226
REMARK 921   NORMALIZED FREE ENERGY PREDICTED BY IDOCK:   -3.60 KCAL/MOL
REMARK 922        TOTAL FREE ENERGY PREDICTED BY IDOCK:   -8.08 KCAL/MOL
REMARK 923 INTER-LIGAND FREE ENERGY PREDICTED BY IDOCK:   -5.59 KCAL/MOL
REMARK 924 INTRA-LIGAND FREE ENERGY PREDICTED BY IDOCK:   -2.49 KCAL/MOL
REMARK 927      BINDING AFFINITY PREDICTED BY RF-SCORE:    0.00 PKD
ROOT
HETATM    1  C   UNL     1     -10.273  16.902  65.775  1.00  0.00    -0.287 C  
HETATM    2  C   UNL     1     -10.863  15.508  65.651  1.00  0.00    -0.354 C  
ENDROOT
BRANCH   2   3
HETATM    3  C   UNL     1     -11.354  15.244  64.234  1.00  0.00    -0.114 C  
BRANCH   3   4
HETATM    4  C   UNL     1     -12.518  14.255  64.229  1.00  0.00    -0.304 C  
BRANCH   4   5
HETATM    5  C   UNL     1     -12.051  12.911  64.770  1.00  0.00    -0.474 C  
BRANCH   5   6
HETATM    6  C   UNL     1     -11.184  12.152  63.811  1.00  0.00    -0.509 C  
HETATM    7  C   UNL     1     -10.282  11.244  64.217  1.00  0.00    -0.383 C  
BRANCH   7   8
HETATM    8  C   UNL     1     -10.014  10.901  65.653  1.00  0.00    -0.305 C  
BRANCH   8   9
HETATM    9  C   UNL     1      -9.275  11.998  66.360  1.00  0.00    -0.216 C  
HETATM   10  C   UNL     1      -9.700  12.588  67.489  1.00  0.00    -0.196 C  
BRANCH  10  11
HETATM   11  C   UNL     1     -10.994  12.222  68.150  1.00  0.00    -0.269 C  
BRANCH  11  12
HETATM   12  C   UNL     1     -11.860  13.427  68.480  1.00  0.00    -0.401 C  
BRANCH  12  13
HETATM   13  C   UNL     1     -11.137  14.317  69.488  1.00  0.00    -0.244 C  
BRANCH  13  14
HETATM   14  C   UNL     1     -11.521  15.775  69.285  1.00  0.00    -0.368 C  
BRANCH  14  15
HETATM   15  C   UNL     1     -10.287  16.670  69.208  1.00  0.00    -0.318 C  
BRANCH  15  16
HETATM   16  C   UNL     1      -9.027  15.856  69.487  1.00  0.00    -0.135 C  
BRANCH  16  17
HETATM   17  C   UNL     1      -8.042  15.924  68.325  1.00  0.00    -0.144 C  
HETATM   18  C   UNL     1      -7.040  14.797  68.385  1.00  0.00    -0.114 C  
HETATM   19  O   UNL     1      -6.996  13.927  69.240  1.00  0.00    -0.114 OA 
HETATM   20  O   UNL     1      -6.155  14.844  67.361  1.00  0.00    -0.339 OA 
ENDBRANCH  16  17
ENDBRANCH  15  16
ENDBRANCH  14  15
ENDBRANCH  13  14
ENDBRANCH  12  13
ENDBRANCH  11  12
ENDBRANCH  10  11
ENDBRANCH   8   9
ENDBRANCH   7   8
ENDBRANCH   5   6
ENDBRANCH   4   5
ENDBRANCH   3   4
ENDBRANCH   2   3
TORSDOF 13
ENDMDL
MODEL      227
REMARK 921   NORMALIZED FREE ENERGY PREDICTED BY IDOCK:   -3.59 KCAL/MOL
REMARK 922        TOTAL FREE ENERGY PREDICTED BY IDOCK:   -8.06 KCAL/MOL
REMARK 923 INTER-LIGAND FREE ENERGY PREDICTED BY IDOCK:   -7.20 KCAL/MOL
REMARK 924 INTRA-LIGAND FREE ENERGY PREDICTED BY IDOCK:   -0.86 KCAL/MOL
REMARK 927      BINDING AFFINITY PREDICTED BY RF-SCORE:    0.00 PKD
ROOT
HETATM    1  C   UNL     1      -9.476   3.928  65.631  1.00  0.00    -0.176 C  
HETATM    2  C   UNL     1     -10.466   4.880  66.278  1.00  0.00    -0.349 C  
ENDROOT
BRANCH   2   3
HETATM    3  C   UNL     1      -9.863   5.546  67.508  1.00  0.00    -0.165 C  
BRANCH   3   4
HETATM    4  C   UNL     1     -10.941   6.216  68.358  1.00  0.00    -0.391 C  
BRANCH   4   5
HETATM    5  C   UNL     1     -10.681   5.935  69.831  1.00  0.00    -0.406 C  
BRANCH   5   6
HETATM    6  C   UNL     1      -9.784   6.946  70.481  1.00  0.00    -0.177 C  
HETATM    7  C   UNL     1     -10.245   8.104  70.979  1.00  0.00    -0.221 C  
BRANCH   7   8
HETATM    8  C   UNL     1     -11.680   8.537  70.925  1.00  0.00    -0.274 C  
BRANCH   8   9
HETATM    9  C   UNL     1     -11.910   9.803  71.695  1.00  0.00    -0.429 C  
HETATM   10  C   UNL     1     -12.186  10.989  71.130  1.00  0.00    -0.415 C  
BRANCH  10  11
HETATM   11  C   UNL     1     -12.263  11.175  69.645  1.00  0.00    -0.360 C  
BRANCH  11  12
HETATM   12  C   UNL     1     -11.333  12.260  69.128  1.00  0.00    -0.330 C  
BRANCH  12  13
HETATM   13  C   UNL     1     -12.051  13.607  69.155  1.00  0.00    -0.361 C  
BRANCH  13  14
HETATM   14  C   UNL     1     -11.747  14.400  67.892  1.00  0.00    -0.388 C  
BRANCH  14  15
HETATM   15  C   UNL     1     -10.249  14.641  67.735  1.00  0.00    -0.229 C  
BRANCH  15  16
HETATM   16  C   UNL     1      -9.829  14.424  66.284  1.00  0.00    -0.321 C  
BRANCH  16  17
HETATM   17  C   UNL     1     -10.904  14.894  65.309  1.00  0.00    -0.398 C  
HETATM   18  C   UNL     1     -10.699  16.337  64.918  1.00  0.00    -0.234 C  
HETATM   19  O   UNL     1      -9.800  17.062  65.312  1.00  0.00    -0.385 OA 
HETATM   20  O   UNL     1     -11.647  16.772  64.053  1.00  0.00    -1.195 OA 
ENDBRANCH  16  17
ENDBRANCH  15  16
ENDBRANCH  14  15
ENDBRANCH  13  14
ENDBRANCH  12  13
ENDBRANCH  11  12
ENDBRANCH  10  11
ENDBRANCH   8   9
ENDBRANCH   7   8
ENDBRANCH   5   6
ENDBRANCH   4   5
ENDBRANCH   3   4
ENDBRANCH   2   3
TORSDOF 13
ENDMDL
MODEL      228
REMARK 921   NORMALIZED FREE ENERGY PREDICTED BY IDOCK:   -3.58 KCAL/MOL
REMARK 922        TOTAL FREE ENERGY PREDICTED BY IDOCK:   -8.05 KCAL/MOL
REMARK 923 INTER-LIGAND FREE ENERGY PREDICTED BY IDOCK:   -6.18 KCAL/MOL
REMARK 924 INTRA-LIGAND FREE ENERGY PREDICTED BY IDOCK:   -1.87 KCAL/MOL
REMARK 927      BINDING AFFINITY PREDICTED BY RF-SCORE:    0.00 PKD
ROOT
HETATM    1  C   UNL     1     -11.385   5.388  72.971  1.00  0.00    -0.355 C  
HETATM    2  C   UNL     1     -11.773   6.554  72.079  1.00  0.00    -0.367 C  
ENDROOT
BRANCH   2   3
HETATM    3  C   UNL     1     -11.327   6.317  70.642  1.00  0.00    -0.409 C  
BRANCH   3   4
HETATM    4  C   UNL     1     -10.598   4.983  70.502  1.00  0.00    -0.150 C  
BRANCH   4   5
HETATM    5  C   UNL     1      -9.450   5.127  69.512  1.00  0.00    -0.205 C  
BRANCH   5   6
HETATM    6  C   UNL     1      -8.097   5.048  70.154  1.00  0.00    -0.081 C  
HETATM    7  C   UNL     1      -7.378   6.140  70.459  1.00  0.00    -0.085 C  
BRANCH   7   8
HETATM    8  C   UNL     1      -7.816   7.547  70.178  1.00  0.00    -0.098 C  
BRANCH   8   9
HETATM    9  C   UNL     1      -8.360   8.217  71.404  1.00  0.00    -0.163 C  
HETATM   10  C   UNL     1      -9.259   9.213  71.383  1.00  0.00    -0.208 C  
BRANCH  10  11
HETATM   11  C   UNL     1      -9.797   9.785  70.106  1.00  0.00    -0.306 C  
BRANCH  11  12
HETATM   12  C   UNL     1     -11.166  10.426  70.268  1.00  0.00    -0.395 C  
BRANCH  12  13
HETATM   13  C   UNL     1     -11.396  11.432  69.143  1.00  0.00    -0.353 C  
BRANCH  13  14
HETATM   14  C   UNL     1     -10.089  11.745  68.430  1.00  0.00    -0.201 C  
BRANCH  14  15
HETATM   15  C   UNL     1     -10.323  12.603  67.190  1.00  0.00    -0.239 C  
BRANCH  15  16
HETATM   16  C   UNL     1     -11.672  12.265  66.561  1.00  0.00    -0.420 C  
BRANCH  16  17
HETATM   17  C   UNL     1     -11.613  12.311  65.038  1.00  0.00    -0.394 C  
HETATM   18  C   UNL     1     -12.505  13.394  64.485  1.00  0.00    -0.301 C  
HETATM   19  O   UNL     1     -13.198  14.153  65.143  1.00  0.00    -0.743 OA 
HETATM   20  O   UNL     1     -12.467  13.447  63.131  1.00  0.00    -0.710 OA 
ENDBRANCH  16  17
ENDBRANCH  15  16
ENDBRANCH  14  15
ENDBRANCH  13  14
ENDBRANCH  12  13
ENDBRANCH  11  12
ENDBRANCH  10  11
ENDBRANCH   8   9
ENDBRANCH   7   8
ENDBRANCH   5   6
ENDBRANCH   4   5
ENDBRANCH   3   4
ENDBRANCH   2   3
TORSDOF 13
ENDMDL
MODEL      229
REMARK 921   NORMALIZED FREE ENERGY PREDICTED BY IDOCK:   -3.58 KCAL/MOL
REMARK 922        TOTAL FREE ENERGY PREDICTED BY IDOCK:   -8.05 KCAL/MOL
REMARK 923 INTER-LIGAND FREE ENERGY PREDICTED BY IDOCK:   -6.15 KCAL/MOL
REMARK 924 INTRA-LIGAND FREE ENERGY PREDICTED BY IDOCK:   -1.90 KCAL/MOL
REMARK 927      BINDING AFFINITY PREDICTED BY RF-SCORE:    0.00 PKD
ROOT
HETATM    1  C   UNL     1     -10.722  19.325  66.787  1.00  0.00    -0.526 C  
HETATM    2  C   UNL     1      -9.964  18.746  67.969  1.00  0.00    -0.401 C  
ENDROOT
BRANCH   2   3
HETATM    3  C   UNL     1     -10.592  17.440  68.438  1.00  0.00    -0.355 C  
BRANCH   3   4
HETATM    4  C   UNL     1      -9.524  16.436  68.865  1.00  0.00    -0.254 C  
BRANCH   4   5
HETATM    5  C   UNL     1      -9.814  15.080  68.236  1.00  0.00    -0.219 C  
BRANCH   5   6
HETATM    6  C   UNL     1     -11.190  14.567  68.537  1.00  0.00    -0.285 C  
HETATM    7  C   UNL     1     -12.040  14.173  67.575  1.00  0.00    -0.363 C  
BRANCH   7   8
HETATM    8  C   UNL     1     -11.736  14.221  66.107  1.00  0.00    -0.397 C  
BRANCH   8   9
HETATM    9  C   UNL     1     -12.070  12.928  65.425  1.00  0.00    -0.501 C  
HETATM   10  C   UNL     1     -11.251  11.866  65.381  1.00  0.00    -0.351 C  
BRANCH  10  11
HETATM   11  C   UNL     1      -9.884  11.877  65.995  1.00  0.00    -0.258 C  
BRANCH  11  12
HETATM   12  C   UNL     1      -9.817  11.133  67.319  1.00  0.00    -0.198 C  
BRANCH  12  13
HETATM   13  C   UNL     1     -11.135  10.403  67.564  1.00  0.00    -0.336 C  
BRANCH  13  14
HETATM   14  C   UNL     1     -11.730  10.810  68.904  1.00  0.00    -0.338 C  
BRANCH  14  15
HETATM   15  C   UNL     1     -10.670  10.830  70.000  1.00  0.00    -0.140 C  
BRANCH  15  16
HETATM   16  C   UNL     1     -10.743   9.550  70.828  1.00  0.00    -0.391 C  
BRANCH  16  17
HETATM   17  C   UNL     1      -9.362   8.940  71.048  1.00  0.00    -0.313 C  
HETATM   18  C   UNL     1      -9.248   8.316  72.417  1.00  0.00    -0.256 C  
HETATM   19  O   UNL     1     -10.127   8.285  73.262  1.00  0.00    -0.176 OA 
HETATM   20  O   UNL     1      -8.025   7.772  72.630  1.00  0.00    -0.096 OA 
ENDBRANCH  16  17
ENDBRANCH  15  16
ENDBRANCH  14  15
ENDBRANCH  13  14
ENDBRANCH  12  13
ENDBRANCH  11  12
ENDBRANCH  10  11
ENDBRANCH   8   9
ENDBRANCH   7   8
ENDBRANCH   5   6
ENDBRANCH   4   5
ENDBRANCH   3   4
ENDBRANCH   2   3
TORSDOF 13
ENDMDL
MODEL      230
REMARK 921   NORMALIZED FREE ENERGY PREDICTED BY IDOCK:   -3.58 KCAL/MOL
REMARK 922        TOTAL FREE ENERGY PREDICTED BY IDOCK:   -8.05 KCAL/MOL
REMARK 923 INTER-LIGAND FREE ENERGY PREDICTED BY IDOCK:   -6.39 KCAL/MOL
REMARK 924 INTRA-LIGAND FREE ENERGY PREDICTED BY IDOCK:   -1.66 KCAL/MOL
REMARK 927      BINDING AFFINITY PREDICTED BY RF-SCORE:    0.00 PKD
ROOT
HETATM    1  C   UNL     1      -9.118  10.710  67.766  1.00  0.00    -0.144 C  
HETATM    2  C   UNL     1      -9.098  11.847  66.760  1.00  0.00    -0.197 C  
ENDROOT
BRANCH   2   3
HETATM    3  C   UNL     1      -9.641  13.131  67.372  1.00  0.00    -0.219 C  
BRANCH   3   4
HETATM    4  C   UNL     1     -11.167  13.111  67.434  1.00  0.00    -0.319 C  
BRANCH   4   5
HETATM    5  C   UNL     1     -11.661  14.257  68.306  1.00  0.00    -0.358 C  
BRANCH   5   6
HETATM    6  C   UNL     1     -10.573  14.906  69.108  1.00  0.00    -0.248 C  
HETATM    7  C   UNL     1     -10.823  15.631  70.209  1.00  0.00    -0.366 C  
BRANCH   7   8
HETATM    8  C   UNL     1     -12.196  15.901  70.751  1.00  0.00    -0.373 C  
BRANCH   8   9
HETATM    9  C   UNL     1     -12.352  15.393  72.153  1.00  0.00    -0.458 C  
HETATM   10  C   UNL     1     -12.887  14.203  72.469  1.00  0.00    -0.433 C  
BRANCH  10  11
HETATM   11  C   UNL     1     -13.417  13.259  71.432  1.00  0.00    -0.149 C  
BRANCH  11  12
HETATM   12  C   UNL     1     -13.158  11.799  71.765  1.00  0.00    -0.480 C  
BRANCH  12  13
HETATM   13  C   UNL     1     -12.469  11.119  70.584  1.00  0.00    -0.448 C  
BRANCH  13  14
HETATM   14  C   UNL     1     -11.983   9.731  70.975  1.00  0.00    -0.440 C  
BRANCH  14  15
HETATM   15  C   UNL     1     -10.511   9.538  70.625  1.00  0.00    -0.374 C  
BRANCH  15  16
HETATM   16  C   UNL     1      -9.760   8.941  71.811  1.00  0.00    -0.365 C  
BRANCH  16  17
HETATM   17  C   UNL     1     -10.642   7.994  72.618  1.00  0.00    -0.419 C  
HETATM   18  C   UNL     1     -10.342   6.551  72.294  1.00  0.00    -0.191 C  
HETATM   19  O   UNL     1      -9.508   6.158  71.495  1.00  0.00    -0.149 OA 
HETATM   20  O   UNL     1     -11.119   5.695  73.001  1.00  0.00    -0.262 OA 
ENDBRANCH  16  17
ENDBRANCH  15  16
ENDBRANCH  14  15
ENDBRANCH  13  14
ENDBRANCH  12  13
ENDBRANCH  11  12
ENDBRANCH  10  11
ENDBRANCH   8   9
ENDBRANCH   7   8
ENDBRANCH   5   6
ENDBRANCH   4   5
ENDBRANCH   3   4
ENDBRANCH   2   3
TORSDOF 13
ENDMDL
MODEL      231
REMARK 921   NORMALIZED FREE ENERGY PREDICTED BY IDOCK:   -3.57 KCAL/MOL
REMARK 922        TOTAL FREE ENERGY PREDICTED BY IDOCK:   -8.02 KCAL/MOL
REMARK 923 INTER-LIGAND FREE ENERGY PREDICTED BY IDOCK:   -6.69 KCAL/MOL
REMARK 924 INTRA-LIGAND FREE ENERGY PREDICTED BY IDOCK:   -1.33 KCAL/MOL
REMARK 927      BINDING AFFINITY PREDICTED BY RF-SCORE:    0.00 PKD
ROOT
HETATM    1  C   UNL     1      -8.378  15.439  69.317  1.00  0.00    -0.254 C  
HETATM    2  C   UNL     1      -8.717  15.637  67.850  1.00  0.00    -0.166 C  
ENDROOT
BRANCH   2   3
HETATM    3  C   UNL     1      -9.358  16.999  67.614  1.00  0.00    -0.241 C  
BRANCH   3   4
HETATM    4  C   UNL     1     -10.273  16.973  66.391  1.00  0.00    -0.330 C  
BRANCH   4   5
HETATM    5  C   UNL     1     -10.253  15.585  65.765  1.00  0.00    -0.390 C  
BRANCH   5   6
HETATM    6  C   UNL     1     -11.102  15.475  64.535  1.00  0.00    -0.290 C  
HETATM    7  C   UNL     1     -12.240  14.763  64.505  1.00  0.00    -0.443 C  
BRANCH   7   8
HETATM    8  C   UNL     1     -12.781  13.983  65.667  1.00  0.00    -0.515 C  
BRANCH   8   9
HETATM    9  C   UNL     1     -12.100  12.655  65.811  1.00  0.00    -0.484 C  
HETATM   10  C   UNL     1     -11.590  12.189  66.962  1.00  0.00    -0.406 C  
BRANCH  10  11
HETATM   11  C   UNL     1     -11.626  12.980  68.235  1.00  0.00    -0.375 C  
BRANCH  11  12
HETATM   12  C   UNL     1     -11.304  12.147  69.466  1.00  0.00    -0.277 C  
BRANCH  12  13
HETATM   13  C   UNL     1     -12.300  10.995  69.580  1.00  0.00    -0.266 C  
BRANCH  13  14
HETATM   14  C   UNL     1     -12.650  10.734  71.038  1.00  0.00    -0.520 C  
BRANCH  14  15
HETATM   15  C   UNL     1     -11.965   9.473  71.556  1.00  0.00    -0.475 C  
BRANCH  15  16
HETATM   16  C   UNL     1     -12.742   8.234  71.123  1.00  0.00    -0.118 C  
BRANCH  16  17
HETATM   17  C   UNL     1     -12.203   6.969  71.782  1.00  0.00    -0.387 C  
HETATM   18  C   UNL     1     -11.200   6.271  70.897  1.00  0.00    -0.324 C  
HETATM   19  O   UNL     1     -10.844   6.643  69.791  1.00  0.00    -0.240 OA 
HETATM   20  O   UNL     1     -10.713   5.142  71.467  1.00  0.00    -0.189 OA 
ENDBRANCH  16  17
ENDBRANCH  15  16
ENDBRANCH  14  15
ENDBRANCH  13  14
ENDBRANCH  12  13
ENDBRANCH  11  12
ENDBRANCH  10  11
ENDBRANCH   8   9
ENDBRANCH   7   8
ENDBRANCH   5   6
ENDBRANCH   4   5
ENDBRANCH   3   4
ENDBRANCH   2   3
TORSDOF 13
ENDMDL
MODEL      232
REMARK 921   NORMALIZED FREE ENERGY PREDICTED BY IDOCK:   -3.56 KCAL/MOL
REMARK 922        TOTAL FREE ENERGY PREDICTED BY IDOCK:   -8.02 KCAL/MOL
REMARK 923 INTER-LIGAND FREE ENERGY PREDICTED BY IDOCK:   -6.11 KCAL/MOL
REMARK 924 INTRA-LIGAND FREE ENERGY PREDICTED BY IDOCK:   -1.91 KCAL/MOL
REMARK 927      BINDING AFFINITY PREDICTED BY RF-SCORE:    0.00 PKD
ROOT
HETATM    1  C   UNL     1      -7.647  10.934  68.945  1.00  0.00    -0.128 C  
HETATM    2  C   UNL     1      -8.729  11.774  68.290  1.00  0.00    -0.167 C  
ENDROOT
BRANCH   2   3
HETATM    3  C   UNL     1     -10.116  11.254  68.642  1.00  0.00    -0.216 C  
BRANCH   3   4
HETATM    4  C   UNL     1     -10.063   9.793  69.083  1.00  0.00    -0.200 C  
BRANCH   4   5
HETATM    5  C   UNL     1     -10.609   8.902  67.975  1.00  0.00    -0.226 C  
BRANCH   5   6
HETATM    6  C   UNL     1      -9.572   8.494  66.973  1.00  0.00    -0.246 C  
HETATM    7  C   UNL     1      -9.480   9.059  65.759  1.00  0.00    -0.305 C  
BRANCH   7   8
HETATM    8  C   UNL     1     -10.401  10.128  65.251  1.00  0.00    -0.154 C  
BRANCH   8   9
HETATM    9  C   UNL     1      -9.697  11.081  64.332  1.00  0.00    -0.330 C  
HETATM   10  C   UNL     1     -10.304  12.078  63.670  1.00  0.00    -0.482 C  
BRANCH  10  11
HETATM   11  C   UNL     1     -11.779  12.324  63.763  1.00  0.00    -0.566 C  
BRANCH  11  12
HETATM   12  C   UNL     1     -12.135  13.496  64.664  1.00  0.00    -0.450 C  
BRANCH  12  13
HETATM   13  C   UNL     1     -10.953  14.459  64.743  1.00  0.00    -0.409 C  
BRANCH  13  14
HETATM   14  C   UNL     1     -10.644  14.808  66.191  1.00  0.00    -0.314 C  
BRANCH  14  15
HETATM   15  C   UNL     1      -9.168  15.147  66.379  1.00  0.00    -0.334 C  
BRANCH  15  16
HETATM   16  C   UNL     1      -8.928  16.629  66.108  1.00  0.00    -0.321 C  
BRANCH  16  17
HETATM   17  C   UNL     1      -9.924  17.508  66.856  1.00  0.00    -0.313 C  
HETATM   18  C   UNL     1      -9.331  18.049  68.134  1.00  0.00    -0.284 C  
HETATM   19  O   UNL     1      -8.203  17.830  68.544  1.00  0.00    -0.286 OA 
HETATM   20  O   UNL     1     -10.204  18.830  68.813  1.00  0.00    -0.374 OA 
ENDBRANCH  16  17
ENDBRANCH  15  16
ENDBRANCH  14  15
ENDBRANCH  13  14
ENDBRANCH  12  13
ENDBRANCH  11  12
ENDBRANCH  10  11
ENDBRANCH   8   9
ENDBRANCH   7   8
ENDBRANCH   5   6
ENDBRANCH   4   5
ENDBRANCH   3   4
ENDBRANCH   2   3
TORSDOF 13
ENDMDL
MODEL      233
REMARK 921   NORMALIZED FREE ENERGY PREDICTED BY IDOCK:   -3.55 KCAL/MOL
REMARK 922        TOTAL FREE ENERGY PREDICTED BY IDOCK:   -8.00 KCAL/MOL
REMARK 923 INTER-LIGAND FREE ENERGY PREDICTED BY IDOCK:   -6.67 KCAL/MOL
REMARK 924 INTRA-LIGAND FREE ENERGY PREDICTED BY IDOCK:   -1.33 KCAL/MOL
REMARK 927      BINDING AFFINITY PREDICTED BY RF-SCORE:    0.00 PKD
ROOT
HETATM    1  C   UNL     1      -9.705  11.387  65.445  1.00  0.00    -0.265 C  
HETATM    2  C   UNL     1      -9.816  11.339  66.959  1.00  0.00    -0.217 C  
ENDROOT
BRANCH   2   3
HETATM    3  C   UNL     1     -10.320   9.981  67.430  1.00  0.00    -0.292 C  
BRANCH   3   4
HETATM    4  C   UNL     1     -10.110   9.805  68.932  1.00  0.00    -0.194 C  
BRANCH   4   5
HETATM    5  C   UNL     1     -10.958  10.819  69.690  1.00  0.00    -0.320 C  
BRANCH   5   6
HETATM    6  C   UNL     1     -11.917  10.190  70.655  1.00  0.00    -0.423 C  
HETATM    7  C   UNL     1     -12.861  10.895  71.297  1.00  0.00    -0.536 C  
BRANCH   7   8
HETATM    8  C   UNL     1     -13.056  12.376  71.153  1.00  0.00    -0.122 C  
BRANCH   8   9
HETATM    9  C   UNL     1     -13.664  12.981  72.382  1.00  0.00    -0.593 C  
HETATM   10  C   UNL     1     -13.711  14.299  72.630  1.00  0.00    -0.555 C  
BRANCH  10  11
HETATM   11  C   UNL     1     -13.122  15.315  71.698  1.00  0.00    -0.507 C  
BRANCH  11  12
HETATM   12  C   UNL     1     -11.617  15.176  71.537  1.00  0.00    -0.443 C  
BRANCH  12  13
HETATM   13  C   UNL     1     -11.208  15.632  70.138  1.00  0.00    -0.346 C  
BRANCH  13  14
HETATM   14  C   UNL     1     -10.947  14.431  69.240  1.00  0.00    -0.281 C  
BRANCH  14  15
HETATM   15  C   UNL     1     -11.720  14.538  67.929  1.00  0.00    -0.381 C  
BRANCH  15  16
HETATM   16  C   UNL     1     -10.754  14.577  66.749  1.00  0.00    -0.291 C  
BRANCH  16  17
HETATM   17  C   UNL     1     -10.309  16.000  66.430  1.00  0.00    -0.312 C  
HETATM   18  C   UNL     1      -8.917  16.271  66.945  1.00  0.00    -0.217 C  
HETATM   19  O   UNL     1      -8.211  15.476  67.542  1.00  0.00    -0.144 OA 
HETATM   20  O   UNL     1      -8.507  17.533  66.672  1.00  0.00    -0.235 OA 
ENDBRANCH  16  17
ENDBRANCH  15  16
ENDBRANCH  14  15
ENDBRANCH  13  14
ENDBRANCH  12  13
ENDBRANCH  11  12
ENDBRANCH  10  11
ENDBRANCH   8   9
ENDBRANCH   7   8
ENDBRANCH   5   6
ENDBRANCH   4   5
ENDBRANCH   3   4
ENDBRANCH   2   3
TORSDOF 13
ENDMDL
MODEL      234
REMARK 921   NORMALIZED FREE ENERGY PREDICTED BY IDOCK:   -3.55 KCAL/MOL
REMARK 922        TOTAL FREE ENERGY PREDICTED BY IDOCK:   -8.00 KCAL/MOL
REMARK 923 INTER-LIGAND FREE ENERGY PREDICTED BY IDOCK:   -5.94 KCAL/MOL
REMARK 924 INTRA-LIGAND FREE ENERGY PREDICTED BY IDOCK:   -2.06 KCAL/MOL
REMARK 927      BINDING AFFINITY PREDICTED BY RF-SCORE:    0.00 PKD
ROOT
HETATM    1  C   UNL     1      -6.459   8.590  69.360  1.00  0.00    -0.037 C  
HETATM    2  C   UNL     1      -7.545   9.283  68.556  1.00  0.00    -0.085 C  
ENDROOT
BRANCH   2   3
HETATM    3  C   UNL     1      -8.664   9.782  69.461  1.00  0.00    -0.193 C  
BRANCH   3   4
HETATM    4  C   UNL     1      -8.531   9.210  70.870  1.00  0.00    -0.251 C  
BRANCH   4   5
HETATM    5  C   UNL     1      -9.899   8.771  71.376  1.00  0.00    -0.353 C  
BRANCH   5   6
HETATM    6  C   UNL     1      -9.992   7.297  71.635  1.00  0.00    -0.192 C  
HETATM    7  C   UNL     1     -11.100   6.587  71.370  1.00  0.00    -0.315 C  
BRANCH   7   8
HETATM    8  C   UNL     1     -12.368   7.171  70.820  1.00  0.00    -0.273 C  
BRANCH   8   9
HETATM    9  C   UNL     1     -13.241   7.731  71.902  1.00  0.00    -0.300 C  
HETATM   10  C   UNL     1     -13.722   8.984  71.910  1.00  0.00    -0.495 C  
BRANCH  10  11
HETATM   11  C   UNL     1     -13.404   9.975  70.832  1.00  0.00    -0.281 C  
BRANCH  11  12
HETATM   12  C   UNL     1     -12.702  11.219  71.350  1.00  0.00    -0.501 C  
BRANCH  12  13
HETATM   13  C   UNL     1     -11.756  11.758  70.279  1.00  0.00    -0.317 C  
BRANCH  13  14
HETATM   14  C   UNL     1     -11.907  10.968  68.987  1.00  0.00    -0.399 C  
BRANCH  14  15
HETATM   15  C   UNL     1     -11.378  11.753  67.791  1.00  0.00    -0.358 C  
BRANCH  15  16
HETATM   16  C   UNL     1     -12.017  13.138  67.744  1.00  0.00    -0.352 C  
BRANCH  16  17
HETATM   17  C   UNL     1     -11.028  14.201  67.280  1.00  0.00    -0.304 C  
HETATM   18  C   UNL     1     -11.102  15.437  68.142  1.00  0.00    -0.309 C  
HETATM   19  O   UNL     1     -11.846  15.597  69.096  1.00  0.00    -0.363 OA 
HETATM   20  O   UNL     1     -10.231  16.394  67.741  1.00  0.00    -0.259 OA 
ENDBRANCH  16  17
ENDBRANCH  15  16
ENDBRANCH  14  15
ENDBRANCH  13  14
ENDBRANCH  12  13
ENDBRANCH  11  12
ENDBRANCH  10  11
ENDBRANCH   8   9
ENDBRANCH   7   8
ENDBRANCH   5   6
ENDBRANCH   4   5
ENDBRANCH   3   4
ENDBRANCH   2   3
TORSDOF 13
ENDMDL
MODEL      235
REMARK 921   NORMALIZED FREE ENERGY PREDICTED BY IDOCK:   -3.54 KCAL/MOL
REMARK 922        TOTAL FREE ENERGY PREDICTED BY IDOCK:   -7.98 KCAL/MOL
REMARK 923 INTER-LIGAND FREE ENERGY PREDICTED BY IDOCK:   -6.06 KCAL/MOL
REMARK 924 INTRA-LIGAND FREE ENERGY PREDICTED BY IDOCK:   -1.92 KCAL/MOL
REMARK 927      BINDING AFFINITY PREDICTED BY RF-SCORE:    0.00 PKD
ROOT
HETATM    1  C   UNL     1     -10.963   6.108  67.282  1.00  0.00    -0.418 C  
HETATM    2  C   UNL     1     -10.277   7.408  66.900  1.00  0.00    -0.346 C  
ENDROOT
BRANCH   2   3
HETATM    3  C   UNL     1     -10.572   8.504  67.915  1.00  0.00    -0.219 C  
BRANCH   3   4
HETATM    4  C   UNL     1     -10.129   8.091  69.318  1.00  0.00    -0.198 C  
BRANCH   4   5
HETATM    5  C   UNL     1      -9.984   9.328  70.194  1.00  0.00    -0.251 C  
BRANCH   5   6
HETATM    6  C   UNL     1     -10.848   9.294  71.419  1.00  0.00    -0.434 C  
HETATM    7  C   UNL     1     -12.041   9.907  71.477  1.00  0.00    -0.496 C  
BRANCH   7   8
HETATM    8  C   UNL     1     -12.636  10.709  70.357  1.00  0.00    -0.395 C  
BRANCH   8   9
HETATM    9  C   UNL     1     -12.004  12.064  70.244  1.00  0.00    -0.398 C  
HETATM   10  C   UNL     1     -11.533  12.584  69.100  1.00  0.00    -0.361 C  
BRANCH  10  11
HETATM   11  C   UNL     1     -11.566  11.835  67.802  1.00  0.00    -0.374 C  
BRANCH  11  12
HETATM   12  C   UNL     1     -11.806  12.732  66.599  1.00  0.00    -0.462 C  
BRANCH  12  13
HETATM   13  C   UNL     1     -11.905  14.186  67.056  1.00  0.00    -0.458 C  
BRANCH  13  14
HETATM   14  C   UNL     1     -10.847  15.035  66.367  1.00  0.00    -0.326 C  
BRANCH  14  15
HETATM   15  C   UNL     1      -9.651  15.283  67.282  1.00  0.00    -0.214 C  
BRANCH  15  16
HETATM   16  C   UNL     1      -8.561  14.249  67.018  1.00  0.00    -0.213 C  
BRANCH  16  17
HETATM   17  C   UNL     1      -8.003  13.673  68.315  1.00  0.00    -0.150 C  
HETATM   18  C   UNL     1      -7.339  12.337  68.084  1.00  0.00    -0.105 C  
HETATM   19  O   UNL     1      -7.244  11.764  67.012  1.00  0.00    -0.140 OA 
HETATM   20  O   UNL     1      -6.840  11.810  69.228  1.00  0.00    -0.108 OA 
ENDBRANCH  16  17
ENDBRANCH  15  16
ENDBRANCH  14  15
ENDBRANCH  13  14
ENDBRANCH  12  13
ENDBRANCH  11  12
ENDBRANCH  10  11
ENDBRANCH   8   9
ENDBRANCH   7   8
ENDBRANCH   5   6
ENDBRANCH   4   5
ENDBRANCH   3   4
ENDBRANCH   2   3
TORSDOF 13
ENDMDL
MODEL      236
REMARK 921   NORMALIZED FREE ENERGY PREDICTED BY IDOCK:   -3.54 KCAL/MOL
REMARK 922        TOTAL FREE ENERGY PREDICTED BY IDOCK:   -7.97 KCAL/MOL
REMARK 923 INTER-LIGAND FREE ENERGY PREDICTED BY IDOCK:   -6.39 KCAL/MOL
REMARK 924 INTRA-LIGAND FREE ENERGY PREDICTED BY IDOCK:   -1.58 KCAL/MOL
REMARK 927      BINDING AFFINITY PREDICTED BY RF-SCORE:    0.00 PKD
ROOT
HETATM    1  C   UNL     1      -8.540  16.354  66.142  1.00  0.00    -0.343 C  
HETATM    2  C   UNL     1      -9.155  15.093  66.724  1.00  0.00    -0.282 C  
ENDROOT
BRANCH   2   3
HETATM    3  C   UNL     1     -10.074  14.415  65.716  1.00  0.00    -0.361 C  
BRANCH   3   4
HETATM    4  C   UNL     1     -11.541  14.706  66.024  1.00  0.00    -0.328 C  
BRANCH   4   5
HETATM    5  C   UNL     1     -12.081  13.657  66.987  1.00  0.00    -0.423 C  
BRANCH   5   6
HETATM    6  C   UNL     1     -11.766  12.251  66.574  1.00  0.00    -0.420 C  
HETATM    7  C   UNL     1     -11.284  11.337  67.431  1.00  0.00    -0.370 C  
BRANCH   7   8
HETATM    8  C   UNL     1     -10.980  11.609  68.875  1.00  0.00    -0.282 C  
BRANCH   8   9
HETATM    9  C   UNL     1     -12.037  11.055  69.781  1.00  0.00    -0.424 C  
HETATM   10  C   UNL     1     -11.808  10.143  70.739  1.00  0.00    -0.443 C  
BRANCH  10  11
HETATM   11  C   UNL     1     -10.451   9.556  70.983  1.00  0.00    -0.377 C  
BRANCH  11  12
HETATM   12  C   UNL     1     -10.436   8.527  72.102  1.00  0.00    -0.412 C  
BRANCH  12  13
HETATM   13  C   UNL     1     -11.718   7.700  72.055  1.00  0.00    -0.340 C  
BRANCH  13  14
HETATM   14  C   UNL     1     -11.444   6.264  72.477  1.00  0.00    -0.300 C  
BRANCH  14  15
HETATM   15  C   UNL     1      -9.998   5.869  72.194  1.00  0.00    -0.196 C  
BRANCH  15  16
HETATM   16  C   UNL     1      -9.919   5.033  70.920  1.00  0.00    -0.286 C  
BRANCH  16  17
HETATM   17  C   UNL     1      -9.264   5.804  69.779  1.00  0.00    -0.161 C  
HETATM   18  C   UNL     1     -10.292   6.319  68.801  1.00  0.00    -0.205 C  
HETATM   19  O   UNL     1     -11.498   6.156  68.883  1.00  0.00    -0.305 OA 
HETATM   20  O   UNL     1      -9.727   7.004  67.778  1.00  0.00    -0.132 OA 
ENDBRANCH  16  17
ENDBRANCH  15  16
ENDBRANCH  14  15
ENDBRANCH  13  14
ENDBRANCH  12  13
ENDBRANCH  11  12
ENDBRANCH  10  11
ENDBRANCH   8   9
ENDBRANCH   7   8
ENDBRANCH   5   6
ENDBRANCH   4   5
ENDBRANCH   3   4
ENDBRANCH   2   3
TORSDOF 13
ENDMDL
MODEL      237
REMARK 921   NORMALIZED FREE ENERGY PREDICTED BY IDOCK:   -3.54 KCAL/MOL
REMARK 922        TOTAL FREE ENERGY PREDICTED BY IDOCK:   -7.97 KCAL/MOL
REMARK 923 INTER-LIGAND FREE ENERGY PREDICTED BY IDOCK:   -5.93 KCAL/MOL
REMARK 924 INTRA-LIGAND FREE ENERGY PREDICTED BY IDOCK:   -2.04 KCAL/MOL
REMARK 927      BINDING AFFINITY PREDICTED BY RF-SCORE:    0.00 PKD
ROOT
HETATM    1  C   UNL     1      -6.201  11.440  69.420  1.00  0.00    -0.091 C  
HETATM    2  C   UNL     1      -7.558  11.748  68.812  1.00  0.00    -0.104 C  
ENDROOT
BRANCH   2   3
HETATM    3  C   UNL     1      -7.478  12.937  67.864  1.00  0.00    -0.131 C  
BRANCH   3   4
HETATM    4  C   UNL     1      -8.649  13.894  68.079  1.00  0.00    -0.178 C  
BRANCH   4   5
HETATM    5  C   UNL     1      -8.736  14.868  66.911  1.00  0.00    -0.276 C  
BRANCH   5   6
HETATM    6  C   UNL     1      -9.944  15.753  66.964  1.00  0.00    -0.240 C  
HETATM    7  C   UNL     1     -10.896  15.733  66.017  1.00  0.00    -0.256 C  
BRANCH   7   8
HETATM    8  C   UNL     1     -10.858  14.859  64.798  1.00  0.00    -0.382 C  
BRANCH   8   9
HETATM    9  C   UNL     1     -12.166  14.161  64.571  1.00  0.00    -0.468 C  
HETATM   10  C   UNL     1     -12.440  12.917  64.993  1.00  0.00    -0.553 C  
BRANCH  10  11
HETATM   11  C   UNL     1     -11.437  12.075  65.721  1.00  0.00    -0.377 C  
BRANCH  11  12
HETATM   12  C   UNL     1     -11.473  12.270  67.228  1.00  0.00    -0.426 C  
BRANCH  12  13
HETATM   13  C   UNL     1     -11.365  10.915  67.924  1.00  0.00    -0.380 C  
BRANCH  13  14
HETATM   14  C   UNL     1     -10.536   9.951  67.089  1.00  0.00    -0.305 C  
BRANCH  14  15
HETATM   15  C   UNL     1     -10.166   8.702  67.884  1.00  0.00    -0.273 C  
BRANCH  15  16
HETATM   16  C   UNL     1     -10.601   8.855  69.338  1.00  0.00    -0.226 C  
BRANCH  16  17
HETATM   17  C   UNL     1      -9.409   8.840  70.289  1.00  0.00    -0.193 C  
HETATM   18  C   UNL     1      -9.853   8.771  71.729  1.00  0.00    -0.321 C  
HETATM   19  O   UNL     1     -11.009   8.731  72.118  1.00  0.00    -0.356 OA 
HETATM   20  O   UNL     1      -8.805   8.760  72.588  1.00  0.00    -0.394 OA 
ENDBRANCH  16  17
ENDBRANCH  15  16
ENDBRANCH  14  15
ENDBRANCH  13  14
ENDBRANCH  12  13
ENDBRANCH  11  12
ENDBRANCH  10  11
ENDBRANCH   8   9
ENDBRANCH   7   8
ENDBRANCH   5   6
ENDBRANCH   4   5
ENDBRANCH   3   4
ENDBRANCH   2   3
TORSDOF 13
ENDMDL
MODEL      238
REMARK 921   NORMALIZED FREE ENERGY PREDICTED BY IDOCK:   -3.52 KCAL/MOL
REMARK 922        TOTAL FREE ENERGY PREDICTED BY IDOCK:   -7.95 KCAL/MOL
REMARK 923 INTER-LIGAND FREE ENERGY PREDICTED BY IDOCK:   -6.51 KCAL/MOL
REMARK 924 INTRA-LIGAND FREE ENERGY PREDICTED BY IDOCK:   -1.44 KCAL/MOL
REMARK 927      BINDING AFFINITY PREDICTED BY RF-SCORE:    0.00 PKD
ROOT
HETATM    1  C   UNL     1     -10.678   8.532  71.056  1.00  0.00    -0.278 C  
HETATM    2  C   UNL     1     -10.609   7.078  70.626  1.00  0.00    -0.246 C  
ENDROOT
BRANCH   2   3
HETATM    3  C   UNL     1     -11.552   6.804  69.461  1.00  0.00    -0.183 C  
BRANCH   3   4
HETATM    4  C   UNL     1     -10.849   6.021  68.354  1.00  0.00    -0.361 C  
BRANCH   4   5
HETATM    5  C   UNL     1      -9.517   6.680  68.026  1.00  0.00    -0.118 C  
BRANCH   5   6
HETATM    6  C   UNL     1      -9.507   7.375  66.697  1.00  0.00    -0.240 C  
HETATM    7  C   UNL     1      -9.636   8.706  66.578  1.00  0.00    -0.303 C  
BRANCH   7   8
HETATM    8  C   UNL     1      -9.828   9.644  67.732  1.00  0.00    -0.192 C  
BRANCH   8   9
HETATM    9  C   UNL     1     -11.122  10.396  67.631  1.00  0.00    -0.361 C  
HETATM   10  C   UNL     1     -11.212  11.730  67.519  1.00  0.00    -0.354 C  
BRANCH  10  11
HETATM   11  C   UNL     1     -10.007  12.621  67.515  1.00  0.00    -0.205 C  
BRANCH  11  12
HETATM   12  C   UNL     1     -10.234  13.931  66.779  1.00  0.00    -0.268 C  
BRANCH  12  13
HETATM   13  C   UNL     1     -10.076  15.098  67.751  1.00  0.00    -0.230 C  
BRANCH  13  14
HETATM   14  C   UNL     1     -11.327  15.259  68.601  1.00  0.00    -0.327 C  
BRANCH  14  15
HETATM   15  C   UNL     1     -10.984  15.723  70.014  1.00  0.00    -0.344 C  
BRANCH  15  16
HETATM   16  C   UNL     1     -11.934  15.087  71.024  1.00  0.00    -0.376 C  
BRANCH  16  17
HETATM   17  C   UNL     1     -12.141  15.978  72.243  1.00  0.00    -0.617 C  
HETATM   18  C   UNL     1     -12.650  15.187  73.424  1.00  0.00    -0.531 C  
HETATM   19  O   UNL     1     -12.876  13.989  73.435  1.00  0.00    -0.385 OA 
HETATM   20  O   UNL     1     -12.843  15.966  74.516  1.00  0.00    -0.586 OA 
ENDBRANCH  16  17
ENDBRANCH  15  16
ENDBRANCH  14  15
ENDBRANCH  13  14
ENDBRANCH  12  13
ENDBRANCH  11  12
ENDBRANCH  10  11
ENDBRANCH   8   9
ENDBRANCH   7   8
ENDBRANCH   5   6
ENDBRANCH   4   5
ENDBRANCH   3   4
ENDBRANCH   2   3
TORSDOF 13
ENDMDL
MODEL      239
REMARK 921   NORMALIZED FREE ENERGY PREDICTED BY IDOCK:   -3.52 KCAL/MOL
REMARK 922        TOTAL FREE ENERGY PREDICTED BY IDOCK:   -7.95 KCAL/MOL
REMARK 923 INTER-LIGAND FREE ENERGY PREDICTED BY IDOCK:   -5.70 KCAL/MOL
REMARK 924 INTRA-LIGAND FREE ENERGY PREDICTED BY IDOCK:   -2.25 KCAL/MOL
REMARK 927      BINDING AFFINITY PREDICTED BY RF-SCORE:    0.00 PKD
ROOT
HETATM    1  C   UNL     1     -12.390  13.612  66.677  1.00  0.00    -0.381 C  
HETATM    2  C   UNL     1     -12.801  13.767  65.224  1.00  0.00    -0.430 C  
ENDROOT
BRANCH   2   3
HETATM    3  C   UNL     1     -11.627  13.505  64.290  1.00  0.00    -0.433 C  
BRANCH   3   4
HETATM    4  C   UNL     1     -11.577  12.039  63.863  1.00  0.00    -0.536 C  
BRANCH   4   5
HETATM    5  C   UNL     1     -10.256  11.422  64.302  1.00  0.00    -0.367 C  
BRANCH   5   6
HETATM    6  C   UNL     1      -9.677  10.476  63.294  1.00  0.00    -0.361 C  
HETATM    7  C   UNL     1      -8.474   9.902  63.451  1.00  0.00    -0.182 C  
BRANCH   7   8
HETATM    8  C   UNL     1      -7.563  10.151  64.617  1.00  0.00    -0.135 C  
BRANCH   8   9
HETATM    9  C   UNL     1      -7.368   8.916  65.446  1.00  0.00    -0.085 C  
HETATM   10  C   UNL     1      -7.493   8.877  66.782  1.00  0.00    -0.083 C  
BRANCH  10  11
HETATM   11  C   UNL     1      -7.817  10.093  67.595  1.00  0.00    -0.098 C  
BRANCH  11  12
HETATM   12  C   UNL     1      -9.195  10.034  68.235  1.00  0.00    -0.129 C  
BRANCH  12  13
HETATM   13  C   UNL     1      -9.862  11.405  68.143  1.00  0.00    -0.195 C  
BRANCH  13  14
HETATM   14  C   UNL     1      -8.813  12.505  68.068  1.00  0.00    -0.187 C  
BRANCH  14  15
HETATM   15  C   UNL     1      -8.931  13.299  66.771  1.00  0.00    -0.183 C  
BRANCH  15  16
HETATM   16  C   UNL     1      -8.816  14.793  67.054  1.00  0.00    -0.258 C  
BRANCH  16  17
HETATM   17  C   UNL     1      -9.208  15.630  65.841  1.00  0.00    -0.330 C  
HETATM   18  C   UNL     1     -10.251  16.661  66.197  1.00  0.00    -0.348 C  
HETATM   19  O   UNL     1     -10.738  16.830  67.303  1.00  0.00    -0.298 OA 
HETATM   20  O   UNL     1     -10.614  17.411  65.129  1.00  0.00    -0.681 OA 
ENDBRANCH  16  17
ENDBRANCH  15  16
ENDBRANCH  14  15
ENDBRANCH  13  14
ENDBRANCH  12  13
ENDBRANCH  11  12
ENDBRANCH  10  11
ENDBRANCH   8   9
ENDBRANCH   7   8
ENDBRANCH   5   6
ENDBRANCH   4   5
ENDBRANCH   3   4
ENDBRANCH   2   3
TORSDOF 13
ENDMDL
MODEL      240
REMARK 921   NORMALIZED FREE ENERGY PREDICTED BY IDOCK:   -3.52 KCAL/MOL
REMARK 922        TOTAL FREE ENERGY PREDICTED BY IDOCK:   -7.94 KCAL/MOL
REMARK 923 INTER-LIGAND FREE ENERGY PREDICTED BY IDOCK:   -5.70 KCAL/MOL
REMARK 924 INTRA-LIGAND FREE ENERGY PREDICTED BY IDOCK:   -2.24 KCAL/MOL
REMARK 927      BINDING AFFINITY PREDICTED BY RF-SCORE:    0.00 PKD
ROOT
HETATM    1  C   UNL     1     -12.221  14.832  64.765  1.00  0.00    -0.356 C  
HETATM    2  C   UNL     1     -12.550  13.376  65.045  1.00  0.00    -0.459 C  
ENDROOT
BRANCH   2   3
HETATM    3  C   UNL     1     -11.905  12.459  64.013  1.00  0.00    -0.521 C  
BRANCH   3   4
HETATM    4  C   UNL     1     -11.285  11.231  64.677  1.00  0.00    -0.152 C  
BRANCH   4   5
HETATM    5  C   UNL     1      -9.849  11.537  65.081  1.00  0.00    -0.294 C  
BRANCH   5   6
HETATM    6  C   UNL     1      -8.924  10.369  64.922  1.00  0.00    -0.225 C  
HETATM    7  C   UNL     1      -8.867   9.367  65.813  1.00  0.00    -0.204 C  
BRANCH   7   8
HETATM    8  C   UNL     1      -9.684   9.305  67.070  1.00  0.00    -0.241 C  
BRANCH   8   9
HETATM    9  C   UNL     1      -9.057  10.090  68.183  1.00  0.00    -0.121 C  
HETATM   10  C   UNL     1      -9.730  10.567  69.242  1.00  0.00    -0.215 C  
BRANCH  10  11
HETATM   11  C   UNL     1     -11.208  10.381  69.406  1.00  0.00    -0.314 C  
BRANCH  11  12
HETATM   12  C   UNL     1     -11.963  11.693  69.546  1.00  0.00    -0.383 C  
BRANCH  12  13
HETATM   13  C   UNL     1     -11.587  12.627  68.398  1.00  0.00    -0.370 C  
BRANCH  13  14
HETATM   14  C   UNL     1     -11.687  14.080  68.837  1.00  0.00    -0.375 C  
BRANCH  14  15
HETATM   15  C   UNL     1     -10.393  14.838  68.551  1.00  0.00    -0.237 C  
BRANCH  15  16
HETATM   16  C   UNL     1      -9.650  14.192  67.386  1.00  0.00    -0.229 C  
BRANCH  16  17
HETATM   17  C   UNL     1      -8.172  14.564  67.383  1.00  0.00    -0.220 C  
HETATM   18  C   UNL     1      -7.942  15.903  66.726  1.00  0.00    -0.252 C  
HETATM   19  O   UNL     1      -8.806  16.621  66.248  1.00  0.00    -0.279 OA 
HETATM   20  O   UNL     1      -6.632  16.249  66.712  1.00  0.00    -0.255 OA 
ENDBRANCH  16  17
ENDBRANCH  15  16
ENDBRANCH  14  15
ENDBRANCH  13  14
ENDBRANCH  12  13
ENDBRANCH  11  12
ENDBRANCH  10  11
ENDBRANCH   8   9
ENDBRANCH   7   8
ENDBRANCH   5   6
ENDBRANCH   4   5
ENDBRANCH   3   4
ENDBRANCH   2   3
TORSDOF 13
ENDMDL
MODEL      241
REMARK 921   NORMALIZED FREE ENERGY PREDICTED BY IDOCK:   -3.52 KCAL/MOL
REMARK 922        TOTAL FREE ENERGY PREDICTED BY IDOCK:   -7.94 KCAL/MOL
REMARK 923 INTER-LIGAND FREE ENERGY PREDICTED BY IDOCK:   -6.70 KCAL/MOL
REMARK 924 INTRA-LIGAND FREE ENERGY PREDICTED BY IDOCK:   -1.24 KCAL/MOL
REMARK 927      BINDING AFFINITY PREDICTED BY RF-SCORE:    0.00 PKD
ROOT
HETATM    1  C   UNL     1     -12.746  12.830  64.623  1.00  0.00    -0.439 C  
HETATM    2  C   UNL     1     -11.952  12.855  63.329  1.00  0.00    -0.516 C  
ENDROOT
BRANCH   2   3
HETATM    3  C   UNL     1     -10.503  12.450  63.566  1.00  0.00    -0.430 C  
BRANCH   3   4
HETATM    4  C   UNL     1     -10.342  10.932  63.536  1.00  0.00    -0.342 C  
BRANCH   4   5
HETATM    5  C   UNL     1      -9.958  10.430  64.922  1.00  0.00    -0.409 C  
BRANCH   5   6
HETATM    6  C   UNL     1      -9.287  11.471  65.767  1.00  0.00    -0.238 C  
HETATM    7  C   UNL     1      -9.874  12.016  66.843  1.00  0.00    -0.217 C  
BRANCH   7   8
HETATM    8  C   UNL     1     -11.260  11.681  67.312  1.00  0.00    -0.365 C  
BRANCH   8   9
HETATM    9  C   UNL     1     -11.520  12.194  68.697  1.00  0.00    -0.347 C  
HETATM   10  C   UNL     1     -11.446  11.442  69.806  1.00  0.00    -0.376 C  
BRANCH  10  11
HETATM   11  C   UNL     1     -11.118   9.980  69.767  1.00  0.00    -0.319 C  
BRANCH  11  12
HETATM   12  C   UNL     1     -10.020   9.587  70.741  1.00  0.00    -0.334 C  
BRANCH  12  13
HETATM   13  C   UNL     1      -9.469   8.213  70.366  1.00  0.00    -0.163 C  
BRANCH  13  14
HETATM   14  C   UNL     1     -10.234   7.636  69.184  1.00  0.00    -0.204 C  
BRANCH  14  15
HETATM   15  C   UNL     1     -10.843   6.279  69.524  1.00  0.00    -0.404 C  
BRANCH  15  16
HETATM   16  C   UNL     1     -11.458   6.312  70.920  1.00  0.00    -0.377 C  
BRANCH  16  17
HETATM   17  C   UNL     1     -12.828   6.981  70.918  1.00  0.00    -0.172 C  
HETATM   18  C   UNL     1     -12.928   8.035  71.994  1.00  0.00    -0.279 C  
HETATM   19  O   UNL     1     -12.045   8.337  72.780  1.00  0.00    -0.353 OA 
HETATM   20  O   UNL     1     -14.141   8.638  72.008  1.00  0.00    -0.416 OA 
ENDBRANCH  16  17
ENDBRANCH  15  16
ENDBRANCH  14  15
ENDBRANCH  13  14
ENDBRANCH  12  13
ENDBRANCH  11  12
ENDBRANCH  10  11
ENDBRANCH   8   9
ENDBRANCH   7   8
ENDBRANCH   5   6
ENDBRANCH   4   5
ENDBRANCH   3   4
ENDBRANCH   2   3
TORSDOF 13
ENDMDL
MODEL      242
REMARK 921   NORMALIZED FREE ENERGY PREDICTED BY IDOCK:   -3.51 KCAL/MOL
REMARK 922        TOTAL FREE ENERGY PREDICTED BY IDOCK:   -7.92 KCAL/MOL
REMARK 923 INTER-LIGAND FREE ENERGY PREDICTED BY IDOCK:   -6.61 KCAL/MOL
REMARK 924 INTRA-LIGAND FREE ENERGY PREDICTED BY IDOCK:   -1.31 KCAL/MOL
REMARK 927      BINDING AFFINITY PREDICTED BY RF-SCORE:    0.00 PKD
ROOT
HETATM    1  C   UNL     1     -10.692  11.418  63.462  1.00  0.00    -0.453 C  
HETATM    2  C   UNL     1     -11.701  12.553  63.485  1.00  0.00    -0.595 C  
ENDROOT
BRANCH   2   3
HETATM    3  C   UNL     1     -12.503  12.548  64.780  1.00  0.00    -0.532 C  
BRANCH   3   4
HETATM    4  C   UNL     1     -12.774  13.970  65.267  1.00  0.00    -0.468 C  
BRANCH   4   5
HETATM    5  C   UNL     1     -11.894  14.276  66.472  1.00  0.00    -0.433 C  
BRANCH   5   6
HETATM    6  C   UNL     1     -10.449  13.942  66.254  1.00  0.00    -0.287 C  
HETATM    7  C   UNL     1      -9.770  13.112  67.062  1.00  0.00    -0.241 C  
BRANCH   7   8
HETATM    8  C   UNL     1     -10.351  12.451  68.276  1.00  0.00    -0.232 C  
BRANCH   8   9
HETATM    9  C   UNL     1     -11.346  11.390  67.911  1.00  0.00    -0.371 C  
HETATM   10  C   UNL     1     -11.048  10.286  67.208  1.00  0.00    -0.215 C  
BRANCH  10  11
HETATM   11  C   UNL     1      -9.671  10.014  66.683  1.00  0.00    -0.246 C  
BRANCH  11  12
HETATM   12  C   UNL     1      -9.501   8.600  66.151  1.00  0.00    -0.308 C  
BRANCH  12  13
HETATM   13  C   UNL     1      -9.449   7.617  67.318  1.00  0.00    -0.185 C  
BRANCH  13  14
HETATM   14  C   UNL     1     -10.560   6.585  67.197  1.00  0.00    -0.398 C  
BRANCH  14  15
HETATM   15  C   UNL     1     -11.136   6.225  68.564  1.00  0.00    -0.397 C  
BRANCH  15  16
HETATM   16  C   UNL     1     -10.291   6.847  69.672  1.00  0.00    -0.224 C  
BRANCH  16  17
HETATM   17  C   UNL     1     -10.132   5.902  70.858  1.00  0.00    -0.251 C  
HETATM   18  C   UNL     1     -10.968   6.347  72.034  1.00  0.00    -0.250 C  
HETATM   19  O   UNL     1     -11.689   7.331  72.064  1.00  0.00    -0.277 OA 
HETATM   20  O   UNL     1     -10.836   5.520  73.098  1.00  0.00    -0.244 OA 
ENDBRANCH  16  17
ENDBRANCH  15  16
ENDBRANCH  14  15
ENDBRANCH  13  14
ENDBRANCH  12  13
ENDBRANCH  11  12
ENDBRANCH  10  11
ENDBRANCH   8   9
ENDBRANCH   7   8
ENDBRANCH   5   6
ENDBRANCH   4   5
ENDBRANCH   3   4
ENDBRANCH   2   3
TORSDOF 13
ENDMDL
MODEL      243
REMARK 921   NORMALIZED FREE ENERGY PREDICTED BY IDOCK:   -3.51 KCAL/MOL
REMARK 922        TOTAL FREE ENERGY PREDICTED BY IDOCK:   -7.92 KCAL/MOL
REMARK 923 INTER-LIGAND FREE ENERGY PREDICTED BY IDOCK:   -5.59 KCAL/MOL
REMARK 924 INTRA-LIGAND FREE ENERGY PREDICTED BY IDOCK:   -2.33 KCAL/MOL
REMARK 927      BINDING AFFINITY PREDICTED BY RF-SCORE:    0.00 PKD
ROOT
HETATM    1  C   UNL     1     -10.044   7.872  72.971  1.00  0.00    -0.384 C  
HETATM    2  C   UNL     1      -8.535   7.928  73.128  1.00  0.00    -0.242 C  
ENDROOT
BRANCH   2   3
HETATM    3  C   UNL     1      -7.923   6.536  73.055  1.00  0.00    -0.104 C  
BRANCH   3   4
HETATM    4  C   UNL     1      -7.139   6.345  71.758  1.00  0.00    -0.085 C  
BRANCH   4   5
HETATM    5  C   UNL     1      -7.700   5.156  70.990  1.00  0.00    -0.095 C  
BRANCH   5   6
HETATM    6  C   UNL     1      -9.011   4.665  71.527  1.00  0.00    -0.165 C  
HETATM    7  C   UNL     1     -10.130   4.638  70.787  1.00  0.00    -0.264 C  
BRANCH   7   8
HETATM    8  C   UNL     1     -10.215   5.110  69.365  1.00  0.00    -0.293 C  
BRANCH   8   9
HETATM    9  C   UNL     1     -11.093   6.319  69.231  1.00  0.00    -0.461 C  
HETATM   10  C   UNL     1     -10.638   7.558  68.988  1.00  0.00    -0.190 C  
BRANCH  10  11
HETATM   11  C   UNL     1      -9.178   7.867  68.854  1.00  0.00    -0.144 C  
BRANCH  11  12
HETATM   12  C   UNL     1      -8.787   9.194  69.485  1.00  0.00    -0.149 C  
BRANCH  12  13
HETATM   13  C   UNL     1      -9.952  10.176  69.377  1.00  0.00    -0.247 C  
BRANCH  13  14
HETATM   14  C   UNL     1      -9.767  11.095  68.179  1.00  0.00    -0.186 C  
BRANCH  14  15
HETATM   15  C   UNL     1     -10.949  11.000  67.218  1.00  0.00    -0.356 C  
BRANCH  15  16
HETATM   16  C   UNL     1     -11.937  12.132  67.484  1.00  0.00    -0.175 C  
BRANCH  16  17
HETATM   17  C   UNL     1     -11.580  13.390  66.699  1.00  0.00    -0.399 C  
HETATM   18  C   UNL     1     -12.381  13.489  65.424  1.00  0.00    -0.478 C  
HETATM   19  O   UNL     1     -13.214  12.684  65.040  1.00  0.00    -0.753 OA 
HETATM   20  O   UNL     1     -12.073  14.600  64.712  1.00  0.00    -0.421 OA 
ENDBRANCH  16  17
ENDBRANCH  15  16
ENDBRANCH  14  15
ENDBRANCH  13  14
ENDBRANCH  12  13
ENDBRANCH  11  12
ENDBRANCH  10  11
ENDBRANCH   8   9
ENDBRANCH   7   8
ENDBRANCH   5   6
ENDBRANCH   4   5
ENDBRANCH   3   4
ENDBRANCH   2   3
TORSDOF 13
ENDMDL
MODEL      244
REMARK 921   NORMALIZED FREE ENERGY PREDICTED BY IDOCK:   -3.50 KCAL/MOL
REMARK 922        TOTAL FREE ENERGY PREDICTED BY IDOCK:   -7.91 KCAL/MOL
REMARK 923 INTER-LIGAND FREE ENERGY PREDICTED BY IDOCK:   -5.89 KCAL/MOL
REMARK 924 INTRA-LIGAND FREE ENERGY PREDICTED BY IDOCK:   -2.02 KCAL/MOL
REMARK 927      BINDING AFFINITY PREDICTED BY RF-SCORE:    0.00 PKD
ROOT
HETATM    1  C   UNL     1     -10.725   6.823  67.725  1.00  0.00    -0.334 C  
HETATM    2  C   UNL     1      -9.984   7.822  66.855  1.00  0.00    -0.331 C  
ENDROOT
BRANCH   2   3
HETATM    3  C   UNL     1     -10.517   9.234  67.062  1.00  0.00    -0.303 C  
BRANCH   3   4
HETATM    4  C   UNL     1      -9.377  10.247  67.152  1.00  0.00    -0.175 C  
BRANCH   4   5
HETATM    5  C   UNL     1      -9.251  10.752  68.582  1.00  0.00    -0.184 C  
BRANCH   5   6
HETATM    6  C   UNL     1      -7.894  10.523  69.177  1.00  0.00    -0.138 C  
HETATM    7  C   UNL     1      -7.698   9.734  70.245  1.00  0.00    -0.187 C  
BRANCH   7   8
HETATM    8  C   UNL     1      -8.792   9.018  70.981  1.00  0.00    -0.291 C  
BRANCH   8   9
HETATM    9  C   UNL     1      -8.783   7.545  70.699  1.00  0.00    -0.141 C  
HETATM   10  C   UNL     1      -8.973   6.598  71.631  1.00  0.00    -0.141 C  
BRANCH  10  11
HETATM   11  C   UNL     1      -9.186   6.924  73.078  1.00  0.00    -0.153 C  
BRANCH  11  12
HETATM   12  C   UNL     1     -10.651   6.904  73.486  1.00  0.00    -0.378 C  
BRANCH  12  13
HETATM   13  C   UNL     1     -11.472   6.195  72.412  1.00  0.00    -0.349 C  
BRANCH  13  14
HETATM   14  C   UNL     1     -12.506   7.140  71.818  1.00  0.00    -0.385 C  
BRANCH  14  15
HETATM   15  C   UNL     1     -12.403   8.533  72.433  1.00  0.00    -0.424 C  
BRANCH  15  16
HETATM   16  C   UNL     1     -13.491   9.441  71.867  1.00  0.00    -0.500 C  
BRANCH  16  17
HETATM   17  C   UNL     1     -13.088  10.910  71.928  1.00  0.00    -0.537 C  
HETATM   18  C   UNL     1     -12.609  11.406  70.586  1.00  0.00    -0.271 C  
HETATM   19  O   UNL     1     -12.540  10.744  69.564  1.00  0.00    -0.293 OA 
HETATM   20  O   UNL     1     -12.243  12.711  70.623  1.00  0.00    -0.374 OA 
ENDBRANCH  16  17
ENDBRANCH  15  16
ENDBRANCH  14  15
ENDBRANCH  13  14
ENDBRANCH  12  13
ENDBRANCH  11  12
ENDBRANCH  10  11
ENDBRANCH   8   9
ENDBRANCH   7   8
ENDBRANCH   5   6
ENDBRANCH   4   5
ENDBRANCH   3   4
ENDBRANCH   2   3
TORSDOF 13
ENDMDL
MODEL      245
REMARK 921   NORMALIZED FREE ENERGY PREDICTED BY IDOCK:   -3.50 KCAL/MOL
REMARK 922        TOTAL FREE ENERGY PREDICTED BY IDOCK:   -7.91 KCAL/MOL
REMARK 923 INTER-LIGAND FREE ENERGY PREDICTED BY IDOCK:   -6.49 KCAL/MOL
REMARK 924 INTRA-LIGAND FREE ENERGY PREDICTED BY IDOCK:   -1.42 KCAL/MOL
REMARK 927      BINDING AFFINITY PREDICTED BY RF-SCORE:    0.00 PKD
ROOT
HETATM    1  C   UNL     1     -11.592  15.693  72.464  1.00  0.00    -0.507 C  
HETATM    2  C   UNL     1     -11.947  16.024  71.025  1.00  0.00    -0.407 C  
ENDROOT
BRANCH   2   3
HETATM    3  C   UNL     1     -11.113  15.201  70.050  1.00  0.00    -0.297 C  
BRANCH   3   4
HETATM    4  C   UNL     1     -11.972  14.164  69.329  1.00  0.00    -0.382 C  
BRANCH   4   5
HETATM    5  C   UNL     1     -11.884  12.829  70.058  1.00  0.00    -0.352 C  
BRANCH   5   6
HETATM    6  C   UNL     1     -12.023  11.645  69.150  1.00  0.00    -0.378 C  
HETATM    7  C   UNL     1     -11.774  10.390  69.558  1.00  0.00    -0.259 C  
BRANCH   7   8
HETATM    8  C   UNL     1     -11.310  10.025  70.937  1.00  0.00    -0.439 C  
BRANCH   8   9
HETATM    9  C   UNL     1     -12.392   9.358  71.732  1.00  0.00    -0.471 C  
HETATM   10  C   UNL     1     -12.310   8.110  72.218  1.00  0.00    -0.371 C  
BRANCH  10  11
HETATM   11  C   UNL     1     -11.117   7.232  71.986  1.00  0.00    -0.277 C  
BRANCH  11  12
HETATM   12  C   UNL     1     -11.406   6.065  71.056  1.00  0.00    -0.299 C  
BRANCH  12  13
HETATM   13  C   UNL     1     -10.091   5.474  70.552  1.00  0.00    -0.293 C  
BRANCH  13  14
HETATM   14  C   UNL     1     -10.063   5.451  69.031  1.00  0.00    -0.283 C  
BRANCH  14  15
HETATM   15  C   UNL     1     -10.936   6.555  68.442  1.00  0.00    -0.358 C  
BRANCH  15  16
HETATM   16  C   UNL     1     -10.081   7.767  68.082  1.00  0.00    -0.220 C  
BRANCH  16  17
HETATM   17  C   UNL     1      -9.649   7.738  66.620  1.00  0.00    -0.286 C  
HETATM   18  C   UNL     1      -9.670   9.119  66.012  1.00  0.00    -0.287 C  
HETATM   19  O   UNL     1      -9.987  10.147  66.587  1.00  0.00    -0.197 OA 
HETATM   20  O   UNL     1      -9.291   9.111  64.711  1.00  0.00    -0.124 OA 
ENDBRANCH  16  17
ENDBRANCH  15  16
ENDBRANCH  14  15
ENDBRANCH  13  14
ENDBRANCH  12  13
ENDBRANCH  11  12
ENDBRANCH  10  11
ENDBRANCH   8   9
ENDBRANCH   7   8
ENDBRANCH   5   6
ENDBRANCH   4   5
ENDBRANCH   3   4
ENDBRANCH   2   3
TORSDOF 13
ENDMDL
MODEL      246
REMARK 921   NORMALIZED FREE ENERGY PREDICTED BY IDOCK:   -3.49 KCAL/MOL
REMARK 922        TOTAL FREE ENERGY PREDICTED BY IDOCK:   -7.90 KCAL/MOL
REMARK 923 INTER-LIGAND FREE ENERGY PREDICTED BY IDOCK:   -5.41 KCAL/MOL
REMARK 924 INTRA-LIGAND FREE ENERGY PREDICTED BY IDOCK:   -2.49 KCAL/MOL
REMARK 927      BINDING AFFINITY PREDICTED BY RF-SCORE:    0.00 PKD
ROOT
HETATM    1  C   UNL     1      -8.656   8.753  69.696  1.00  0.00    -0.130 C  
HETATM    2  C   UNL     1      -9.431  10.005  69.328  1.00  0.00    -0.227 C  
ENDROOT
BRANCH   2   3
HETATM    3  C   UNL     1     -10.765   9.655  68.680  1.00  0.00    -0.233 C  
BRANCH   3   4
HETATM    4  C   UNL     1     -11.861  10.626  69.113  1.00  0.00    -0.287 C  
BRANCH   4   5
HETATM    5  C   UNL     1     -11.749  10.891  70.609  1.00  0.00    -0.418 C  
BRANCH   5   6
HETATM    6  C   UNL     1     -12.913  10.369  71.395  1.00  0.00    -0.545 C  
HETATM    7  C   UNL     1     -12.879   9.192  72.039  1.00  0.00    -0.483 C  
BRANCH   7   8
HETATM    8  C   UNL     1     -11.706   8.257  72.032  1.00  0.00    -0.407 C  
BRANCH   8   9
HETATM    9  C   UNL     1     -12.124   6.838  71.787  1.00  0.00    -0.393 C  
HETATM   10  C   UNL     1     -11.666   5.786  72.483  1.00  0.00    -0.280 C  
BRANCH  10  11
HETATM   11  C   UNL     1     -10.649   5.925  73.575  1.00  0.00    -0.289 C  
BRANCH  11  12
HETATM   12  C   UNL     1      -9.387   5.116  73.324  1.00  0.00    -0.139 C  
BRANCH  12  13
HETATM   13  C   UNL     1      -9.743   3.825  72.591  1.00  0.00    -0.200 C  
BRANCH  13  14
HETATM   14  C   UNL     1      -8.799   3.597  71.420  1.00  0.00    -0.143 C  
BRANCH  14  15
HETATM   15  C   UNL     1      -9.511   3.799  70.085  1.00  0.00    -0.259 C  
BRANCH  15  16
HETATM   16  C   UNL     1      -9.415   5.258  69.650  1.00  0.00    -0.196 C  
BRANCH  16  17
HETATM   17  C   UNL     1     -10.602   5.670  68.787  1.00  0.00    -0.286 C  
HETATM   18  C   UNL     1     -10.151   6.245  67.467  1.00  0.00    -0.154 C  
HETATM   19  O   UNL     1      -8.993   6.377  67.105  1.00  0.00    -0.109 OA 
HETATM   20  O   UNL     1     -11.194   6.619  66.688  1.00  0.00    -0.231 OA 
ENDBRANCH  16  17
ENDBRANCH  15  16
ENDBRANCH  14  15
ENDBRANCH  13  14
ENDBRANCH  12  13
ENDBRANCH  11  12
ENDBRANCH  10  11
ENDBRANCH   8   9
ENDBRANCH   7   8
ENDBRANCH   5   6
ENDBRANCH   4   5
ENDBRANCH   3   4
ENDBRANCH   2   3
TORSDOF 13
ENDMDL
MODEL      247
REMARK 921   NORMALIZED FREE ENERGY PREDICTED BY IDOCK:   -3.49 KCAL/MOL
REMARK 922        TOTAL FREE ENERGY PREDICTED BY IDOCK:   -7.90 KCAL/MOL
REMARK 923 INTER-LIGAND FREE ENERGY PREDICTED BY IDOCK:   -5.82 KCAL/MOL
REMARK 924 INTRA-LIGAND FREE ENERGY PREDICTED BY IDOCK:   -2.07 KCAL/MOL
REMARK 927      BINDING AFFINITY PREDICTED BY RF-SCORE:    0.00 PKD
ROOT
HETATM    1  C   UNL     1      -8.118  10.567  68.018  1.00  0.00    -0.111 C  
HETATM    2  C   UNL     1      -9.274  10.298  67.072  1.00  0.00    -0.169 C  
ENDROOT
BRANCH   2   3
HETATM    3  C   UNL     1     -10.114  11.551  66.859  1.00  0.00    -0.241 C  
BRANCH   3   4
HETATM    4  C   UNL     1     -11.290  11.599  67.832  1.00  0.00    -0.369 C  
BRANCH   4   5
HETATM    5  C   UNL     1     -11.020  12.636  68.913  1.00  0.00    -0.273 C  
BRANCH   5   6
HETATM    6  C   UNL     1     -11.866  13.867  68.783  1.00  0.00    -0.396 C  
HETATM    7  C   UNL     1     -12.342  14.532  69.848  1.00  0.00    -0.347 C  
BRANCH   7   8
HETATM    8  C   UNL     1     -12.115  14.120  71.272  1.00  0.00    -0.363 C  
BRANCH   8   9
HETATM    9  C   UNL     1     -13.363  13.576  71.901  1.00  0.00    -0.529 C  
HETATM   10  C   UNL     1     -13.624  12.267  72.048  1.00  0.00    -0.306 C  
BRANCH  10  11
HETATM   11  C   UNL     1     -12.690  11.201  71.562  1.00  0.00    -0.499 C  
BRANCH  11  12
HETATM   12  C   UNL     1     -13.338   9.827  71.487  1.00  0.00    -0.468 C  
BRANCH  12  13
HETATM   13  C   UNL     1     -12.261   8.764  71.284  1.00  0.00    -0.332 C  
BRANCH  13  14
HETATM   14  C   UNL     1     -10.875   9.391  71.329  1.00  0.00    -0.431 C  
BRANCH  14  15
HETATM   15  C   UNL     1      -9.883   8.609  70.474  1.00  0.00    -0.210 C  
BRANCH  15  16
HETATM   16  C   UNL     1     -10.545   7.355  69.911  1.00  0.00    -0.245 C  
BRANCH  16  17
HETATM   17  C   UNL     1     -10.690   7.424  68.395  1.00  0.00    -0.142 C  
HETATM   18  C   UNL     1      -9.578   6.676  67.700  1.00  0.00    -0.124 C  
HETATM   19  O   UNL     1      -8.667   6.081  68.251  1.00  0.00    -0.114 OA 
HETATM   20  O   UNL     1      -9.690   6.730  66.351  1.00  0.00    -0.151 OA 
ENDBRANCH  16  17
ENDBRANCH  15  16
ENDBRANCH  14  15
ENDBRANCH  13  14
ENDBRANCH  12  13
ENDBRANCH  11  12
ENDBRANCH  10  11
ENDBRANCH   8   9
ENDBRANCH   7   8
ENDBRANCH   5   6
ENDBRANCH   4   5
ENDBRANCH   3   4
ENDBRANCH   2   3
TORSDOF 13
ENDMDL
MODEL      248
REMARK 921   NORMALIZED FREE ENERGY PREDICTED BY IDOCK:   -3.49 KCAL/MOL
REMARK 922        TOTAL FREE ENERGY PREDICTED BY IDOCK:   -7.89 KCAL/MOL
REMARK 923 INTER-LIGAND FREE ENERGY PREDICTED BY IDOCK:   -5.87 KCAL/MOL
REMARK 924 INTRA-LIGAND FREE ENERGY PREDICTED BY IDOCK:   -2.02 KCAL/MOL
REMARK 927      BINDING AFFINITY PREDICTED BY RF-SCORE:    0.00 PKD
ROOT
HETATM    1  C   UNL     1     -10.243  19.631  68.608  1.00  0.00    -0.498 C  
HETATM    2  C   UNL     1     -10.720  19.357  67.192  1.00  0.00    -0.593 C  
ENDROOT
BRANCH   2   3
HETATM    3  C   UNL     1      -9.697  19.829  66.167  1.00  0.00    -0.510 C  
BRANCH   3   4
HETATM    4  C   UNL     1      -8.308  19.952  66.790  1.00  0.00    -0.364 C  
BRANCH   4   5
HETATM    5  C   UNL     1      -7.510  18.683  66.518  1.00  0.00    -0.267 C  
BRANCH   5   6
HETATM    6  C   UNL     1      -6.574  18.319  67.630  1.00  0.00    -0.201 C  
HETATM    7  C   UNL     1      -6.888  17.415  68.571  1.00  0.00    -0.203 C  
BRANCH   7   8
HETATM    8  C   UNL     1      -8.199  16.690  68.643  1.00  0.00    -0.245 C  
BRANCH   8   9
HETATM    9  C   UNL     1      -8.124  15.487  69.536  1.00  0.00    -0.202 C  
HETATM   10  C   UNL     1      -7.897  14.238  69.101  1.00  0.00     0.018 C  
BRANCH  10  11
HETATM   11  C   UNL     1      -7.721  13.911  67.649  1.00  0.00    -0.193 C  
BRANCH  11  12
HETATM   12  C   UNL     1      -7.730  12.417  67.367  1.00  0.00    -0.170 C  
BRANCH  12  13
HETATM   13  C   UNL     1      -9.054  11.815  67.831  1.00  0.00    -0.181 C  
BRANCH  13  14
HETATM   14  C   UNL     1     -10.136  12.033  66.783  1.00  0.00    -0.223 C  
BRANCH  14  15
HETATM   15  C   UNL     1     -11.505  12.224  67.430  1.00  0.00    -0.422 C  
BRANCH  15  16
HETATM   16  C   UNL     1     -12.168  13.491  66.898  1.00  0.00    -0.377 C  
BRANCH  16  17
HETATM   17  C   UNL     1     -11.261  14.237  65.925  1.00  0.00    -0.319 C  
HETATM   18  C   UNL     1     -10.907  15.609  66.443  1.00  0.00    -0.252 C  
HETATM   19  O   UNL     1     -11.281  16.091  67.499  1.00  0.00    -0.261 OA 
HETATM   20  O   UNL     1     -10.104  16.287  65.588  1.00  0.00    -0.409 OA 
ENDBRANCH  16  17
ENDBRANCH  15  16
ENDBRANCH  14  15
ENDBRANCH  13  14
ENDBRANCH  12  13
ENDBRANCH  11  12
ENDBRANCH  10  11
ENDBRANCH   8   9
ENDBRANCH   7   8
ENDBRANCH   5   6
ENDBRANCH   4   5
ENDBRANCH   3   4
ENDBRANCH   2   3
TORSDOF 13
ENDMDL
MODEL      249
REMARK 921   NORMALIZED FREE ENERGY PREDICTED BY IDOCK:   -3.49 KCAL/MOL
REMARK 922        TOTAL FREE ENERGY PREDICTED BY IDOCK:   -7.89 KCAL/MOL
REMARK 923 INTER-LIGAND FREE ENERGY PREDICTED BY IDOCK:   -6.17 KCAL/MOL
REMARK 924 INTRA-LIGAND FREE ENERGY PREDICTED BY IDOCK:   -1.72 KCAL/MOL
REMARK 927      BINDING AFFINITY PREDICTED BY RF-SCORE:    0.00 PKD
ROOT
HETATM    1  C   UNL     1      -5.980  14.007  70.563  1.00  0.00    -0.177 C  
HETATM    2  C   UNL     1      -6.516  13.806  69.157  1.00  0.00    -0.109 C  
ENDROOT
BRANCH   2   3
HETATM    3  C   UNL     1      -6.412  12.347  68.732  1.00  0.00    -0.084 C  
BRANCH   3   4
HETATM    4  C   UNL     1      -6.297  11.426  69.945  1.00  0.00    -0.141 C  
BRANCH   4   5
HETATM    5  C   UNL     1      -7.080  10.145  69.692  1.00  0.00    -0.115 C  
BRANCH   5   6
HETATM    6  C   UNL     1      -7.007   9.674  68.271  1.00  0.00    -0.073 C  
HETATM    7  C   UNL     1      -8.041   9.082  67.653  1.00  0.00    -0.109 C  
BRANCH   7   8
HETATM    8  C   UNL     1      -9.364   8.798  68.301  1.00  0.00    -0.143 C  
BRANCH   8   9
HETATM    9  C   UNL     1     -10.509   9.312  67.480  1.00  0.00    -0.338 C  
HETATM   10  C   UNL     1     -11.149  10.467  67.717  1.00  0.00    -0.382 C  
BRANCH  10  11
HETATM   11  C   UNL     1     -10.794  11.362  68.866  1.00  0.00    -0.259 C  
BRANCH  11  12
HETATM   12  C   UNL     1     -10.486  12.788  68.440  1.00  0.00    -0.253 C  
BRANCH  12  13
HETATM   13  C   UNL     1     -11.785  13.584  68.334  1.00  0.00    -0.393 C  
BRANCH  13  14
HETATM   14  C   UNL     1     -12.112  13.880  66.877  1.00  0.00    -0.467 C  
BRANCH  14  15
HETATM   15  C   UNL     1     -11.074  14.808  66.252  1.00  0.00    -0.341 C  
BRANCH  15  16
HETATM   16  C   UNL     1     -10.434  14.142  65.038  1.00  0.00    -0.447 C  
BRANCH  16  17
HETATM   17  C   UNL     1     -11.142  12.843  64.668  1.00  0.00    -0.352 C  
HETATM   18  C   UNL     1     -12.276  13.088  63.703  1.00  0.00    -0.491 C  
HETATM   19  O   UNL     1     -12.610  14.173  63.256  1.00  0.00    -0.766 OA 
HETATM   20  O   UNL     1     -12.918  11.943  63.366  1.00  0.00    -0.730 OA 
ENDBRANCH  16  17
ENDBRANCH  15  16
ENDBRANCH  14  15
ENDBRANCH  13  14
ENDBRANCH  12  13
ENDBRANCH  11  12
ENDBRANCH  10  11
ENDBRANCH   8   9
ENDBRANCH   7   8
ENDBRANCH   5   6
ENDBRANCH   4   5
ENDBRANCH   3   4
ENDBRANCH   2   3
TORSDOF 13
ENDMDL
MODEL      250
REMARK 921   NORMALIZED FREE ENERGY PREDICTED BY IDOCK:   -3.49 KCAL/MOL
REMARK 922        TOTAL FREE ENERGY PREDICTED BY IDOCK:   -7.88 KCAL/MOL
REMARK 923 INTER-LIGAND FREE ENERGY PREDICTED BY IDOCK:   -5.81 KCAL/MOL
REMARK 924 INTRA-LIGAND FREE ENERGY PREDICTED BY IDOCK:   -2.07 KCAL/MOL
REMARK 927      BINDING AFFINITY PREDICTED BY RF-SCORE:    0.00 PKD
ROOT
HETATM    1  C   UNL     1      -8.049   8.594  71.564  1.00  0.00    -0.188 C  
HETATM    2  C   UNL     1      -8.547   7.354  72.286  1.00  0.00    -0.135 C  
ENDROOT
BRANCH   2   3
HETATM    3  C   UNL     1      -9.483   7.722  73.430  1.00  0.00    -0.349 C  
BRANCH   3   4
HETATM    4  C   UNL     1     -10.386   6.549  73.804  1.00  0.00    -0.346 C  
BRANCH   4   5
HETATM    5  C   UNL     1     -10.871   5.852  72.540  1.00  0.00    -0.289 C  
BRANCH   5   6
HETATM    6  C   UNL     1     -12.301   6.156  72.204  1.00  0.00    -0.125 C  
HETATM    7  C   UNL     1     -12.649   7.120  71.337  1.00  0.00    -0.432 C  
BRANCH   7   8
HETATM    8  C   UNL     1     -11.674   8.015  70.631  1.00  0.00    -0.158 C  
BRANCH   8   9
HETATM    9  C   UNL     1     -11.828   9.447  71.048  1.00  0.00    -0.396 C  
HETATM   10  C   UNL     1     -11.535  10.497  70.264  1.00  0.00    -0.416 C  
BRANCH  10  11
HETATM   11  C   UNL     1     -10.989  10.338  68.878  1.00  0.00    -0.279 C  
BRANCH  11  12
HETATM   12  C   UNL     1      -9.627  10.988  68.694  1.00  0.00    -0.198 C  
BRANCH  12  13
HETATM   13  C   UNL     1      -9.612  11.786  67.392  1.00  0.00    -0.173 C  
BRANCH  13  14
HETATM   14  C   UNL     1      -9.905  13.254  67.662  1.00  0.00    -0.230 C  
BRANCH  14  15
HETATM   15  C   UNL     1     -11.330  13.620  67.256  1.00  0.00    -0.346 C  
BRANCH  15  16
HETATM   16  C   UNL     1     -12.156  13.971  68.489  1.00  0.00    -0.329 C  
BRANCH  16  17
HETATM   17  C   UNL     1     -11.275  14.411  69.653  1.00  0.00    -0.274 C  
HETATM   18  C   UNL     1     -12.070  15.163  70.693  1.00  0.00    -0.329 C  
HETATM   19  O   UNL     1     -13.265  15.404  70.640  1.00  0.00    -0.416 OA 
HETATM   20  O   UNL     1     -11.301  15.565  71.733  1.00  0.00    -0.404 OA 
ENDBRANCH  16  17
ENDBRANCH  15  16
ENDBRANCH  14  15
ENDBRANCH  13  14
ENDBRANCH  12  13
ENDBRANCH  11  12
ENDBRANCH  10  11
ENDBRANCH   8   9
ENDBRANCH   7   8
ENDBRANCH   5   6
ENDBRANCH   4   5
ENDBRANCH   3   4
ENDBRANCH   2   3
TORSDOF 13
ENDMDL
MODEL      251
REMARK 921   NORMALIZED FREE ENERGY PREDICTED BY IDOCK:   -3.49 KCAL/MOL
REMARK 922        TOTAL FREE ENERGY PREDICTED BY IDOCK:   -7.88 KCAL/MOL
REMARK 923 INTER-LIGAND FREE ENERGY PREDICTED BY IDOCK:   -6.84 KCAL/MOL
REMARK 924 INTRA-LIGAND FREE ENERGY PREDICTED BY IDOCK:   -1.05 KCAL/MOL
REMARK 927      BINDING AFFINITY PREDICTED BY RF-SCORE:    0.00 PKD
ROOT
HETATM    1  C   UNL     1     -10.892   2.134  73.393  1.00  0.00    -0.273 C  
HETATM    2  C   UNL     1     -10.313   3.497  73.059  1.00  0.00    -0.245 C  
ENDROOT
BRANCH   2   3
HETATM    3  C   UNL     1     -11.226   4.616  73.544  1.00  0.00    -0.400 C  
BRANCH   3   4
HETATM    4  C   UNL     1     -11.719   5.471  72.378  1.00  0.00    -0.182 C  
BRANCH   4   5
HETATM    5  C   UNL     1     -10.678   5.472  71.267  1.00  0.00    -0.288 C  
BRANCH   5   6
HETATM    6  C   UNL     1     -11.150   6.137  70.009  1.00  0.00    -0.462 C  
HETATM    7  C   UNL     1     -11.174   7.472  69.864  1.00  0.00    -0.124 C  
BRANCH   7   8
HETATM    8  C   UNL     1     -10.766   8.446  70.930  1.00  0.00    -0.260 C  
BRANCH   8   9
HETATM    9  C   UNL     1     -11.923   9.278  71.398  1.00  0.00    -0.424 C  
HETATM   10  C   UNL     1     -12.209  10.502  70.929  1.00  0.00    -0.490 C  
BRANCH  10  11
HETATM   11  C   UNL     1     -11.369  11.185  69.893  1.00  0.00    -0.348 C  
BRANCH  11  12
HETATM   12  C   UNL     1     -11.980  11.139  68.502  1.00  0.00    -0.250 C  
BRANCH  12  13
HETATM   13  C   UNL     1     -11.696  12.451  67.774  1.00  0.00    -0.413 C  
BRANCH  13  14
HETATM   14  C   UNL     1     -11.721  13.618  68.749  1.00  0.00    -0.383 C  
BRANCH  14  15
HETATM   15  C   UNL     1     -11.735  14.956  68.014  1.00  0.00    -0.344 C  
BRANCH  15  16
HETATM   16  C   UNL     1     -11.069  14.815  66.649  1.00  0.00    -0.333 C  
BRANCH  16  17
HETATM   17  C   UNL     1      -9.630  15.320  66.668  1.00  0.00    -0.276 C  
HETATM   18  C   UNL     1      -9.514  16.675  66.013  1.00  0.00    -0.251 C  
HETATM   19  O   UNL     1     -10.432  17.311  65.523  1.00  0.00    -0.609 OA 
HETATM   20  O   UNL     1      -8.240  17.138  66.018  1.00  0.00    -0.480 OA 
ENDBRANCH  16  17
ENDBRANCH  15  16
ENDBRANCH  14  15
ENDBRANCH  13  14
ENDBRANCH  12  13
ENDBRANCH  11  12
ENDBRANCH  10  11
ENDBRANCH   8   9
ENDBRANCH   7   8
ENDBRANCH   5   6
ENDBRANCH   4   5
ENDBRANCH   3   4
ENDBRANCH   2   3
TORSDOF 13
ENDMDL
MODEL      252
REMARK 921   NORMALIZED FREE ENERGY PREDICTED BY IDOCK:   -3.49 KCAL/MOL
REMARK 922        TOTAL FREE ENERGY PREDICTED BY IDOCK:   -7.88 KCAL/MOL
REMARK 923 INTER-LIGAND FREE ENERGY PREDICTED BY IDOCK:   -6.41 KCAL/MOL
REMARK 924 INTRA-LIGAND FREE ENERGY PREDICTED BY IDOCK:   -1.47 KCAL/MOL
REMARK 927      BINDING AFFINITY PREDICTED BY RF-SCORE:    0.00 PKD
ROOT
HETATM    1  C   UNL     1     -10.438   8.266  72.523  1.00  0.00    -0.406 C  
HETATM    2  C   UNL     1     -11.598   8.618  71.609  1.00  0.00    -0.379 C  
ENDROOT
BRANCH   2   3
HETATM    3  C   UNL     1     -12.456   7.395  71.314  1.00  0.00    -0.381 C  
BRANCH   3   4
HETATM    4  C   UNL     1     -11.591   6.161  71.065  1.00  0.00    -0.260 C  
BRANCH   4   5
HETATM    5  C   UNL     1     -11.146   6.132  69.609  1.00  0.00    -0.489 C  
BRANCH   5   6
HETATM    6  C   UNL     1      -9.666   5.961  69.442  1.00  0.00    -0.191 C  
HETATM    7  C   UNL     1      -8.847   6.989  69.170  1.00  0.00    -0.135 C  
BRANCH   7   8
HETATM    8  C   UNL     1      -9.303   8.405  68.975  1.00  0.00    -0.147 C  
BRANCH   8   9
HETATM    9  C   UNL     1      -9.936   8.607  67.631  1.00  0.00    -0.248 C  
HETATM   10  C   UNL     1     -10.435   9.777  67.200  1.00  0.00    -0.316 C  
BRANCH  10  11
HETATM   11  C   UNL     1     -10.434  11.013  68.047  1.00  0.00    -0.219 C  
BRANCH  11  12
HETATM   12  C   UNL     1     -11.772  11.281  68.716  1.00  0.00    -0.405 C  
BRANCH  12  13
HETATM   13  C   UNL     1     -11.824  12.730  69.194  1.00  0.00    -0.352 C  
BRANCH  13  14
HETATM   14  C   UNL     1     -10.631  13.511  68.665  1.00  0.00    -0.259 C  
BRANCH  14  15
HETATM   15  C   UNL     1     -11.027  14.929  68.264  1.00  0.00    -0.268 C  
BRANCH  15  16
HETATM   16  C   UNL     1      -9.817  15.680  67.716  1.00  0.00    -0.220 C  
BRANCH  16  17
HETATM   17  C   UNL     1     -10.183  17.093  67.273  1.00  0.00    -0.316 C  
HETATM   18  C   UNL     1     -10.433  17.156  65.786  1.00  0.00    -0.233 C  
HETATM   19  O   UNL     1     -10.361  16.218  65.010  1.00  0.00    -0.593 OA 
HETATM   20  O   UNL     1     -10.756  18.406  65.374  1.00  0.00    -0.594 OA 
ENDBRANCH  16  17
ENDBRANCH  15  16
ENDBRANCH  14  15
ENDBRANCH  13  14
ENDBRANCH  12  13
ENDBRANCH  11  12
ENDBRANCH  10  11
ENDBRANCH   8   9
ENDBRANCH   7   8
ENDBRANCH   5   6
ENDBRANCH   4   5
ENDBRANCH   3   4
ENDBRANCH   2   3
TORSDOF 13
ENDMDL
MODEL      253
REMARK 921   NORMALIZED FREE ENERGY PREDICTED BY IDOCK:   -3.48 KCAL/MOL
REMARK 922        TOTAL FREE ENERGY PREDICTED BY IDOCK:   -7.87 KCAL/MOL
REMARK 923 INTER-LIGAND FREE ENERGY PREDICTED BY IDOCK:   -5.98 KCAL/MOL
REMARK 924 INTRA-LIGAND FREE ENERGY PREDICTED BY IDOCK:   -1.89 KCAL/MOL
REMARK 927      BINDING AFFINITY PREDICTED BY RF-SCORE:    0.00 PKD
ROOT
HETATM    1  C   UNL     1      -9.429   7.287  66.346  1.00  0.00    -0.185 C  
HETATM    2  C   UNL     1     -10.765   7.359  67.064  1.00  0.00    -0.389 C  
ENDROOT
BRANCH   2   3
HETATM    3  C   UNL     1     -11.058   6.064  67.810  1.00  0.00    -0.216 C  
BRANCH   3   4
HETATM    4  C   UNL     1     -11.374   6.332  69.280  1.00  0.00    -0.411 C  
BRANCH   4   5
HETATM    5  C   UNL     1     -10.299   5.706  70.158  1.00  0.00    -0.341 C  
BRANCH   5   6
HETATM    6  C   UNL     1      -9.352   4.824  69.402  1.00  0.00    -0.197 C  
HETATM    7  C   UNL     1      -8.084   5.180  69.143  1.00  0.00    -0.084 C  
BRANCH   7   8
HETATM    8  C   UNL     1      -7.474   6.491  69.546  1.00  0.00    -0.093 C  
BRANCH   8   9
HETATM    9  C   UNL     1      -7.121   6.517  71.003  1.00  0.00    -0.069 C  
HETATM   10  C   UNL     1      -7.318   7.573  71.807  1.00  0.00    -0.071 C  
BRANCH  10  11
HETATM   11  C   UNL     1      -7.895   8.865  71.313  1.00  0.00    -0.163 C  
BRANCH  11  12
HETATM   12  C   UNL     1      -9.414   8.897  71.356  1.00  0.00    -0.344 C  
BRANCH  12  13
HETATM   13  C   UNL     1      -9.947   9.594  70.107  1.00  0.00    -0.309 C  
BRANCH  13  14
HETATM   14  C   UNL     1     -11.434   9.886  70.251  1.00  0.00    -0.349 C  
BRANCH  14  15
HETATM   15  C   UNL     1     -11.757  11.327  69.866  1.00  0.00    -0.430 C  
BRANCH  15  16
HETATM   16  C   UNL     1     -12.292  12.089  71.075  1.00  0.00    -0.340 C  
BRANCH  16  17
HETATM   17  C   UNL     1     -12.442  13.578  70.782  1.00  0.00    -0.428 C  
HETATM   18  C   UNL     1     -13.259  14.269  71.846  1.00  0.00    -0.375 C  
HETATM   19  O   UNL     1     -13.751  13.735  72.826  1.00  0.00    -0.699 OA 
HETATM   20  O   UNL     1     -13.405  15.593  71.600  1.00  0.00    -0.485 OA 
ENDBRANCH  16  17
ENDBRANCH  15  16
ENDBRANCH  14  15
ENDBRANCH  13  14
ENDBRANCH  12  13
ENDBRANCH  11  12
ENDBRANCH  10  11
ENDBRANCH   8   9
ENDBRANCH   7   8
ENDBRANCH   5   6
ENDBRANCH   4   5
ENDBRANCH   3   4
ENDBRANCH   2   3
TORSDOF 13
ENDMDL
MODEL      254
REMARK 921   NORMALIZED FREE ENERGY PREDICTED BY IDOCK:   -3.47 KCAL/MOL
REMARK 922        TOTAL FREE ENERGY PREDICTED BY IDOCK:   -7.86 KCAL/MOL
REMARK 923 INTER-LIGAND FREE ENERGY PREDICTED BY IDOCK:   -6.19 KCAL/MOL
REMARK 924 INTRA-LIGAND FREE ENERGY PREDICTED BY IDOCK:   -1.66 KCAL/MOL
REMARK 927      BINDING AFFINITY PREDICTED BY RF-SCORE:    0.00 PKD
ROOT
HETATM    1  C   UNL     1      -7.410  16.782  69.052  1.00  0.00    -0.231 C  
HETATM    2  C   UNL     1      -6.386  17.871  69.316  1.00  0.00    -0.244 C  
ENDROOT
BRANCH   2   3
HETATM    3  C   UNL     1      -5.952  18.544  68.020  1.00  0.00    -0.188 C  
BRANCH   3   4
HETATM    4  C   UNL     1      -6.545  17.833  66.805  1.00  0.00    -0.220 C  
BRANCH   4   5
HETATM    5  C   UNL     1      -7.180  18.856  65.872  1.00  0.00    -0.277 C  
BRANCH   5   6
HETATM    6  C   UNL     1      -7.564  20.131  66.561  1.00  0.00    -0.316 C  
HETATM    7  C   UNL     1      -8.721  20.272  67.226  1.00  0.00    -0.441 C  
BRANCH   7   8
HETATM    8  C   UNL     1      -9.767  19.202  67.340  1.00  0.00    -0.389 C  
BRANCH   8   9
HETATM    9  C   UNL     1     -10.569  19.070  66.079  1.00  0.00    -0.499 C  
HETATM   10  C   UNL     1     -10.794  17.907  65.447  1.00  0.00     0.202 C  
BRANCH  10  11
HETATM   11  C   UNL     1     -10.231  16.605  65.933  1.00  0.00    -0.358 C  
BRANCH  11  12
HETATM   12  C   UNL     1     -10.765  15.402  65.172  1.00  0.00    -0.460 C  
BRANCH  12  13
HETATM   13  C   UNL     1     -11.833  14.700  66.007  1.00  0.00    -0.280 C  
BRANCH  13  14
HETATM   14  C   UNL     1     -11.260  14.258  67.346  1.00  0.00    -0.330 C  
BRANCH  14  15
HETATM   15  C   UNL     1     -10.502  12.940  67.218  1.00  0.00    -0.236 C  
BRANCH  15  16
HETATM   16  C   UNL     1     -11.102  12.093  66.100  1.00  0.00    -0.354 C  
BRANCH  16  17
HETATM   17  C   UNL     1     -10.050  11.684  65.075  1.00  0.00    -0.305 C  
HETATM   18  C   UNL     1     -10.500  11.995  63.668  1.00  0.00    -0.454 C  
HETATM   19  O   UNL     1     -11.563  12.508  63.357  1.00  0.00    -0.476 OA 
HETATM   20  O   UNL     1      -9.577  11.635  62.744  1.00  0.00    -0.339 OA 
ENDBRANCH  16  17
ENDBRANCH  15  16
ENDBRANCH  14  15
ENDBRANCH  13  14
ENDBRANCH  12  13
ENDBRANCH  11  12
ENDBRANCH  10  11
ENDBRANCH   8   9
ENDBRANCH   7   8
ENDBRANCH   5   6
ENDBRANCH   4   5
ENDBRANCH   3   4
ENDBRANCH   2   3
TORSDOF 13
ENDMDL
MODEL      255
REMARK 921   NORMALIZED FREE ENERGY PREDICTED BY IDOCK:   -3.47 KCAL/MOL
REMARK 922        TOTAL FREE ENERGY PREDICTED BY IDOCK:   -7.85 KCAL/MOL
REMARK 923 INTER-LIGAND FREE ENERGY PREDICTED BY IDOCK:   -5.46 KCAL/MOL
REMARK 924 INTRA-LIGAND FREE ENERGY PREDICTED BY IDOCK:   -2.39 KCAL/MOL
REMARK 927      BINDING AFFINITY PREDICTED BY RF-SCORE:    0.00 PKD
ROOT
HETATM    1  C   UNL     1      -9.916   8.252  67.097  1.00  0.00    -0.307 C  
HETATM    2  C   UNL     1     -10.888   7.088  67.020  1.00  0.00    -0.413 C  
ENDROOT
BRANCH   2   3
HETATM    3  C   UNL     1     -10.184   5.813  66.574  1.00  0.00    -0.241 C  
BRANCH   3   4
HETATM    4  C   UNL     1     -10.399   4.683  67.578  1.00  0.00     0.007 C  
BRANCH   4   5
HETATM    5  C   UNL     1      -9.088   3.943  67.806  1.00  0.00    -0.183 C  
BRANCH   5   6
HETATM    6  C   UNL     1      -9.275   2.539  68.297  1.00  0.00    -0.255 C  
HETATM    7  C   UNL     1      -9.065   2.187  69.575  1.00  0.00    -0.172 C  
BRANCH   7   8
HETATM    8  C   UNL     1      -8.601   3.129  70.646  1.00  0.00    -0.117 C  
BRANCH   8   9
HETATM    9  C   UNL     1      -9.735   3.592  71.512  1.00  0.00    -0.237 C  
HETATM   10  C   UNL     1     -10.156   4.864  71.585  1.00  0.00    -0.266 C  
BRANCH  10  11
HETATM   11  C   UNL     1      -9.504   5.974  70.818  1.00  0.00    -0.189 C  
BRANCH  11  12
HETATM   12  C   UNL     1     -10.384   7.205  70.682  1.00  0.00    -0.217 C  
BRANCH  12  13
HETATM   13  C   UNL     1     -11.850   6.783  70.617  1.00  0.00    -0.442 C  
BRANCH  13  14
HETATM   14  C   UNL     1     -12.738   7.833  71.269  1.00  0.00    -0.277 C  
BRANCH  14  15
HETATM   15  C   UNL     1     -11.910   8.890  71.993  1.00  0.00    -0.438 C  
BRANCH  15  16
HETATM   16  C   UNL     1     -12.444  10.285  71.680  1.00  0.00    -0.491 C  
BRANCH  16  17
HETATM   17  C   UNL     1     -12.859  10.415  70.219  1.00  0.00    -0.167 C  
HETATM   18  C   UNL     1     -11.680  10.751  69.338  1.00  0.00    -0.306 C  
HETATM   19  O   UNL     1     -10.530  10.904  69.715  1.00  0.00    -0.160 OA 
HETATM   20  O   UNL     1     -12.033  10.874  68.036  1.00  0.00    -0.586 OA 
ENDBRANCH  16  17
ENDBRANCH  15  16
ENDBRANCH  14  15
ENDBRANCH  13  14
ENDBRANCH  12  13
ENDBRANCH  11  12
ENDBRANCH  10  11
ENDBRANCH   8   9
ENDBRANCH   7   8
ENDBRANCH   5   6
ENDBRANCH   4   5
ENDBRANCH   3   4
ENDBRANCH   2   3
TORSDOF 13
ENDMDL
MODEL      256
REMARK 921   NORMALIZED FREE ENERGY PREDICTED BY IDOCK:   -3.45 KCAL/MOL
REMARK 922        TOTAL FREE ENERGY PREDICTED BY IDOCK:   -7.82 KCAL/MOL
REMARK 923 INTER-LIGAND FREE ENERGY PREDICTED BY IDOCK:   -5.81 KCAL/MOL
REMARK 924 INTRA-LIGAND FREE ENERGY PREDICTED BY IDOCK:   -2.01 KCAL/MOL
REMARK 927      BINDING AFFINITY PREDICTED BY RF-SCORE:    0.00 PKD
ROOT
HETATM    1  C   UNL     1      -5.553  11.671  67.323  1.00  0.00    -0.104 C  
HETATM    2  C   UNL     1      -5.555  10.626  66.221  1.00  0.00    -0.089 C  
ENDROOT
BRANCH   2   3
HETATM    3  C   UNL     1      -6.921  10.539  65.551  1.00  0.00    -0.100 C  
BRANCH   3   4
HETATM    4  C   UNL     1      -7.076   9.227  64.785  1.00  0.00    -0.095 C  
BRANCH   4   5
HETATM    5  C   UNL     1      -8.433   9.194  64.094  1.00  0.00    -0.198 C  
BRANCH   5   6
HETATM    6  C   UNL     1      -8.484  10.016  62.842  1.00  0.00    -0.176 C  
HETATM    7  C   UNL     1      -9.232  11.125  62.737  1.00  0.00    -0.374 C  
BRANCH   7   8
HETATM    8  C   UNL     1     -10.116  11.656  63.827  1.00  0.00    -0.416 C  
BRANCH   8   9
HETATM    9  C   UNL     1     -11.557  11.682  63.414  1.00  0.00    -0.340 C  
HETATM   10  C   UNL     1     -12.388  12.712  63.638  1.00  0.00    -0.584 C  
BRANCH  10  11
HETATM   11  C   UNL     1     -11.955  13.951  64.363  1.00  0.00    -0.480 C  
BRANCH  11  12
HETATM   12  C   UNL     1     -12.318  13.938  65.839  1.00  0.00    -0.517 C  
BRANCH  12  13
HETATM   13  C   UNL     1     -11.311  14.778  66.622  1.00  0.00    -0.347 C  
BRANCH  13  14
HETATM   14  C   UNL     1      -9.901  14.238  66.429  1.00  0.00    -0.309 C  
BRANCH  14  15
HETATM   15  C   UNL     1      -9.396  13.540  67.689  1.00  0.00    -0.216 C  
BRANCH  15  16
HETATM   16  C   UNL     1      -9.266  12.039  67.444  1.00  0.00    -0.180 C  
BRANCH  16  17
HETATM   17  C   UNL     1      -9.655  11.231  68.677  1.00  0.00    -0.195 C  
HETATM   18  C   UNL     1     -11.096  10.787  68.613  1.00  0.00    -0.259 C  
HETATM   19  O   UNL     1     -11.876  11.027  67.707  1.00  0.00    -0.605 OA 
HETATM   20  O   UNL     1     -11.459  10.069  69.703  1.00  0.00    -0.226 OA 
ENDBRANCH  16  17
ENDBRANCH  15  16
ENDBRANCH  14  15
ENDBRANCH  13  14
ENDBRANCH  12  13
ENDBRANCH  11  12
ENDBRANCH  10  11
ENDBRANCH   8   9
ENDBRANCH   7   8
ENDBRANCH   5   6
ENDBRANCH   4   5
ENDBRANCH   3   4
ENDBRANCH   2   3
TORSDOF 13
ENDMDL
MODEL      257
REMARK 921   NORMALIZED FREE ENERGY PREDICTED BY IDOCK:   -3.44 KCAL/MOL
REMARK 922        TOTAL FREE ENERGY PREDICTED BY IDOCK:   -7.81 KCAL/MOL
REMARK 923 INTER-LIGAND FREE ENERGY PREDICTED BY IDOCK:   -6.17 KCAL/MOL
REMARK 924 INTRA-LIGAND FREE ENERGY PREDICTED BY IDOCK:   -1.64 KCAL/MOL
REMARK 927      BINDING AFFINITY PREDICTED BY RF-SCORE:    0.00 PKD
ROOT
HETATM    1  C   UNL     1     -12.127  11.822  63.525  1.00  0.00    -0.485 C  
HETATM    2  C   UNL     1     -12.416  12.943  64.508  1.00  0.00    -0.468 C  
ENDROOT
BRANCH   2   3
HETATM    3  C   UNL     1     -11.163  13.333  65.280  1.00  0.00    -0.315 C  
BRANCH   3   4
HETATM    4  C   UNL     1     -11.502  14.244  66.459  1.00  0.00    -0.368 C  
BRANCH   4   5
HETATM    5  C   UNL     1     -11.115  15.678  66.126  1.00  0.00    -0.127 C  
BRANCH   5   6
HETATM    6  C   UNL     1      -9.720  15.811  65.593  1.00  0.00    -0.332 C  
HETATM    7  C   UNL     1      -8.736  16.404  66.287  1.00  0.00    -0.369 C  
BRANCH   7   8
HETATM    8  C   UNL     1      -8.910  17.021  67.644  1.00  0.00    -0.220 C  
BRANCH   8   9
HETATM    9  C   UNL     1      -8.368  16.141  68.730  1.00  0.00    -0.231 C  
HETATM   10  C   UNL     1      -9.120  15.569  69.683  1.00  0.00    -0.187 C  
BRANCH  10  11
HETATM   11  C   UNL     1     -10.601  15.780  69.775  1.00  0.00    -0.312 C  
BRANCH  11  12
HETATM   12  C   UNL     1     -11.179  15.390  71.125  1.00  0.00    -0.410 C  
BRANCH  12  13
HETATM   13  C   UNL     1     -12.230  14.299  70.937  1.00  0.00    -0.425 C  
BRANCH  13  14
HETATM   14  C   UNL     1     -12.022  13.580  69.612  1.00  0.00    -0.397 C  
BRANCH  14  15
HETATM   15  C   UNL     1     -11.973  12.067  69.803  1.00  0.00    -0.370 C  
BRANCH  15  16
HETATM   16  C   UNL     1     -10.632  11.518  69.325  1.00  0.00    -0.120 C  
BRANCH  16  17
HETATM   17  C   UNL     1     -10.732  10.049  68.928  1.00  0.00    -0.243 C  
HETATM   18  C   UNL     1     -10.474   9.857  67.454  1.00  0.00    -0.267 C  
HETATM   19  O   UNL     1     -10.215  10.742  66.654  1.00  0.00    -0.217 OA 
HETATM   20  O   UNL     1     -10.562   8.557  67.084  1.00  0.00    -0.303 OA 
ENDBRANCH  16  17
ENDBRANCH  15  16
ENDBRANCH  14  15
ENDBRANCH  13  14
ENDBRANCH  12  13
ENDBRANCH  11  12
ENDBRANCH  10  11
ENDBRANCH   8   9
ENDBRANCH   7   8
ENDBRANCH   5   6
ENDBRANCH   4   5
ENDBRANCH   3   4
ENDBRANCH   2   3
TORSDOF 13
ENDMDL
MODEL      258
REMARK 921   NORMALIZED FREE ENERGY PREDICTED BY IDOCK:   -3.44 KCAL/MOL
REMARK 922        TOTAL FREE ENERGY PREDICTED BY IDOCK:   -7.81 KCAL/MOL
REMARK 923 INTER-LIGAND FREE ENERGY PREDICTED BY IDOCK:   -5.85 KCAL/MOL
REMARK 924 INTRA-LIGAND FREE ENERGY PREDICTED BY IDOCK:   -1.95 KCAL/MOL
REMARK 927      BINDING AFFINITY PREDICTED BY RF-SCORE:    0.00 PKD
ROOT
HETATM    1  C   UNL     1     -12.354  12.020  63.425  1.00  0.00    -0.635 C  
HETATM    2  C   UNL     1     -12.604  12.676  64.772  1.00  0.00    -0.530 C  
ENDROOT
BRANCH   2   3
HETATM    3  C   UNL     1     -11.323  12.753  65.592  1.00  0.00    -0.354 C  
BRANCH   3   4
HETATM    4  C   UNL     1     -11.228  11.591  66.579  1.00  0.00    -0.324 C  
BRANCH   4   5
HETATM    5  C   UNL     1     -10.962  12.129  67.979  1.00  0.00    -0.271 C  
BRANCH   5   6
HETATM    6  C   UNL     1     -10.166  13.399  67.987  1.00  0.00    -0.243 C  
HETATM    7  C   UNL     1      -8.826  13.411  68.061  1.00  0.00    -0.183 C  
BRANCH   7   8
HETATM    8  C   UNL     1      -7.974  12.181  68.169  1.00  0.00    -0.151 C  
BRANCH   8   9
HETATM    9  C   UNL     1      -7.498  11.712  66.827  1.00  0.00    -0.091 C  
HETATM   10  C   UNL     1      -7.653  10.460  66.367  1.00  0.00    -0.123 C  
BRANCH  10  11
HETATM   11  C   UNL     1      -8.303   9.380  67.177  1.00  0.00    -0.124 C  
BRANCH  11  12
HETATM   12  C   UNL     1      -9.296   8.550  66.380  1.00  0.00    -0.273 C  
BRANCH  12  13
HETATM   13  C   UNL     1     -10.498   8.206  67.257  1.00  0.00    -0.379 C  
BRANCH  13  14
HETATM   14  C   UNL     1     -10.896   6.749  67.070  1.00  0.00    -0.453 C  
BRANCH  14  15
HETATM   15  C   UNL     1     -10.177   5.844  68.067  1.00  0.00    -0.224 C  
BRANCH  15  16
HETATM   16  C   UNL     1     -10.141   6.500  69.444  1.00  0.00    -0.198 C  
BRANCH  16  17
HETATM   17  C   UNL     1     -11.357   6.121  70.282  1.00  0.00    -0.414 C  
HETATM   18  C   UNL     1     -12.048   7.344  70.835  1.00  0.00    -0.257 C  
HETATM   19  O   UNL     1     -11.704   8.500  70.653  1.00  0.00    -0.249 OA 
HETATM   20  O   UNL     1     -13.130   7.025  71.585  1.00  0.00    -0.377 OA 
ENDBRANCH  16  17
ENDBRANCH  15  16
ENDBRANCH  14  15
ENDBRANCH  13  14
ENDBRANCH  12  13
ENDBRANCH  11  12
ENDBRANCH  10  11
ENDBRANCH   8   9
ENDBRANCH   7   8
ENDBRANCH   5   6
ENDBRANCH   4   5
ENDBRANCH   3   4
ENDBRANCH   2   3
TORSDOF 13
ENDMDL
MODEL      259
REMARK 921   NORMALIZED FREE ENERGY PREDICTED BY IDOCK:   -3.44 KCAL/MOL
REMARK 922        TOTAL FREE ENERGY PREDICTED BY IDOCK:   -7.80 KCAL/MOL
REMARK 923 INTER-LIGAND FREE ENERGY PREDICTED BY IDOCK:   -6.09 KCAL/MOL
REMARK 924 INTRA-LIGAND FREE ENERGY PREDICTED BY IDOCK:   -1.72 KCAL/MOL
REMARK 927      BINDING AFFINITY PREDICTED BY RF-SCORE:    0.00 PKD
ROOT
HETATM    1  C   UNL     1      -9.407  11.295  62.849  1.00  0.00    -0.376 C  
HETATM    2  C   UNL     1     -10.237  11.737  64.041  1.00  0.00    -0.387 C  
ENDROOT
BRANCH   2   3
HETATM    3  C   UNL     1     -11.462  12.524  63.594  1.00  0.00    -0.568 C  
BRANCH   3   4
HETATM    4  C   UNL     1     -12.527  12.555  64.689  1.00  0.00    -0.539 C  
BRANCH   4   5
HETATM    5  C   UNL     1     -12.664  13.971  65.232  1.00  0.00    -0.468 C  
BRANCH   5   6
HETATM    6  C   UNL     1     -11.974  15.001  64.388  1.00  0.00    -0.366 C  
HETATM    7  C   UNL     1     -11.020  15.811  64.874  1.00  0.00    -0.443 C  
BRANCH   7   8
HETATM    8  C   UNL     1     -10.552  15.806  66.300  1.00  0.00    -0.313 C  
BRANCH   8   9
HETATM    9  C   UNL     1      -9.524  14.743  66.547  1.00  0.00    -0.316 C  
HETATM   10  C   UNL     1      -9.555  13.890  67.582  1.00  0.00    -0.215 C  
BRANCH  10  11
HETATM   11  C   UNL     1     -10.624  13.936  68.631  1.00  0.00    -0.265 C  
BRANCH  11  12
HETATM   12  C   UNL     1     -11.523  12.710  68.623  1.00  0.00    -0.347 C  
BRANCH  12  13
HETATM   13  C   UNL     1     -10.683  11.460  68.375  1.00  0.00    -0.237 C  
BRANCH  13  14
HETATM   14  C   UNL     1     -10.774  11.036  66.916  1.00  0.00    -0.325 C  
BRANCH  14  15
HETATM   15  C   UNL     1     -10.202   9.637  66.707  1.00  0.00    -0.308 C  
BRANCH  15  16
HETATM   16  C   UNL     1      -8.769   9.569  67.228  1.00  0.00    -0.132 C  
BRANCH  16  17
HETATM   17  C   UNL     1      -7.818  10.399  66.372  1.00  0.00    -0.128 C  
HETATM   18  C   UNL     1      -6.852  11.184  67.225  1.00  0.00    -0.095 C  
HETATM   19  O   UNL     1      -6.810  11.179  68.445  1.00  0.00    -0.061 OA 
HETATM   20  O   UNL     1      -6.000  11.929  66.480  1.00  0.00    -0.196 OA 
ENDBRANCH  16  17
ENDBRANCH  15  16
ENDBRANCH  14  15
ENDBRANCH  13  14
ENDBRANCH  12  13
ENDBRANCH  11  12
ENDBRANCH  10  11
ENDBRANCH   8   9
ENDBRANCH   7   8
ENDBRANCH   5   6
ENDBRANCH   4   5
ENDBRANCH   3   4
ENDBRANCH   2   3
TORSDOF 13
ENDMDL
MODEL      260
REMARK 921   NORMALIZED FREE ENERGY PREDICTED BY IDOCK:   -3.44 KCAL/MOL
REMARK 922        TOTAL FREE ENERGY PREDICTED BY IDOCK:   -7.79 KCAL/MOL
REMARK 923 INTER-LIGAND FREE ENERGY PREDICTED BY IDOCK:   -5.31 KCAL/MOL
REMARK 924 INTRA-LIGAND FREE ENERGY PREDICTED BY IDOCK:   -2.49 KCAL/MOL
REMARK 927      BINDING AFFINITY PREDICTED BY RF-SCORE:    0.00 PKD
ROOT
HETATM    1  C   UNL     1     -11.194  15.588  64.427  1.00  0.00    -0.232 C  
HETATM    2  C   UNL     1     -12.325  14.575  64.440  1.00  0.00    -0.437 C  
ENDROOT
BRANCH   2   3
HETATM    3  C   UNL     1     -11.854  13.219  63.931  1.00  0.00    -0.522 C  
BRANCH   3   4
HETATM    4  C   UNL     1     -11.836  12.184  65.055  1.00  0.00    -0.357 C  
BRANCH   4   5
HETATM    5  C   UNL     1     -10.546  12.318  65.853  1.00  0.00    -0.290 C  
BRANCH   5   6
HETATM    6  C   UNL     1     -10.127  11.045  66.525  1.00  0.00    -0.270 C  
HETATM    7  C   UNL     1     -10.752  10.563  67.611  1.00  0.00    -0.324 C  
BRANCH   7   8
HETATM    8  C   UNL     1     -11.907  11.237  68.292  1.00  0.00    -0.299 C  
BRANCH   8   9
HETATM    9  C   UNL     1     -11.469  12.008  69.501  1.00  0.00    -0.351 C  
HETATM   10  C   UNL     1     -11.588  13.338  69.631  1.00  0.00    -0.329 C  
BRANCH  10  11
HETATM   11  C   UNL     1     -12.154  14.205  68.547  1.00  0.00    -0.312 C  
BRANCH  11  12
HETATM   12  C   UNL     1     -11.317  15.444  68.274  1.00  0.00    -0.354 C  
BRANCH  12  13
HETATM   13  C   UNL     1      -9.894  15.031  67.907  1.00  0.00    -0.217 C  
BRANCH  13  14
HETATM   14  C   UNL     1      -8.882  15.792  68.750  1.00  0.00    -0.207 C  
BRANCH  14  15
HETATM   15  C   UNL     1      -7.597  14.991  68.935  1.00  0.00    -0.144 C  
BRANCH  15  16
HETATM   16  C   UNL     1      -7.466  13.943  67.834  1.00  0.00    -0.155 C  
BRANCH  16  17
HETATM   17  C   UNL     1      -7.434  12.528  68.402  1.00  0.00    -0.127 C  
HETATM   18  C   UNL     1      -6.387  11.683  67.719  1.00  0.00    -0.067 C  
HETATM   19  O   UNL     1      -5.645  12.053  66.824  1.00  0.00    -0.262 OA 
HETATM   20  O   UNL     1      -6.348  10.421  68.210  1.00  0.00    -0.051 OA 
ENDBRANCH  16  17
ENDBRANCH  15  16
ENDBRANCH  14  15
ENDBRANCH  13  14
ENDBRANCH  12  13
ENDBRANCH  11  12
ENDBRANCH  10  11
ENDBRANCH   8   9
ENDBRANCH   7   8
ENDBRANCH   5   6
ENDBRANCH   4   5
ENDBRANCH   3   4
ENDBRANCH   2   3
TORSDOF 13
ENDMDL
MODEL      261
REMARK 921   NORMALIZED FREE ENERGY PREDICTED BY IDOCK:   -3.44 KCAL/MOL
REMARK 922        TOTAL FREE ENERGY PREDICTED BY IDOCK:   -7.79 KCAL/MOL
REMARK 923 INTER-LIGAND FREE ENERGY PREDICTED BY IDOCK:   -5.85 KCAL/MOL
REMARK 924 INTRA-LIGAND FREE ENERGY PREDICTED BY IDOCK:   -1.95 KCAL/MOL
REMARK 927      BINDING AFFINITY PREDICTED BY RF-SCORE:    0.00 PKD
ROOT
HETATM    1  C   UNL     1     -11.304  14.442  64.603  1.00  0.00    -0.373 C  
HETATM    2  C   UNL     1     -12.125  13.428  63.825  1.00  0.00    -0.516 C  
ENDROOT
BRANCH   2   3
HETATM    3  C   UNL     1     -11.412  12.084  63.754  1.00  0.00    -0.547 C  
BRANCH   3   4
HETATM    4  C   UNL     1     -11.145  11.526  65.151  1.00  0.00    -0.260 C  
BRANCH   4   5
HETATM    5  C   UNL     1      -9.917  10.626  65.117  1.00  0.00    -0.366 C  
BRANCH   5   6
HETATM    6  C   UNL     1      -9.390  10.286  66.479  1.00  0.00    -0.200 C  
HETATM    7  C   UNL     1      -8.854  11.206  67.296  1.00  0.00    -0.144 C  
BRANCH   7   8
HETATM    8  C   UNL     1      -8.692  12.656  66.946  1.00  0.00    -0.175 C  
BRANCH   8   9
HETATM    9  C   UNL     1      -7.947  13.407  68.010  1.00  0.00    -0.148 C  
HETATM   10  C   UNL     1      -7.776  14.738  68.014  1.00  0.00    -0.130 C  
BRANCH  10  11
HETATM   11  C   UNL     1      -8.298  15.620  66.920  1.00  0.00    -0.287 C  
BRANCH  11  12
HETATM   12  C   UNL     1      -9.193  16.738  67.429  1.00  0.00    -0.220 C  
BRANCH  12  13
HETATM   13  C   UNL     1      -9.927  16.275  68.685  1.00  0.00    -0.233 C  
BRANCH  13  14
HETATM   14  C   UNL     1     -11.376  15.940  68.363  1.00  0.00    -0.361 C  
BRANCH  14  15
HETATM   15  C   UNL     1     -11.579  14.434  68.217  1.00  0.00    -0.359 C  
BRANCH  15  16
HETATM   16  C   UNL     1     -12.278  13.874  69.453  1.00  0.00    -0.338 C  
BRANCH  16  17
HETATM   17  C   UNL     1     -11.462  12.765  70.108  1.00  0.00     0.005 C  
HETATM   18  C   UNL     1     -11.600  11.463  69.358  1.00  0.00    -0.323 C  
HETATM   19  O   UNL     1     -12.270  11.286  68.354  1.00  0.00    -0.604 OA 
HETATM   20  O   UNL     1     -10.884  10.465  69.929  1.00  0.00    -0.268 OA 
ENDBRANCH  16  17
ENDBRANCH  15  16
ENDBRANCH  14  15
ENDBRANCH  13  14
ENDBRANCH  12  13
ENDBRANCH  11  12
ENDBRANCH  10  11
ENDBRANCH   8   9
ENDBRANCH   7   8
ENDBRANCH   5   6
ENDBRANCH   4   5
ENDBRANCH   3   4
ENDBRANCH   2   3
TORSDOF 13
ENDMDL
MODEL      262
REMARK 921   NORMALIZED FREE ENERGY PREDICTED BY IDOCK:   -3.44 KCAL/MOL
REMARK 922        TOTAL FREE ENERGY PREDICTED BY IDOCK:   -7.79 KCAL/MOL
REMARK 923 INTER-LIGAND FREE ENERGY PREDICTED BY IDOCK:   -5.89 KCAL/MOL
REMARK 924 INTRA-LIGAND FREE ENERGY PREDICTED BY IDOCK:   -1.90 KCAL/MOL
REMARK 927      BINDING AFFINITY PREDICTED BY RF-SCORE:    0.00 PKD
ROOT
HETATM    1  C   UNL     1     -10.772  19.399  66.782  1.00  0.00    -0.550 C  
HETATM    2  C   UNL     1      -9.952  18.648  67.817  1.00  0.00    -0.381 C  
ENDROOT
BRANCH   2   3
HETATM    3  C   UNL     1     -10.585  17.304  68.151  1.00  0.00    -0.386 C  
BRANCH   3   4
HETATM    4  C   UNL     1      -9.528  16.208  68.262  1.00  0.00    -0.208 C  
BRANCH   4   5
HETATM    5  C   UNL     1      -9.846  15.087  67.281  1.00  0.00    -0.228 C  
BRANCH   5   6
HETATM    6  C   UNL     1     -11.240  14.553  67.421  1.00  0.00    -0.337 C  
HETATM    7  C   UNL     1     -12.001  14.236  66.361  1.00  0.00    -0.438 C  
BRANCH   7   8
HETATM    8  C   UNL     1     -11.572  14.399  64.933  1.00  0.00    -0.395 C  
BRANCH   8   9
HETATM    9  C   UNL     1     -12.267  13.427  64.027  1.00  0.00    -0.466 C  
HETATM   10  C   UNL     1     -11.664  12.385  63.435  1.00  0.00    -0.554 C  
BRANCH  10  11
HETATM   11  C   UNL     1     -10.202  12.101  63.601  1.00  0.00    -0.459 C  
BRANCH  11  12
HETATM   12  C   UNL     1      -9.924  10.764  64.270  1.00  0.00    -0.403 C  
BRANCH  12  13
HETATM   13  C   UNL     1     -10.974  10.502  65.346  1.00  0.00     0.267 C  
BRANCH  13  14
HETATM   14  C   UNL     1     -10.436  10.873  66.720  1.00  0.00    -0.302 C  
BRANCH  14  15
HETATM   15  C   UNL     1      -8.964  10.495  66.861  1.00  0.00    -0.151 C  
BRANCH  15  16
HETATM   16  C   UNL     1      -8.818   9.273  67.763  1.00  0.00    -0.121 C  
BRANCH  16  17
HETATM   17  C   UNL     1      -8.521   8.011  66.961  1.00  0.00    -0.120 C  
HETATM   18  C   UNL     1      -9.767   7.186  66.750  1.00  0.00    -0.192 C  
HETATM   19  O   UNL     1     -10.883   7.464  67.155  1.00  0.00    -0.331 OA 
HETATM   20  O   UNL     1      -9.519   6.058  66.041  1.00  0.00    -0.135 OA 
ENDBRANCH  16  17
ENDBRANCH  15  16
ENDBRANCH  14  15
ENDBRANCH  13  14
ENDBRANCH  12  13
ENDBRANCH  11  12
ENDBRANCH  10  11
ENDBRANCH   8   9
ENDBRANCH   7   8
ENDBRANCH   5   6
ENDBRANCH   4   5
ENDBRANCH   3   4
ENDBRANCH   2   3
TORSDOF 13
ENDMDL
MODEL      263
REMARK 921   NORMALIZED FREE ENERGY PREDICTED BY IDOCK:   -3.43 KCAL/MOL
REMARK 922        TOTAL FREE ENERGY PREDICTED BY IDOCK:   -7.79 KCAL/MOL
REMARK 923 INTER-LIGAND FREE ENERGY PREDICTED BY IDOCK:   -6.12 KCAL/MOL
REMARK 924 INTRA-LIGAND FREE ENERGY PREDICTED BY IDOCK:   -1.66 KCAL/MOL
REMARK 927      BINDING AFFINITY PREDICTED BY RF-SCORE:    0.00 PKD
ROOT
HETATM    1  C   UNL     1     -12.661  12.802  64.808  1.00  0.00    -0.518 C  
HETATM    2  C   UNL     1     -11.993  12.253  63.559  1.00  0.00    -0.625 C  
ENDROOT
BRANCH   2   3
HETATM    3  C   UNL     1     -10.484  12.156  63.741  1.00  0.00    -0.470 C  
BRANCH   3   4
HETATM    4  C   UNL     1     -10.046  10.709  63.962  1.00  0.00    -0.378 C  
BRANCH   4   5
HETATM    5  C   UNL     1      -9.968  10.420  65.455  1.00  0.00    -0.348 C  
BRANCH   5   6
HETATM    6  C   UNL     1      -9.560  11.609  66.271  1.00  0.00    -0.241 C  
HETATM    7  C   UNL     1     -10.175  11.943  67.417  1.00  0.00    -0.214 C  
BRANCH   7   8
HETATM    8  C   UNL     1     -11.340  11.200  68.000  1.00  0.00    -0.380 C  
BRANCH   8   9
HETATM    9  C   UNL     1     -11.796  11.803  69.295  1.00  0.00    -0.389 C  
HETATM   10  C   UNL     1     -11.955  11.112  70.434  1.00  0.00    -0.469 C  
BRANCH  10  11
HETATM   11  C   UNL     1     -11.717   9.634  70.519  1.00  0.00    -0.312 C  
BRANCH  11  12
HETATM   12  C   UNL     1     -11.061   9.208  71.822  1.00  0.00    -0.437 C  
BRANCH  12  13
HETATM   13  C   UNL     1      -9.767   8.456  71.523  1.00  0.00    -0.276 C  
BRANCH  13  14
HETATM   14  C   UNL     1      -9.317   8.715  70.092  1.00  0.00    -0.171 C  
BRANCH  14  15
HETATM   15  C   UNL     1      -8.087   7.885  69.737  1.00  0.00    -0.116 C  
BRANCH  15  16
HETATM   16  C   UNL     1      -8.509   6.554  69.122  1.00  0.00    -0.126 C  
BRANCH  16  17
HETATM   17  C   UNL     1      -8.247   5.386  70.067  1.00  0.00    -0.095 C  
HETATM   18  C   UNL     1      -9.530   4.856  70.657  1.00  0.00    -0.173 C  
HETATM   19  O   UNL     1     -10.650   5.283  70.428  1.00  0.00    -0.268 OA 
HETATM   20  O   UNL     1      -9.315   3.819  71.502  1.00  0.00    -0.115 OA 
ENDBRANCH  16  17
ENDBRANCH  15  16
ENDBRANCH  14  15
ENDBRANCH  13  14
ENDBRANCH  12  13
ENDBRANCH  11  12
ENDBRANCH  10  11
ENDBRANCH   8   9
ENDBRANCH   7   8
ENDBRANCH   5   6
ENDBRANCH   4   5
ENDBRANCH   3   4
ENDBRANCH   2   3
TORSDOF 13
ENDMDL
MODEL      264
REMARK 921   NORMALIZED FREE ENERGY PREDICTED BY IDOCK:   -3.42 KCAL/MOL
REMARK 922        TOTAL FREE ENERGY PREDICTED BY IDOCK:   -7.77 KCAL/MOL
REMARK 923 INTER-LIGAND FREE ENERGY PREDICTED BY IDOCK:   -6.10 KCAL/MOL
REMARK 924 INTRA-LIGAND FREE ENERGY PREDICTED BY IDOCK:   -1.68 KCAL/MOL
REMARK 927      BINDING AFFINITY PREDICTED BY RF-SCORE:    0.00 PKD
ROOT
HETATM    1  C   UNL     1      -8.740  15.577  67.664  1.00  0.00    -0.183 C  
HETATM    2  C   UNL     1      -8.958  14.103  67.956  1.00  0.00    -0.183 C  
ENDROOT
BRANCH   2   3
HETATM    3  C   UNL     1      -9.824  13.452  66.885  1.00  0.00    -0.256 C  
BRANCH   3   4
HETATM    4  C   UNL     1     -11.300  13.792  67.087  1.00  0.00    -0.344 C  
BRANCH   4   5
HETATM    5  C   UNL     1     -11.873  12.940  68.211  1.00  0.00    -0.372 C  
BRANCH   5   6
HETATM    6  C   UNL     1     -11.830  11.469  67.924  1.00  0.00    -0.255 C  
HETATM    7  C   UNL     1     -11.767  10.546  68.897  1.00  0.00    -0.217 C  
BRANCH   7   8
HETATM    8  C   UNL     1     -11.705  10.864  70.362  1.00  0.00    -0.444 C  
BRANCH   8   9
HETATM    9  C   UNL     1     -12.892  10.321  71.101  1.00  0.00    -0.504 C  
HETATM   10  C   UNL     1     -12.844   9.276  71.941  1.00  0.00    -0.485 C  
BRANCH  10  11
HETATM   11  C   UNL     1     -11.580   8.515  72.207  1.00  0.00    -0.444 C  
BRANCH  11  12
HETATM   12  C   UNL     1     -11.752   7.009  72.086  1.00  0.00    -0.321 C  
BRANCH  12  13
HETATM   13  C   UNL     1     -12.143   6.652  70.653  1.00  0.00    -0.342 C  
BRANCH  13  14
HETATM   14  C   UNL     1     -10.962   6.040  69.914  1.00  0.00    -0.458 C  
BRANCH  14  15
HETATM   15  C   UNL     1     -10.966   6.432  68.439  1.00  0.00    -0.390 C  
BRANCH  15  16
HETATM   16  C   UNL     1     -10.078   7.652  68.215  1.00  0.00    -0.214 C  
BRANCH  16  17
HETATM   17  C   UNL     1      -9.839   7.912  66.732  1.00  0.00    -0.318 C  
HETATM   18  C   UNL     1      -8.546   7.290  66.265  1.00  0.00    -0.142 C  
HETATM   19  O   UNL     1      -7.769   6.655  66.958  1.00  0.00    -0.100 OA 
HETATM   20  O   UNL     1      -8.317   7.515  64.948  1.00  0.00    -0.124 OA 
ENDBRANCH  16  17
ENDBRANCH  15  16
ENDBRANCH  14  15
ENDBRANCH  13  14
ENDBRANCH  12  13
ENDBRANCH  11  12
ENDBRANCH  10  11
ENDBRANCH   8   9
ENDBRANCH   7   8
ENDBRANCH   5   6
ENDBRANCH   4   5
ENDBRANCH   3   4
ENDBRANCH   2   3
TORSDOF 13
ENDMDL
MODEL      265
REMARK 921   NORMALIZED FREE ENERGY PREDICTED BY IDOCK:   -3.42 KCAL/MOL
REMARK 922        TOTAL FREE ENERGY PREDICTED BY IDOCK:   -7.76 KCAL/MOL
REMARK 923 INTER-LIGAND FREE ENERGY PREDICTED BY IDOCK:   -6.38 KCAL/MOL
REMARK 924 INTRA-LIGAND FREE ENERGY PREDICTED BY IDOCK:   -1.39 KCAL/MOL
REMARK 927      BINDING AFFINITY PREDICTED BY RF-SCORE:    0.00 PKD
ROOT
HETATM    1  C   UNL     1     -10.550  19.442  66.100  1.00  0.00    -0.571 C  
HETATM    2  C   UNL     1      -9.118  19.161  66.520  1.00  0.00    -0.365 C  
ENDROOT
BRANCH   2   3
HETATM    3  C   UNL     1      -9.011  18.995  68.030  1.00  0.00    -0.348 C  
BRANCH   3   4
HETATM    4  C   UNL     1      -8.157  17.781  68.393  1.00  0.00    -0.297 C  
BRANCH   4   5
HETATM    5  C   UNL     1      -8.973  16.508  68.212  1.00  0.00    -0.214 C  
BRANCH   5   6
HETATM    6  C   UNL     1     -10.427  16.682  68.537  1.00  0.00    -0.319 C  
HETATM    7  C   UNL     1     -11.398  16.046  67.863  1.00  0.00    -0.218 C  
BRANCH   7   8
HETATM    8  C   UNL     1     -11.159  15.122  66.706  1.00  0.00    -0.307 C  
BRANCH   8   9
HETATM    9  C   UNL     1     -12.133  13.982  66.691  1.00  0.00    -0.487 C  
HETATM   10  C   UNL     1     -12.065  12.921  67.509  1.00  0.00    -0.251 C  
BRANCH  10  11
HETATM   11  C   UNL     1     -10.971  12.752  68.519  1.00  0.00    -0.288 C  
BRANCH  11  12
HETATM   12  C   UNL     1     -10.169  11.475  68.325  1.00  0.00    -0.205 C  
BRANCH  12  13
HETATM   13  C   UNL     1     -11.012  10.451  67.569  1.00  0.00    -0.358 C  
BRANCH  13  14
HETATM   14  C   UNL     1     -10.529   9.039  67.865  1.00  0.00    -0.291 C  
BRANCH  14  15
HETATM   15  C   UNL     1      -9.748   8.981  69.174  1.00  0.00    -0.167 C  
BRANCH  15  16
HETATM   16  C   UNL     1     -10.591   8.328  70.264  1.00  0.00    -0.230 C  
BRANCH  16  17
HETATM   17  C   UNL     1     -11.463   9.347  70.991  1.00  0.00    -0.403 C  
HETATM   18  C   UNL     1     -12.463   8.671  71.896  1.00  0.00    -0.357 C  
HETATM   19  O   UNL     1     -12.586   7.467  72.050  1.00  0.00    -0.294 OA 
HETATM   20  O   UNL     1     -13.248   9.563  72.547  1.00  0.00    -0.408 OA 
ENDBRANCH  16  17
ENDBRANCH  15  16
ENDBRANCH  14  15
ENDBRANCH  13  14
ENDBRANCH  12  13
ENDBRANCH  11  12
ENDBRANCH  10  11
ENDBRANCH   8   9
ENDBRANCH   7   8
ENDBRANCH   5   6
ENDBRANCH   4   5
ENDBRANCH   3   4
ENDBRANCH   2   3
TORSDOF 13
ENDMDL
MODEL      266
REMARK 921   NORMALIZED FREE ENERGY PREDICTED BY IDOCK:   -3.42 KCAL/MOL
REMARK 922        TOTAL FREE ENERGY PREDICTED BY IDOCK:   -7.76 KCAL/MOL
REMARK 923 INTER-LIGAND FREE ENERGY PREDICTED BY IDOCK:   -5.97 KCAL/MOL
REMARK 924 INTRA-LIGAND FREE ENERGY PREDICTED BY IDOCK:   -1.80 KCAL/MOL
REMARK 927      BINDING AFFINITY PREDICTED BY RF-SCORE:    0.00 PKD
ROOT
HETATM    1  C   UNL     1     -12.319  16.207  73.963  1.00  0.00    -0.684 C  
HETATM    2  C   UNL     1     -12.689  14.761  73.684  1.00  0.00    -0.511 C  
ENDROOT
BRANCH   2   3
HETATM    3  C   UNL     1     -12.766  14.493  72.187  1.00  0.00    -0.407 C  
BRANCH   3   4
HETATM    4  C   UNL     1     -11.558  15.078  71.458  1.00  0.00    -0.409 C  
BRANCH   4   5
HETATM    5  C   UNL     1     -12.028  16.036  70.372  1.00  0.00    -0.245 C  
BRANCH   5   6
HETATM    6  C   UNL     1     -11.889  15.481  68.987  1.00  0.00    -0.373 C  
HETATM    7  C   UNL     1     -11.137  16.073  68.045  1.00  0.00    -0.334 C  
BRANCH   7   8
HETATM    8  C   UNL     1     -10.380  17.352  68.247  1.00  0.00    -0.374 C  
BRANCH   8   9
HETATM    9  C   UNL     1      -9.040  17.319  67.576  1.00  0.00    -0.223 C  
HETATM   10  C   UNL     1      -7.982  16.635  68.038  1.00  0.00    -0.173 C  
BRANCH  10  11
HETATM   11  C   UNL     1      -8.028  15.844  69.310  1.00  0.00    -0.229 C  
BRANCH  11  12
HETATM   12  C   UNL     1      -7.073  14.661  69.315  1.00  0.00    -0.150 C  
BRANCH  12  13
HETATM   13  C   UNL     1      -6.601  14.378  67.890  1.00  0.00    -0.179 C  
BRANCH  13  14
HETATM   14  C   UNL     1      -7.469  13.308  67.243  1.00  0.00    -0.069 C  
BRANCH  14  15
HETATM   15  C   UNL     1      -8.466  12.724  68.239  1.00  0.00    -0.161 C  
BRANCH  15  16
HETATM   16  C   UNL     1      -9.856  12.650  67.613  1.00  0.00    -0.210 C  
BRANCH  16  17
HETATM   17  C   UNL     1      -9.863  13.197  66.189  1.00  0.00    -0.284 C  
HETATM   18  C   UNL     1     -10.318  12.151  65.200  1.00  0.00    -0.279 C  
HETATM   19  O   UNL     1     -10.644  11.007  65.471  1.00  0.00    -0.256 OA 
HETATM   20  O   UNL     1     -10.327  12.620  63.929  1.00  0.00    -0.417 OA 
ENDBRANCH  16  17
ENDBRANCH  15  16
ENDBRANCH  14  15
ENDBRANCH  13  14
ENDBRANCH  12  13
ENDBRANCH  11  12
ENDBRANCH  10  11
ENDBRANCH   8   9
ENDBRANCH   7   8
ENDBRANCH   5   6
ENDBRANCH   4   5
ENDBRANCH   3   4
ENDBRANCH   2   3
TORSDOF 13
ENDMDL
MODEL      267
REMARK 921   NORMALIZED FREE ENERGY PREDICTED BY IDOCK:   -3.42 KCAL/MOL
REMARK 922        TOTAL FREE ENERGY PREDICTED BY IDOCK:   -7.76 KCAL/MOL
REMARK 923 INTER-LIGAND FREE ENERGY PREDICTED BY IDOCK:   -6.00 KCAL/MOL
REMARK 924 INTRA-LIGAND FREE ENERGY PREDICTED BY IDOCK:   -1.76 KCAL/MOL
REMARK 927      BINDING AFFINITY PREDICTED BY RF-SCORE:    0.00 PKD
ROOT
HETATM    1  C   UNL     1     -12.890  13.648  65.440  1.00  0.00    -0.440 C  
HETATM    2  C   UNL     1     -11.562  12.915  65.375  1.00  0.00    -0.386 C  
ENDROOT
BRANCH   2   3
HETATM    3  C   UNL     1     -10.513  13.742  64.642  1.00  0.00    -0.433 C  
BRANCH   3   4
HETATM    4  C   UNL     1     -10.665  15.229  64.957  1.00  0.00    -0.461 C  
BRANCH   4   5
HETATM    5  C   UNL     1      -9.884  15.569  66.219  1.00  0.00    -0.317 C  
BRANCH   5   6
HETATM    6  C   UNL     1      -9.521  17.020  66.322  1.00  0.00    -0.281 C  
HETATM    7  C   UNL     1      -8.705  17.493  67.276  1.00  0.00    -0.236 C  
BRANCH   7   8
HETATM    8  C   UNL     1      -8.086  16.653  68.354  1.00  0.00    -0.208 C  
BRANCH   8   9
HETATM    9  C   UNL     1      -6.833  15.977  67.885  1.00  0.00    -0.158 C  
HETATM   10  C   UNL     1      -6.578  14.668  68.041  1.00  0.00    -0.155 C  
BRANCH  10  11
HETATM   11  C   UNL     1      -7.527  13.742  68.740  1.00  0.00    -0.098 C  
BRANCH  11  12
HETATM   12  C   UNL     1      -8.315  12.860  67.785  1.00  0.00    -0.178 C  
BRANCH  12  13
HETATM   13  C   UNL     1      -9.564  12.332  68.487  1.00  0.00    -0.128 C  
BRANCH  13  14
HETATM   14  C   UNL     1      -9.873  10.913  68.032  1.00  0.00    -0.185 C  
BRANCH  14  15
HETATM   15  C   UNL     1     -11.330  10.549  68.298  1.00  0.00    -0.332 C  
BRANCH  15  16
HETATM   16  C   UNL     1     -11.781  11.121  69.639  1.00  0.00    -0.410 C  
BRANCH  16  17
HETATM   17  C   UNL     1     -12.287  10.030  70.576  1.00  0.00    -0.282 C  
HETATM   18  C   UNL     1     -13.093  10.610  71.712  1.00  0.00    -0.466 C  
HETATM   19  O   UNL     1     -13.330  11.794  71.887  1.00  0.00    -0.448 OA 
HETATM   20  O   UNL     1     -13.548   9.654  72.557  1.00  0.00    -0.400 OA 
ENDBRANCH  16  17
ENDBRANCH  15  16
ENDBRANCH  14  15
ENDBRANCH  13  14
ENDBRANCH  12  13
ENDBRANCH  11  12
ENDBRANCH  10  11
ENDBRANCH   8   9
ENDBRANCH   7   8
ENDBRANCH   5   6
ENDBRANCH   4   5
ENDBRANCH   3   4
ENDBRANCH   2   3
TORSDOF 13
ENDMDL
MODEL      268
REMARK 921   NORMALIZED FREE ENERGY PREDICTED BY IDOCK:   -3.42 KCAL/MOL
REMARK 922        TOTAL FREE ENERGY PREDICTED BY IDOCK:   -7.76 KCAL/MOL
REMARK 923 INTER-LIGAND FREE ENERGY PREDICTED BY IDOCK:   -5.79 KCAL/MOL
REMARK 924 INTRA-LIGAND FREE ENERGY PREDICTED BY IDOCK:   -1.97 KCAL/MOL
REMARK 927      BINDING AFFINITY PREDICTED BY RF-SCORE:    0.00 PKD
ROOT
HETATM    1  C   UNL     1      -9.061   7.973  66.929  1.00  0.00    -0.182 C  
HETATM    2  C   UNL     1     -10.479   7.915  67.468  1.00  0.00    -0.332 C  
ENDROOT
BRANCH   2   3
HETATM    3  C   UNL     1     -10.905   6.478  67.740  1.00  0.00    -0.395 C  
BRANCH   3   4
HETATM    4  C   UNL     1     -11.257   6.276  69.212  1.00  0.00    -0.458 C  
BRANCH   4   5
HETATM    5  C   UNL     1     -10.421   5.141  69.788  1.00  0.00    -0.274 C  
BRANCH   5   6
HETATM    6  C   UNL     1      -9.206   4.822  68.970  1.00  0.00    -0.174 C  
HETATM    7  C   UNL     1      -7.959   4.950  69.449  1.00  0.00    -0.074 C  
BRANCH   7   8
HETATM    8  C   UNL     1      -7.629   5.444  70.827  1.00  0.00    -0.088 C  
BRANCH   8   9
HETATM    9  C   UNL     1      -8.029   4.459  71.884  1.00  0.00    -0.097 C  
HETATM   10  C   UNL     1      -8.212   4.773  73.176  1.00  0.00    -0.101 C  
BRANCH  10  11
HETATM   11  C   UNL     1      -8.002   6.159  73.706  1.00  0.00    -0.097 C  
BRANCH  11  12
HETATM   12  C   UNL     1      -9.296   6.937  73.876  1.00  0.00    -0.241 C  
BRANCH  12  13
HETATM   13  C   UNL     1      -9.185   8.281  73.160  1.00  0.00    -0.293 C  
BRANCH  13  14
HETATM   14  C   UNL     1     -10.161   8.347  71.994  1.00  0.00    -0.364 C  
BRANCH  14  15
HETATM   15  C   UNL     1     -11.581   8.006  72.437  1.00  0.00    -0.450 C  
BRANCH  15  16
HETATM   16  C   UNL     1     -12.596   8.654  71.501  1.00  0.00    -0.360 C  
BRANCH  16  17
HETATM   17  C   UNL     1     -13.300   9.834  72.162  1.00  0.00    -0.527 C  
HETATM   18  C   UNL     1     -12.907  11.141  71.517  1.00  0.00    -0.437 C  
HETATM   19  O   UNL     1     -12.130  11.272  70.586  1.00  0.00    -0.355 OA 
HETATM   20  O   UNL     1     -13.522  12.202  72.095  1.00  0.00    -0.494 OA 
ENDBRANCH  16  17
ENDBRANCH  15  16
ENDBRANCH  14  15
ENDBRANCH  13  14
ENDBRANCH  12  13
ENDBRANCH  11  12
ENDBRANCH  10  11
ENDBRANCH   8   9
ENDBRANCH   7   8
ENDBRANCH   5   6
ENDBRANCH   4   5
ENDBRANCH   3   4
ENDBRANCH   2   3
TORSDOF 13
ENDMDL
MODEL      269
REMARK 921   NORMALIZED FREE ENERGY PREDICTED BY IDOCK:   -3.40 KCAL/MOL
REMARK 922        TOTAL FREE ENERGY PREDICTED BY IDOCK:   -7.73 KCAL/MOL
REMARK 923 INTER-LIGAND FREE ENERGY PREDICTED BY IDOCK:   -4.93 KCAL/MOL
REMARK 924 INTRA-LIGAND FREE ENERGY PREDICTED BY IDOCK:   -2.81 KCAL/MOL
REMARK 927      BINDING AFFINITY PREDICTED BY RF-SCORE:    0.00 PKD
ROOT
HETATM    1  C   UNL     1     -10.422   7.793  67.170  1.00  0.00    -0.413 C  
HETATM    2  C   UNL     1     -11.084   6.427  67.200  1.00  0.00    -0.422 C  
ENDROOT
BRANCH   2   3
HETATM    3  C   UNL     1     -10.107   5.354  67.663  1.00  0.00    -0.217 C  
BRANCH   3   4
HETATM    4  C   UNL     1     -10.199   5.137  69.172  1.00  0.00    -0.259 C  
BRANCH   4   5
HETATM    5  C   UNL     1      -8.802   5.147  69.777  1.00  0.00    -0.130 C  
BRANCH   5   6
HETATM    6  C   UNL     1      -7.774   5.786  68.893  1.00  0.00    -0.090 C  
HETATM    7  C   UNL     1      -7.249   6.993  69.153  1.00  0.00    -0.090 C  
BRANCH   7   8
HETATM    8  C   UNL     1      -7.635   7.850  70.322  1.00  0.00    -0.086 C  
BRANCH   8   9
HETATM    9  C   UNL     1      -6.790   7.565  71.527  1.00  0.00    -0.050 C  
HETATM   10  C   UNL     1      -7.214   7.693  72.794  1.00  0.00    -0.087 C  
BRANCH  10  11
HETATM   11  C   UNL     1      -8.593   8.172  73.136  1.00  0.00    -0.299 C  
BRANCH  11  12
HETATM   12  C   UNL     1      -9.597   7.041  73.290  1.00  0.00    -0.209 C  
BRANCH  12  13
HETATM   13  C   UNL     1     -11.011   7.581  73.089  1.00  0.00    -0.420 C  
BRANCH  13  14
HETATM   14  C   UNL     1     -11.684   6.892  71.911  1.00  0.00    -0.334 C  
BRANCH  14  15
HETATM   15  C   UNL     1     -11.793   7.826  70.709  1.00  0.00    -0.205 C  
BRANCH  15  16
HETATM   16  C   UNL     1     -11.557   9.270  71.140  1.00  0.00    -0.397 C  
BRANCH  16  17
HETATM   17  C   UNL     1     -10.558   9.975  70.229  1.00  0.00    -0.354 C  
HETATM   18  C   UNL     1     -11.258  10.809  69.184  1.00  0.00    -0.262 C  
HETATM   19  O   UNL     1     -12.466  10.926  69.057  1.00  0.00    -0.425 OA 
HETATM   20  O   UNL     1     -10.384  11.440  68.363  1.00  0.00    -0.181 OA 
ENDBRANCH  16  17
ENDBRANCH  15  16
ENDBRANCH  14  15
ENDBRANCH  13  14
ENDBRANCH  12  13
ENDBRANCH  11  12
ENDBRANCH  10  11
ENDBRANCH   8   9
ENDBRANCH   7   8
ENDBRANCH   5   6
ENDBRANCH   4   5
ENDBRANCH   3   4
ENDBRANCH   2   3
TORSDOF 13
ENDMDL
MODEL      270
REMARK 921   NORMALIZED FREE ENERGY PREDICTED BY IDOCK:   -3.38 KCAL/MOL
REMARK 922        TOTAL FREE ENERGY PREDICTED BY IDOCK:   -7.70 KCAL/MOL
REMARK 923 INTER-LIGAND FREE ENERGY PREDICTED BY IDOCK:   -5.84 KCAL/MOL
REMARK 924 INTRA-LIGAND FREE ENERGY PREDICTED BY IDOCK:   -1.85 KCAL/MOL
REMARK 927      BINDING AFFINITY PREDICTED BY RF-SCORE:    0.00 PKD
ROOT
HETATM    1  C   UNL     1     -11.578  10.147  69.379  1.00  0.00    -0.151 C  
HETATM    2  C   UNL     1     -11.727  10.802  70.741  1.00  0.00    -0.400 C  
ENDROOT
BRANCH   2   3
HETATM    3  C   UNL     1     -12.514  12.103  70.642  1.00  0.00    -0.330 C  
BRANCH   3   4
HETATM    4  C   UNL     1     -12.973  12.576  72.020  1.00  0.00    -0.379 C  
BRANCH   4   5
HETATM    5  C   UNL     1     -13.220  14.078  71.990  1.00  0.00    -0.499 C  
BRANCH   5   6
HETATM    6  C   UNL     1     -11.959  14.888  71.963  1.00  0.00    -0.428 C  
HETATM    7  C   UNL     1     -11.526  15.513  70.856  1.00  0.00    -0.410 C  
BRANCH   7   8
HETATM    8  C   UNL     1     -12.220  15.457  69.527  1.00  0.00    -0.277 C  
BRANCH   8   9
HETATM    9  C   UNL     1     -11.323  15.899  68.410  1.00  0.00    -0.361 C  
HETATM   10  C   UNL     1     -11.286  15.322  67.199  1.00  0.00    -0.247 C  
BRANCH  10  11
HETATM   11  C   UNL     1     -12.134  14.137  66.846  1.00  0.00    -0.466 C  
BRANCH  11  12
HETATM   12  C   UNL     1     -11.667  13.421  65.589  1.00  0.00    -0.374 C  
BRANCH  12  13
HETATM   13  C   UNL     1     -10.170  13.138  65.687  1.00  0.00    -0.294 C  
BRANCH  13  14
HETATM   14  C   UNL     1      -9.908  11.959  66.612  1.00  0.00    -0.219 C  
BRANCH  14  15
HETATM   15  C   UNL     1      -9.097  12.381  67.834  1.00  0.00    -0.191 C  
BRANCH  15  16
HETATM   16  C   UNL     1      -8.397  13.710  67.570  1.00  0.00    -0.191 C  
BRANCH  16  17
HETATM   17  C   UNL     1      -7.074  13.810  68.320  1.00  0.00    -0.109 C  
HETATM   18  C   UNL     1      -7.124  14.876  69.387  1.00  0.00    -0.175 C  
HETATM   19  O   UNL     1      -8.084  15.585  69.643  1.00  0.00    -0.218 OA 
HETATM   20  O   UNL     1      -5.953  14.981  70.061  1.00  0.00    -0.125 OA 
ENDBRANCH  16  17
ENDBRANCH  15  16
ENDBRANCH  14  15
ENDBRANCH  13  14
ENDBRANCH  12  13
ENDBRANCH  11  12
ENDBRANCH  10  11
ENDBRANCH   8   9
ENDBRANCH   7   8
ENDBRANCH   5   6
ENDBRANCH   4   5
ENDBRANCH   3   4
ENDBRANCH   2   3
TORSDOF 13
ENDMDL
MODEL      271
REMARK 921   NORMALIZED FREE ENERGY PREDICTED BY IDOCK:   -3.38 KCAL/MOL
REMARK 922        TOTAL FREE ENERGY PREDICTED BY IDOCK:   -7.69 KCAL/MOL
REMARK 923 INTER-LIGAND FREE ENERGY PREDICTED BY IDOCK:   -5.97 KCAL/MOL
REMARK 924 INTRA-LIGAND FREE ENERGY PREDICTED BY IDOCK:   -1.71 KCAL/MOL
REMARK 927      BINDING AFFINITY PREDICTED BY RF-SCORE:    0.00 PKD
ROOT
HETATM    1  C   UNL     1      -9.501   8.749  72.104  1.00  0.00    -0.309 C  
HETATM    2  C   UNL     1     -10.828   8.023  72.247  1.00  0.00    -0.369 C  
ENDROOT
BRANCH   2   3
HETATM    3  C   UNL     1     -11.190   7.283  70.966  1.00  0.00    -0.291 C  
BRANCH   3   4
HETATM    4  C   UNL     1     -11.022   5.774  71.134  1.00  0.00    -0.295 C  
BRANCH   4   5
HETATM    5  C   UNL     1      -9.592   5.377  70.792  1.00  0.00    -0.228 C  
BRANCH   5   6
HETATM    6  C   UNL     1      -9.502   4.121  69.978  1.00  0.00    -0.260 C  
HETATM    7  C   UNL     1      -9.368   4.135  68.642  1.00  0.00    -0.219 C  
BRANCH   7   8
HETATM    8  C   UNL     1      -9.321   5.382  67.809  1.00  0.00    -0.124 C  
BRANCH   8   9
HETATM    9  C   UNL     1     -10.679   5.767  67.304  1.00  0.00    -0.345 C  
HETATM   10  C   UNL     1     -11.093   7.033  67.143  1.00  0.00    -0.298 C  
BRANCH  10  11
HETATM   11  C   UNL     1     -10.232   8.211  67.486  1.00  0.00    -0.309 C  
BRANCH  11  12
HETATM   12  C   UNL     1     -10.030   9.165  66.320  1.00  0.00    -0.352 C  
BRANCH  12  13
HETATM   13  C   UNL     1      -9.944  10.598  66.840  1.00  0.00    -0.245 C  
BRANCH  13  14
HETATM   14  C   UNL     1     -10.926  11.494  66.100  1.00  0.00    -0.320 C  
BRANCH  14  15
HETATM   15  C   UNL     1     -11.816  12.265  67.071  1.00  0.00    -0.329 C  
BRANCH  15  16
HETATM   16  C   UNL     1     -11.052  12.571  68.356  1.00  0.00    -0.293 C  
BRANCH  16  17
HETATM   17  C   UNL     1     -11.984  13.044  69.467  1.00  0.00    -0.350 C  
HETATM   18  C   UNL     1     -12.207  11.962  70.496  1.00  0.00    -0.336 C  
HETATM   19  O   UNL     1     -11.721  10.843  70.471  1.00  0.00    -0.318 OA 
HETATM   20  O   UNL     1     -13.036  12.364  71.489  1.00  0.00    -0.383 OA 
ENDBRANCH  16  17
ENDBRANCH  15  16
ENDBRANCH  14  15
ENDBRANCH  13  14
ENDBRANCH  12  13
ENDBRANCH  11  12
ENDBRANCH  10  11
ENDBRANCH   8   9
ENDBRANCH   7   8
ENDBRANCH   5   6
ENDBRANCH   4   5
ENDBRANCH   3   4
ENDBRANCH   2   3
TORSDOF 13
ENDMDL
MODEL      272
REMARK 921   NORMALIZED FREE ENERGY PREDICTED BY IDOCK:   -3.37 KCAL/MOL
REMARK 922        TOTAL FREE ENERGY PREDICTED BY IDOCK:   -7.68 KCAL/MOL
REMARK 923 INTER-LIGAND FREE ENERGY PREDICTED BY IDOCK:   -5.54 KCAL/MOL
REMARK 924 INTRA-LIGAND FREE ENERGY PREDICTED BY IDOCK:   -2.14 KCAL/MOL
REMARK 927      BINDING AFFINITY PREDICTED BY RF-SCORE:    0.00 PKD
ROOT
HETATM    1  C   UNL     1      -9.293   9.295  65.442  1.00  0.00    -0.292 C  
HETATM    2  C   UNL     1     -10.213  10.497  65.563  1.00  0.00    -0.325 C  
ENDROOT
BRANCH   2   3
HETATM    3  C   UNL     1     -10.476  11.127  64.201  1.00  0.00    -0.442 C  
BRANCH   3   4
HETATM    4  C   UNL     1     -11.675  12.071  64.252  1.00  0.00    -0.425 C  
BRANCH   4   5
HETATM    5  C   UNL     1     -11.401  13.195  65.242  1.00  0.00    -0.321 C  
BRANCH   5   6
HETATM    6  C   UNL     1     -11.060  14.498  64.585  1.00  0.00    -0.356 C  
HETATM    7  C   UNL     1     -10.802  15.614  65.285  1.00  0.00    -0.420 C  
BRANCH   7   8
HETATM    8  C   UNL     1     -10.849  15.703  66.782  1.00  0.00    -0.277 C  
BRANCH   8   9
HETATM    9  C   UNL     1     -10.064  16.872  67.296  1.00  0.00    -0.286 C  
HETATM   10  C   UNL     1      -9.213  16.812  68.332  1.00  0.00    -0.229 C  
BRANCH  10  11
HETATM   11  C   UNL     1      -8.981  15.552  69.111  1.00  0.00    -0.256 C  
BRANCH  11  12
HETATM   12  C   UNL     1      -7.539  15.074  69.061  1.00  0.00    -0.160 C  
BRANCH  12  13
HETATM   13  C   UNL     1      -7.418  13.914  68.077  1.00  0.00    -0.135 C  
BRANCH  13  14
HETATM   14  C   UNL     1      -8.775  13.264  67.846  1.00  0.00    -0.192 C  
BRANCH  14  15
HETATM   15  C   UNL     1      -8.898  11.948  68.609  1.00  0.00    -0.041 C  
BRANCH  15  16
HETATM   16  C   UNL     1     -10.367  11.607  68.837  1.00  0.00    -0.175 C  
BRANCH  16  17
HETATM   17  C   UNL     1     -11.190  12.846  69.172  1.00  0.00    -0.293 C  
HETATM   18  C   UNL     1     -12.150  12.580  70.305  1.00  0.00    -0.294 C  
HETATM   19  O   UNL     1     -12.277  11.522  70.899  1.00  0.00    -0.368 OA 
HETATM   20  O   UNL     1     -12.892  13.671  70.614  1.00  0.00    -0.253 OA 
ENDBRANCH  16  17
ENDBRANCH  15  16
ENDBRANCH  14  15
ENDBRANCH  13  14
ENDBRANCH  12  13
ENDBRANCH  11  12
ENDBRANCH  10  11
ENDBRANCH   8   9
ENDBRANCH   7   8
ENDBRANCH   5   6
ENDBRANCH   4   5
ENDBRANCH   3   4
ENDBRANCH   2   3
TORSDOF 13
ENDMDL
MODEL      273
REMARK 921   NORMALIZED FREE ENERGY PREDICTED BY IDOCK:   -3.36 KCAL/MOL
REMARK 922        TOTAL FREE ENERGY PREDICTED BY IDOCK:   -7.67 KCAL/MOL
REMARK 923 INTER-LIGAND FREE ENERGY PREDICTED BY IDOCK:   -5.83 KCAL/MOL
REMARK 924 INTRA-LIGAND FREE ENERGY PREDICTED BY IDOCK:   -1.84 KCAL/MOL
REMARK 927      BINDING AFFINITY PREDICTED BY RF-SCORE:    0.00 PKD
ROOT
HETATM    1  C   UNL     1      -7.579  17.654  68.555  1.00  0.00    -0.272 C  
HETATM    2  C   UNL     1      -8.729  16.661  68.536  1.00  0.00    -0.242 C  
ENDROOT
BRANCH   2   3
HETATM    3  C   UNL     1      -8.219  15.229  68.626  1.00  0.00    -0.159 C  
BRANCH   3   4
HETATM    4  C   UNL     1      -8.344  14.513  67.282  1.00  0.00    -0.232 C  
BRANCH   4   5
HETATM    5  C   UNL     1      -7.614  13.178  67.342  1.00  0.00    -0.137 C  
BRANCH   5   6
HETATM    6  C   UNL     1      -7.629  12.552  68.704  1.00  0.00    -0.080 C  
HETATM    7  C   UNL     1      -7.699  11.224  68.887  1.00  0.00    -0.125 C  
BRANCH   7   8
HETATM    8  C   UNL     1      -7.798  10.221  67.776  1.00  0.00    -0.101 C  
BRANCH   8   9
HETATM    9  C   UNL     1      -9.224   9.896  67.443  1.00  0.00    -0.151 C  
HETATM   10  C   UNL     1      -9.621   9.347  66.285  1.00  0.00    -0.297 C  
BRANCH  10  11
HETATM   11  C   UNL     1      -8.665   9.025  65.177  1.00  0.00    -0.223 C  
BRANCH  11  12
HETATM   12  C   UNL     1      -8.417  10.198  64.242  1.00  0.00    -0.179 C  
BRANCH  12  13
HETATM   13  C   UNL     1      -9.486  10.218  63.151  1.00  0.00    -0.337 C  
BRANCH  13  14
HETATM   14  C   UNL     1     -10.189  11.567  63.117  1.00  0.00    -0.389 C  
BRANCH  14  15
HETATM   15  C   UNL     1     -11.274  11.656  64.186  1.00  0.00    -0.421 C  
BRANCH  15  16
HETATM   16  C   UNL     1     -10.909  12.716  65.220  1.00  0.00    -0.319 C  
BRANCH  16  17
HETATM   17  C   UNL     1     -10.790  14.101  64.592  1.00  0.00    -0.401 C  
HETATM   18  C   UNL     1     -12.127  14.800  64.541  1.00  0.00    -0.446 C  
HETATM   19  O   UNL     1     -13.185  14.345  64.942  1.00  0.00    -0.504 OA 
HETATM   20  O   UNL     1     -12.039  16.031  63.982  1.00  0.00    -0.810 OA 
ENDBRANCH  16  17
ENDBRANCH  15  16
ENDBRANCH  14  15
ENDBRANCH  13  14
ENDBRANCH  12  13
ENDBRANCH  11  12
ENDBRANCH  10  11
ENDBRANCH   8   9
ENDBRANCH   7   8
ENDBRANCH   5   6
ENDBRANCH   4   5
ENDBRANCH   3   4
ENDBRANCH   2   3
TORSDOF 13
ENDMDL
MODEL      274
REMARK 921   NORMALIZED FREE ENERGY PREDICTED BY IDOCK:   -3.36 KCAL/MOL
REMARK 922        TOTAL FREE ENERGY PREDICTED BY IDOCK:   -7.66 KCAL/MOL
REMARK 923 INTER-LIGAND FREE ENERGY PREDICTED BY IDOCK:   -5.14 KCAL/MOL
REMARK 924 INTRA-LIGAND FREE ENERGY PREDICTED BY IDOCK:   -2.52 KCAL/MOL
REMARK 927      BINDING AFFINITY PREDICTED BY RF-SCORE:    0.00 PKD
ROOT
HETATM    1  C   UNL     1     -10.401   8.933  67.547  1.00  0.00    -0.328 C  
HETATM    2  C   UNL     1     -10.073  10.322  67.028  1.00  0.00    -0.268 C  
ENDROOT
BRANCH   2   3
HETATM    3  C   UNL     1      -9.004  10.990  67.885  1.00  0.00    -0.144 C  
BRANCH   3   4
HETATM    4  C   UNL     1      -7.708  11.182  67.100  1.00  0.00    -0.136 C  
BRANCH   4   5
HETATM    5  C   UNL     1      -7.290  12.645  67.151  1.00  0.00    -0.043 C  
BRANCH   5   6
HETATM    6  C   UNL     1      -6.702  13.050  68.469  1.00  0.00    -0.092 C  
HETATM    7  C   UNL     1      -7.155  14.103  69.168  1.00  0.00    -0.099 C  
BRANCH   7   8
HETATM    8  C   UNL     1      -8.265  15.005  68.715  1.00  0.00    -0.168 C  
BRANCH   8   9
HETATM    9  C   UNL     1      -7.828  16.438  68.648  1.00  0.00    -0.211 C  
HETATM   10  C   UNL     1      -8.016  17.235  67.585  1.00  0.00    -0.195 C  
BRANCH  10  11
HETATM   11  C   UNL     1      -8.668  16.754  66.324  1.00  0.00    -0.342 C  
BRANCH  11  12
HETATM   12  C   UNL     1     -10.107  17.222  66.178  1.00  0.00    -0.312 C  
BRANCH  12  13
HETATM   13  C   UNL     1     -10.907  16.184  65.395  1.00  0.00    -0.319 C  
BRANCH  13  14
HETATM   14  C   UNL     1     -10.059  14.950  65.124  1.00  0.00    -0.354 C  
BRANCH  14  15
HETATM   15  C   UNL     1     -10.505  13.769  65.982  1.00  0.00    -0.297 C  
BRANCH  15  16
HETATM   16  C   UNL     1     -11.818  14.096  66.688  1.00  0.00    -0.447 C  
BRANCH  16  17
HETATM   17  C   UNL     1     -11.893  13.451  68.068  1.00  0.00    -0.392 C  
HETATM   18  C   UNL     1     -11.852  14.487  69.164  1.00  0.00    -0.319 C  
HETATM   19  O   UNL     1     -11.769  15.693  69.002  1.00  0.00    -0.364 OA 
HETATM   20  O   UNL     1     -11.914  13.930  70.397  1.00  0.00    -0.313 OA 
ENDBRANCH  16  17
ENDBRANCH  15  16
ENDBRANCH  14  15
ENDBRANCH  13  14
ENDBRANCH  12  13
ENDBRANCH  11  12
ENDBRANCH  10  11
ENDBRANCH   8   9
ENDBRANCH   7   8
ENDBRANCH   5   6
ENDBRANCH   4   5
ENDBRANCH   3   4
ENDBRANCH   2   3
TORSDOF 13
ENDMDL
MODEL      275
REMARK 921   NORMALIZED FREE ENERGY PREDICTED BY IDOCK:   -3.35 KCAL/MOL
REMARK 922        TOTAL FREE ENERGY PREDICTED BY IDOCK:   -7.65 KCAL/MOL
REMARK 923 INTER-LIGAND FREE ENERGY PREDICTED BY IDOCK:   -5.79 KCAL/MOL
REMARK 924 INTRA-LIGAND FREE ENERGY PREDICTED BY IDOCK:   -1.86 KCAL/MOL
REMARK 927      BINDING AFFINITY PREDICTED BY RF-SCORE:    0.00 PKD
ROOT
HETATM    1  C   UNL     1     -12.515  12.988  65.271  1.00  0.00    -0.555 C  
HETATM    2  C   UNL     1     -11.296  13.586  65.950  1.00  0.00    -0.321 C  
ENDROOT
BRANCH   2   3
HETATM    3  C   UNL     1     -11.702  14.585  67.026  1.00  0.00    -0.412 C  
BRANCH   3   4
HETATM    4  C   UNL     1     -11.979  13.884  68.354  1.00  0.00    -0.391 C  
BRANCH   4   5
HETATM    5  C   UNL     1     -10.876  12.874  68.641  1.00  0.00    -0.288 C  
BRANCH   5   6
HETATM    6  C   UNL     1     -11.379  11.600  69.250  1.00  0.00    -0.353 C  
HETATM    7  C   UNL     1     -11.010  10.390  68.801  1.00  0.00    -0.287 C  
BRANCH   7   8
HETATM    8  C   UNL     1     -10.089  10.164  67.638  1.00  0.00    -0.231 C  
BRANCH   8   9
HETATM    9  C   UNL     1     -10.332   8.837  66.984  1.00  0.00    -0.353 C  
HETATM   10  C   UNL     1      -9.453   7.822  66.988  1.00  0.00    -0.210 C  
BRANCH  10  11
HETATM   11  C   UNL     1      -8.105   7.928  67.634  1.00  0.00    -0.124 C  
BRANCH  11  12
HETATM   12  C   UNL     1      -7.728   6.694  68.437  1.00  0.00    -0.105 C  
BRANCH  12  13
HETATM   13  C   UNL     1      -8.039   6.928  69.913  1.00  0.00    -0.125 C  
BRANCH  13  14
HETATM   14  C   UNL     1      -8.870   5.783  70.473  1.00  0.00    -0.144 C  
BRANCH  14  15
HETATM   15  C   UNL     1     -10.240   5.713  69.805  1.00  0.00    -0.321 C  
BRANCH  15  16
HETATM   16  C   UNL     1     -11.340   5.986  70.826  1.00  0.00    -0.295 C  
BRANCH  16  17
HETATM   17  C   UNL     1     -11.841   7.424  70.745  1.00  0.00    -0.288 C  
HETATM   18  C   UNL     1     -11.340   8.248  71.906  1.00  0.00    -0.308 C  
HETATM   19  O   UNL     1     -10.625   7.846  72.809  1.00  0.00    -0.299 OA 
HETATM   20  O   UNL     1     -11.779   9.528  71.852  1.00  0.00    -0.374 OA 
ENDBRANCH  16  17
ENDBRANCH  15  16
ENDBRANCH  14  15
ENDBRANCH  13  14
ENDBRANCH  12  13
ENDBRANCH  11  12
ENDBRANCH  10  11
ENDBRANCH   8   9
ENDBRANCH   7   8
ENDBRANCH   5   6
ENDBRANCH   4   5
ENDBRANCH   3   4
ENDBRANCH   2   3
TORSDOF 13
ENDMDL
MODEL      276
REMARK 921   NORMALIZED FREE ENERGY PREDICTED BY IDOCK:   -3.35 KCAL/MOL
REMARK 922        TOTAL FREE ENERGY PREDICTED BY IDOCK:   -7.64 KCAL/MOL
REMARK 923 INTER-LIGAND FREE ENERGY PREDICTED BY IDOCK:   -6.31 KCAL/MOL
REMARK 924 INTRA-LIGAND FREE ENERGY PREDICTED BY IDOCK:   -1.33 KCAL/MOL
REMARK 927      BINDING AFFINITY PREDICTED BY RF-SCORE:    0.00 PKD
ROOT
HETATM    1  C   UNL     1      -9.390   2.514  64.857  1.00  0.00    -0.112 C  
HETATM    2  C   UNL     1      -9.879   3.888  65.279  1.00  0.00    -0.178 C  
ENDROOT
BRANCH   2   3
HETATM    3  C   UNL     1      -9.656   4.116  66.769  1.00  0.00    -0.229 C  
BRANCH   3   4
HETATM    4  C   UNL     1     -10.530   5.255  67.290  1.00  0.00    -0.236 C  
BRANCH   4   5
HETATM    5  C   UNL     1     -10.170   5.556  68.738  1.00  0.00    -0.270 C  
BRANCH   5   6
HETATM    6  C   UNL     1      -9.749   6.977  68.964  1.00  0.00    -0.145 C  
HETATM    7  C   UNL     1     -10.414   7.805  69.785  1.00  0.00    -0.233 C  
BRANCH   7   8
HETATM    8  C   UNL     1     -11.653   7.430  70.543  1.00  0.00    -0.256 C  
BRANCH   8   9
HETATM    9  C   UNL     1     -11.594   7.888  71.970  1.00  0.00    -0.357 C  
HETATM   10  C   UNL     1     -12.280   8.934  72.455  1.00  0.00    -0.365 C  
BRANCH  10  11
HETATM   11  C   UNL     1     -13.167   9.784  71.595  1.00  0.00    -0.514 C  
BRANCH  11  12
HETATM   12  C   UNL     1     -12.602  11.172  71.342  1.00  0.00    -0.479 C  
BRANCH  12  13
HETATM   13  C   UNL     1     -12.685  11.495  69.851  1.00  0.00     0.089 C  
BRANCH  13  14
HETATM   14  C   UNL     1     -11.303  11.446  69.217  1.00  0.00    -0.355 C  
BRANCH  14  15
HETATM   15  C   UNL     1     -11.300  10.588  67.955  1.00  0.00    -0.319 C  
BRANCH  15  16
HETATM   16  C   UNL     1     -10.875  11.421  66.751  1.00  0.00    -0.336 C  
BRANCH  16  17
HETATM   17  C   UNL     1     -11.764  12.647  66.570  1.00  0.00    -0.463 C  
HETATM   18  C   UNL     1     -12.343  12.708  65.178  1.00  0.00    -0.484 C  
HETATM   19  O   UNL     1     -12.146  11.898  64.288  1.00  0.00    -0.319 OA 
HETATM   20  O   UNL     1     -13.134  13.794  65.000  1.00  0.00    -0.751 OA 
ENDBRANCH  16  17
ENDBRANCH  15  16
ENDBRANCH  14  15
ENDBRANCH  13  14
ENDBRANCH  12  13
ENDBRANCH  11  12
ENDBRANCH  10  11
ENDBRANCH   8   9
ENDBRANCH   7   8
ENDBRANCH   5   6
ENDBRANCH   4   5
ENDBRANCH   3   4
ENDBRANCH   2   3
TORSDOF 13
ENDMDL
MODEL      277
REMARK 921   NORMALIZED FREE ENERGY PREDICTED BY IDOCK:   -3.34 KCAL/MOL
REMARK 922        TOTAL FREE ENERGY PREDICTED BY IDOCK:   -7.63 KCAL/MOL
REMARK 923 INTER-LIGAND FREE ENERGY PREDICTED BY IDOCK:   -6.07 KCAL/MOL
REMARK 924 INTRA-LIGAND FREE ENERGY PREDICTED BY IDOCK:   -1.55 KCAL/MOL
REMARK 927      BINDING AFFINITY PREDICTED BY RF-SCORE:    0.00 PKD
ROOT
HETATM    1  C   UNL     1      -8.031  15.931  67.782  1.00  0.00    -0.154 C  
HETATM    2  C   UNL     1      -9.475  15.898  67.313  1.00  0.00    -0.217 C  
ENDROOT
BRANCH   2   3
HETATM    3  C   UNL     1      -9.558  15.812  65.795  1.00  0.00    -0.355 C  
BRANCH   3   4
HETATM    4  C   UNL     1     -10.980  16.076  65.304  1.00  0.00    -0.309 C  
BRANCH   4   5
HETATM    5  C   UNL     1     -11.483  14.871  64.520  1.00  0.00    -0.328 C  
BRANCH   5   6
HETATM    6  C   UNL     1     -12.468  14.035  65.280  1.00  0.00    -0.495 C  
HETATM    7  C   UNL     1     -12.151  12.836  65.795  1.00  0.00    -0.505 C  
BRANCH   7   8
HETATM    8  C   UNL     1     -10.808  12.183  65.654  1.00  0.00    -0.323 C  
BRANCH   8   9
HETATM    9  C   UNL     1      -9.959  12.385  66.873  1.00  0.00    -0.223 C  
HETATM   10  C   UNL     1      -9.493  11.388  67.641  1.00  0.00    -0.165 C  
BRANCH  10  11
HETATM   11  C   UNL     1      -9.805   9.948  67.368  1.00  0.00    -0.223 C  
BRANCH  11  12
HETATM   12  C   UNL     1      -8.569   9.065  67.326  1.00  0.00    -0.115 C  
BRANCH  12  13
HETATM   13  C   UNL     1      -8.362   8.408  68.689  1.00  0.00    -0.120 C  
BRANCH  13  14
HETATM   14  C   UNL     1      -9.692   8.246  69.411  1.00  0.00    -0.177 C  
BRANCH  14  15
HETATM   15  C   UNL     1      -9.577   8.632  70.882  1.00  0.00    -0.252 C  
BRANCH  15  16
HETATM   16  C   UNL     1     -10.679   9.618  71.257  1.00  0.00    -0.317 C  
BRANCH  16  17
HETATM   17  C   UNL     1     -11.886   8.911  71.863  1.00  0.00    -0.440 C  
HETATM   18  C   UNL     1     -13.052   9.855  72.026  1.00  0.00    -0.448 C  
HETATM   19  O   UNL     1     -13.061  11.037  71.722  1.00  0.00    -0.469 OA 
HETATM   20  O   UNL     1     -14.134   9.244  72.567  1.00  0.00    -0.440 OA 
ENDBRANCH  16  17
ENDBRANCH  15  16
ENDBRANCH  14  15
ENDBRANCH  13  14
ENDBRANCH  12  13
ENDBRANCH  11  12
ENDBRANCH  10  11
ENDBRANCH   8   9
ENDBRANCH   7   8
ENDBRANCH   5   6
ENDBRANCH   4   5
ENDBRANCH   3   4
ENDBRANCH   2   3
TORSDOF 13
ENDMDL
MODEL      278
REMARK 921   NORMALIZED FREE ENERGY PREDICTED BY IDOCK:   -3.33 KCAL/MOL
REMARK 922        TOTAL FREE ENERGY PREDICTED BY IDOCK:   -7.61 KCAL/MOL
REMARK 923 INTER-LIGAND FREE ENERGY PREDICTED BY IDOCK:   -5.96 KCAL/MOL
REMARK 924 INTRA-LIGAND FREE ENERGY PREDICTED BY IDOCK:   -1.64 KCAL/MOL
REMARK 927      BINDING AFFINITY PREDICTED BY RF-SCORE:    0.00 PKD
ROOT
HETATM    1  C   UNL     1     -10.575  19.550  66.539  1.00  0.00    -0.579 C  
HETATM    2  C   UNL     1      -9.170  19.081  66.876  1.00  0.00    -0.332 C  
ENDROOT
BRANCH   2   3
HETATM    3  C   UNL     1      -8.965  18.998  68.383  1.00  0.00    -0.378 C  
BRANCH   3   4
HETATM    4  C   UNL     1      -8.027  17.850  68.750  1.00  0.00    -0.246 C  
BRANCH   4   5
HETATM    5  C   UNL     1      -8.730  16.519  68.514  1.00  0.00    -0.228 C  
BRANCH   5   6
HETATM    6  C   UNL     1     -10.111  16.465  69.092  1.00  0.00    -0.278 C  
HETATM    7  C   UNL     1     -11.167  16.009  68.398  1.00  0.00    -0.364 C  
BRANCH   7   8
HETATM    8  C   UNL     1     -11.103  15.534  66.977  1.00  0.00    -0.238 C  
BRANCH   8   9
HETATM    9  C   UNL     1     -11.750  14.192  66.808  1.00  0.00    -0.432 C  
HETATM   10  C   UNL     1     -11.122  13.022  67.003  1.00  0.00    -0.311 C  
BRANCH  10  11
HETATM   11  C   UNL     1      -9.676  12.939  67.388  1.00  0.00    -0.201 C  
BRANCH  11  12
HETATM   12  C   UNL     1      -8.922  11.845  66.649  1.00  0.00    -0.198 C  
BRANCH  12  13
HETATM   13  C   UNL     1      -9.622  11.544  65.326  1.00  0.00    -0.244 C  
BRANCH  13  14
HETATM   14  C   UNL     1      -9.786  10.043  65.138  1.00  0.00    -0.380 C  
BRANCH  14  15
HETATM   15  C   UNL     1     -10.372   9.387  66.384  1.00  0.00    -0.237 C  
BRANCH  15  16
HETATM   16  C   UNL     1      -9.745   8.013  66.602  1.00  0.00    -0.313 C  
BRANCH  16  17
HETATM   17  C   UNL     1     -10.663   7.094  67.400  1.00  0.00    -0.368 C  
HETATM   18  C   UNL     1     -10.134   6.862  68.794  1.00  0.00    -0.166 C  
HETATM   19  O   UNL     1      -9.108   7.335  69.255  1.00  0.00    -0.139 OA 
HETATM   20  O   UNL     1     -10.937   6.044  69.517  1.00  0.00    -0.336 OA 
ENDBRANCH  16  17
ENDBRANCH  15  16
ENDBRANCH  14  15
ENDBRANCH  13  14
ENDBRANCH  12  13
ENDBRANCH  11  12
ENDBRANCH  10  11
ENDBRANCH   8   9
ENDBRANCH   7   8
ENDBRANCH   5   6
ENDBRANCH   4   5
ENDBRANCH   3   4
ENDBRANCH   2   3
TORSDOF 13
ENDMDL
MODEL      279
REMARK 921   NORMALIZED FREE ENERGY PREDICTED BY IDOCK:   -3.33 KCAL/MOL
REMARK 922        TOTAL FREE ENERGY PREDICTED BY IDOCK:   -7.60 KCAL/MOL
REMARK 923 INTER-LIGAND FREE ENERGY PREDICTED BY IDOCK:   -5.72 KCAL/MOL
REMARK 924 INTRA-LIGAND FREE ENERGY PREDICTED BY IDOCK:   -1.88 KCAL/MOL
REMARK 927      BINDING AFFINITY PREDICTED BY RF-SCORE:    0.00 PKD
ROOT
HETATM    1  C   UNL     1      -8.755   8.237  73.084  1.00  0.00    -0.291 C  
HETATM    2  C   UNL     1      -9.948   7.446  72.578  1.00  0.00    -0.228 C  
ENDROOT
BRANCH   2   3
HETATM    3  C   UNL     1     -10.432   7.980  71.236  1.00  0.00    -0.238 C  
BRANCH   3   4
HETATM    4  C   UNL     1     -10.670   9.487  71.295  1.00  0.00    -0.386 C  
BRANCH   4   5
HETATM    5  C   UNL     1     -11.825   9.860  70.376  1.00  0.00    -0.310 C  
BRANCH   5   6
HETATM    6  C   UNL     1     -11.675  11.214  69.751  1.00  0.00    -0.419 C  
HETATM    7  C   UNL     1     -11.239  11.384  68.492  1.00  0.00    -0.309 C  
BRANCH   7   8
HETATM    8  C   UNL     1     -10.829  10.265  67.581  1.00  0.00    -0.363 C  
BRANCH   8   9
HETATM    9  C   UNL     1      -9.676  10.653  66.704  1.00  0.00    -0.225 C  
HETATM   10  C   UNL     1      -9.804  11.117  65.451  1.00  0.00    -0.289 C  
BRANCH  10  11
HETATM   11  C   UNL     1     -11.136  11.267  64.781  1.00  0.00    -0.200 C  
BRANCH  11  12
HETATM   12  C   UNL     1     -11.702  12.674  64.882  1.00  0.00    -0.399 C  
BRANCH  12  13
HETATM   13  C   UNL     1     -10.627  13.687  64.494  1.00  0.00    -0.428 C  
BRANCH  13  14
HETATM   14  C   UNL     1     -10.875  15.020  65.185  1.00  0.00    -0.422 C  
BRANCH  14  15
HETATM   15  C   UNL     1      -9.654  15.467  65.984  1.00  0.00    -0.380 C  
BRANCH  15  16
HETATM   16  C   UNL     1      -9.633  14.778  67.345  1.00  0.00    -0.210 C  
BRANCH  16  17
HETATM   17  C   UNL     1      -8.363  13.957  67.541  1.00  0.00    -0.202 C  
HETATM   18  C   UNL     1      -7.691  14.287  68.852  1.00  0.00    -0.112 C  
HETATM   19  O   UNL     1      -8.086  15.101  69.670  1.00  0.00    -0.214 OA 
HETATM   20  O   UNL     1      -6.558  13.568  69.041  1.00  0.00    -0.100 OA 
ENDBRANCH  16  17
ENDBRANCH  15  16
ENDBRANCH  14  15
ENDBRANCH  13  14
ENDBRANCH  12  13
ENDBRANCH  11  12
ENDBRANCH  10  11
ENDBRANCH   8   9
ENDBRANCH   7   8
ENDBRANCH   5   6
ENDBRANCH   4   5
ENDBRANCH   3   4
ENDBRANCH   2   3
TORSDOF 13
ENDMDL
MODEL      280
REMARK 921   NORMALIZED FREE ENERGY PREDICTED BY IDOCK:   -3.32 KCAL/MOL
REMARK 922        TOTAL FREE ENERGY PREDICTED BY IDOCK:   -7.59 KCAL/MOL
REMARK 923 INTER-LIGAND FREE ENERGY PREDICTED BY IDOCK:   -5.94 KCAL/MOL
REMARK 924 INTRA-LIGAND FREE ENERGY PREDICTED BY IDOCK:   -1.65 KCAL/MOL
REMARK 927      BINDING AFFINITY PREDICTED BY RF-SCORE:    0.00 PKD
ROOT
HETATM    1  C   UNL     1     -13.310   8.794  71.891  1.00  0.00    -0.432 C  
HETATM    2  C   UNL     1     -11.845   9.091  72.158  1.00  0.00    -0.384 C  
ENDROOT
BRANCH   2   3
HETATM    3  C   UNL     1     -10.960   7.936  71.709  1.00  0.00    -0.290 C  
BRANCH   3   4
HETATM    4  C   UNL     1     -10.692   7.997  70.206  1.00  0.00    -0.239 C  
BRANCH   4   5
HETATM    5  C   UNL     1     -11.086   6.676  69.561  1.00  0.00    -0.378 C  
BRANCH   5   6
HETATM    6  C   UNL     1     -10.116   5.566  69.836  1.00  0.00    -0.305 C  
HETATM    7  C   UNL     1      -9.671   4.742  68.875  1.00  0.00    -0.244 C  
BRANCH   7   8
HETATM    8  C   UNL     1     -10.100   4.807  67.439  1.00  0.00    -0.177 C  
BRANCH   8   9
HETATM    9  C   UNL     1      -8.935   5.008  66.517  1.00  0.00    -0.116 C  
HETATM   10  C   UNL     1      -8.545   6.201  66.043  1.00  0.00    -0.145 C  
BRANCH  10  11
HETATM   11  C   UNL     1      -9.267   7.473  66.372  1.00  0.00    -0.212 C  
BRANCH  11  12
HETATM   12  C   UNL     1      -8.534   8.331  67.391  1.00  0.00    -0.125 C  
BRANCH  12  13
HETATM   13  C   UNL     1      -8.270   9.714  66.800  1.00  0.00    -0.113 C  
BRANCH  13  14
HETATM   14  C   UNL     1      -9.557  10.319  66.259  1.00  0.00    -0.238 C  
BRANCH  14  15
HETATM   15  C   UNL     1     -10.321  11.065  67.348  1.00  0.00    -0.242 C  
BRANCH  15  16
HETATM   16  C   UNL     1     -11.570  11.718  66.763  1.00  0.00    -0.287 C  
BRANCH  16  17
HETATM   17  C   UNL     1     -11.241  13.017  66.035  1.00  0.00    -0.320 C  
HETATM   18  C   UNL     1     -12.251  13.314  64.954  1.00  0.00    -0.420 C  
HETATM   19  O   UNL     1     -13.218  12.625  64.673  1.00  0.00    -0.828 OA 
HETATM   20  O   UNL     1     -11.971  14.464  64.295  1.00  0.00    -0.445 OA 
ENDBRANCH  16  17
ENDBRANCH  15  16
ENDBRANCH  14  15
ENDBRANCH  13  14
ENDBRANCH  12  13
ENDBRANCH  11  12
ENDBRANCH  10  11
ENDBRANCH   8   9
ENDBRANCH   7   8
ENDBRANCH   5   6
ENDBRANCH   4   5
ENDBRANCH   3   4
ENDBRANCH   2   3
TORSDOF 13
ENDMDL
MODEL      281
REMARK 921   NORMALIZED FREE ENERGY PREDICTED BY IDOCK:   -3.32 KCAL/MOL
REMARK 922        TOTAL FREE ENERGY PREDICTED BY IDOCK:   -7.59 KCAL/MOL
REMARK 923 INTER-LIGAND FREE ENERGY PREDICTED BY IDOCK:   -5.66 KCAL/MOL
REMARK 924 INTRA-LIGAND FREE ENERGY PREDICTED BY IDOCK:   -1.93 KCAL/MOL
REMARK 927      BINDING AFFINITY PREDICTED BY RF-SCORE:    0.00 PKD
ROOT
HETATM    1  C   UNL     1      -9.830   7.857  66.547  1.00  0.00    -0.272 C  
HETATM    2  C   UNL     1     -10.752   8.121  67.725  1.00  0.00    -0.166 C  
ENDROOT
BRANCH   2   3
HETATM    3  C   UNL     1     -10.822   9.608  68.045  1.00  0.00    -0.250 C  
BRANCH   3   4
HETATM    4  C   UNL     1     -10.427  10.452  66.835  1.00  0.00    -0.300 C  
BRANCH   4   5
HETATM    5  C   UNL     1     -10.122  11.876  67.281  1.00  0.00    -0.213 C  
BRANCH   5   6
HETATM    6  C   UNL     1     -11.323  12.773  67.271  1.00  0.00    -0.364 C  
HETATM    7  C   UNL     1     -11.887  13.235  68.398  1.00  0.00    -0.395 C  
BRANCH   7   8
HETATM    8  C   UNL     1     -11.414  12.898  69.781  1.00  0.00    -0.203 C  
BRANCH   8   9
HETATM    9  C   UNL     1     -12.504  13.059  70.798  1.00  0.00    -0.384 C  
HETATM   10  C   UNL     1     -12.958  12.067  71.580  1.00  0.00    -0.439 C  
BRANCH  10  11
HETATM   11  C   UNL     1     -12.431  10.667  71.492  1.00  0.00    -0.471 C  
BRANCH  11  12
HETATM   12  C   UNL     1     -13.511   9.637  71.205  1.00  0.00    -0.359 C  
BRANCH  12  13
HETATM   13  C   UNL     1     -13.031   8.255  71.641  1.00  0.00    -0.357 C  
BRANCH  13  14
HETATM   14  C   UNL     1     -11.704   8.359  72.378  1.00  0.00    -0.452 C  
BRANCH  14  15
HETATM   15  C   UNL     1     -10.985   7.013  72.421  1.00  0.00    -0.282 C  
BRANCH  15  16
HETATM   16  C   UNL     1      -9.863   6.981  71.387  1.00  0.00    -0.180 C  
BRANCH  16  17
HETATM   17  C   UNL     1     -10.025   5.818  70.414  1.00  0.00    -0.257 C  
HETATM   18  C   UNL     1      -8.821   5.682  69.514  1.00  0.00    -0.112 C  
HETATM   19  O   UNL     1      -7.830   6.393  69.536  1.00  0.00    -0.098 OA 
HETATM   20  O   UNL     1      -8.949   4.654  68.641  1.00  0.00    -0.101 OA 
ENDBRANCH  16  17
ENDBRANCH  15  16
ENDBRANCH  14  15
ENDBRANCH  13  14
ENDBRANCH  12  13
ENDBRANCH  11  12
ENDBRANCH  10  11
ENDBRANCH   8   9
ENDBRANCH   7   8
ENDBRANCH   5   6
ENDBRANCH   4   5
ENDBRANCH   3   4
ENDBRANCH   2   3
TORSDOF 13
ENDMDL
MODEL      282
REMARK 921   NORMALIZED FREE ENERGY PREDICTED BY IDOCK:   -3.32 KCAL/MOL
REMARK 922        TOTAL FREE ENERGY PREDICTED BY IDOCK:   -7.59 KCAL/MOL
REMARK 923 INTER-LIGAND FREE ENERGY PREDICTED BY IDOCK:   -6.12 KCAL/MOL
REMARK 924 INTRA-LIGAND FREE ENERGY PREDICTED BY IDOCK:   -1.47 KCAL/MOL
REMARK 927      BINDING AFFINITY PREDICTED BY RF-SCORE:    0.00 PKD
ROOT
HETATM    1  C   UNL     1      -7.102  16.076  69.311  1.00  0.00    -0.220 C  
HETATM    2  C   UNL     1      -6.101  17.153  69.692  1.00  0.00    -0.241 C  
ENDROOT
BRANCH   2   3
HETATM    3  C   UNL     1      -5.746  18.021  68.492  1.00  0.00    -0.174 C  
BRANCH   3   4
HETATM    4  C   UNL     1      -6.470  17.548  67.234  1.00  0.00    -0.177 C  
BRANCH   4   5
HETATM    5  C   UNL     1      -7.073  18.743  66.508  1.00  0.00    -0.240 C  
BRANCH   5   6
HETATM    6  C   UNL     1      -7.447  19.869  67.424  1.00  0.00    -0.307 C  
HETATM    7  C   UNL     1      -8.586  19.873  68.134  1.00  0.00    -0.286 C  
BRANCH   7   8
HETATM    8  C   UNL     1      -9.620  18.787  68.081  1.00  0.00    -0.373 C  
BRANCH   8   9
HETATM    9  C   UNL     1     -10.457  18.874  66.840  1.00  0.00    -0.496 C  
HETATM   10  C   UNL     1     -10.691  17.841  66.015  1.00  0.00    -0.119 C  
BRANCH  10  11
HETATM   11  C   UNL     1     -10.106  16.480  66.244  1.00  0.00    -0.347 C  
BRANCH  11  12
HETATM   12  C   UNL     1     -10.488  15.476  65.168  1.00  0.00    -0.431 C  
BRANCH  12  13
HETATM   13  C   UNL     1     -11.736  14.710  65.602  1.00  0.00    -0.304 C  
BRANCH  13  14
HETATM   14  C   UNL     1     -11.676  14.390  67.088  1.00  0.00    -0.424 C  
BRANCH  14  15
HETATM   15  C   UNL     1     -11.516  12.892  67.328  1.00  0.00    -0.388 C  
BRANCH  15  16
HETATM   16  C   UNL     1     -12.031  12.522  68.716  1.00  0.00    -0.283 C  
BRANCH  16  17
HETATM   17  C   UNL     1     -11.088  11.559  69.430  1.00  0.00    -0.287 C  
HETATM   18  C   UNL     1     -11.820  10.735  70.461  1.00  0.00    -0.356 C  
HETATM   19  O   UNL     1     -13.011  10.805  70.716  1.00  0.00    -0.336 OA 
HETATM   20  O   UNL     1     -10.995   9.876  71.108  1.00  0.00    -0.333 OA 
ENDBRANCH  16  17
ENDBRANCH  15  16
ENDBRANCH  14  15
ENDBRANCH  13  14
ENDBRANCH  12  13
ENDBRANCH  11  12
ENDBRANCH  10  11
ENDBRANCH   8   9
ENDBRANCH   7   8
ENDBRANCH   5   6
ENDBRANCH   4   5
ENDBRANCH   3   4
ENDBRANCH   2   3
TORSDOF 13
ENDMDL
MODEL      283
REMARK 921   NORMALIZED FREE ENERGY PREDICTED BY IDOCK:   -3.32 KCAL/MOL
REMARK 922        TOTAL FREE ENERGY PREDICTED BY IDOCK:   -7.58 KCAL/MOL
REMARK 923 INTER-LIGAND FREE ENERGY PREDICTED BY IDOCK:   -5.61 KCAL/MOL
REMARK 924 INTRA-LIGAND FREE ENERGY PREDICTED BY IDOCK:   -1.97 KCAL/MOL
REMARK 927      BINDING AFFINITY PREDICTED BY RF-SCORE:    0.00 PKD
ROOT
HETATM    1  C   UNL     1      -9.461  11.260  66.025  1.00  0.00    -0.240 C  
HETATM    2  C   UNL     1     -10.174  11.119  64.692  1.00  0.00    -0.376 C  
ENDROOT
BRANCH   2   3
HETATM    3  C   UNL     1     -10.919  12.398  64.329  1.00  0.00    -0.396 C  
BRANCH   3   4
HETATM    4  C   UNL     1     -11.919  12.782  65.417  1.00  0.00    -0.482 C  
BRANCH   4   5
HETATM    5  C   UNL     1     -11.914  14.292  65.608  1.00  0.00    -0.390 C  
BRANCH   5   6
HETATM    6  C   UNL     1     -10.558  14.847  65.927  1.00  0.00    -0.334 C  
HETATM    7  C   UNL     1     -10.320  15.588  67.021  1.00  0.00    -0.279 C  
BRANCH   7   8
HETATM    8  C   UNL     1     -11.364  15.969  68.028  1.00  0.00    -0.266 C  
BRANCH   8   9
HETATM    9  C   UNL     1     -10.969  15.572  69.419  1.00  0.00    -0.276 C  
HETATM   10  C   UNL     1     -11.290  14.400  69.988  1.00  0.00    -0.253 C  
BRANCH  10  11
HETATM   11  C   UNL     1     -12.115  13.364  69.287  1.00  0.00    -0.312 C  
BRANCH  11  12
HETATM   12  C   UNL     1     -11.355  12.075  69.019  1.00  0.00    -0.331 C  
BRANCH  12  13
HETATM   13  C   UNL     1     -11.748  11.024  70.055  1.00  0.00    -0.437 C  
BRANCH  13  14
HETATM   14  C   UNL     1     -10.565  10.122  70.377  1.00  0.00    -0.287 C  
BRANCH  14  15
HETATM   15  C   UNL     1     -10.682   8.776  69.668  1.00  0.00    -0.212 C  
BRANCH  15  16
HETATM   16  C   UNL     1      -9.342   8.385  69.054  1.00  0.00    -0.147 C  
BRANCH  16  17
HETATM   17  C   UNL     1      -9.307   6.910  68.668  1.00  0.00    -0.135 C  
HETATM   18  C   UNL     1      -9.577   6.719  67.196  1.00  0.00    -0.144 C  
HETATM   19  O   UNL     1      -9.798   7.608  66.390  1.00  0.00    -0.191 OA 
HETATM   20  O   UNL     1      -9.553   5.413  66.836  1.00  0.00    -0.127 OA 
ENDBRANCH  16  17
ENDBRANCH  15  16
ENDBRANCH  14  15
ENDBRANCH  13  14
ENDBRANCH  12  13
ENDBRANCH  11  12
ENDBRANCH  10  11
ENDBRANCH   8   9
ENDBRANCH   7   8
ENDBRANCH   5   6
ENDBRANCH   4   5
ENDBRANCH   3   4
ENDBRANCH   2   3
TORSDOF 13
ENDMDL
MODEL      284
REMARK 921   NORMALIZED FREE ENERGY PREDICTED BY IDOCK:   -3.30 KCAL/MOL
REMARK 922        TOTAL FREE ENERGY PREDICTED BY IDOCK:   -7.55 KCAL/MOL
REMARK 923 INTER-LIGAND FREE ENERGY PREDICTED BY IDOCK:   -5.52 KCAL/MOL
REMARK 924 INTRA-LIGAND FREE ENERGY PREDICTED BY IDOCK:   -2.04 KCAL/MOL
REMARK 927      BINDING AFFINITY PREDICTED BY RF-SCORE:    0.00 PKD
ROOT
HETATM    1  C   UNL     1     -12.280  13.756  66.454  1.00  0.00    -0.480 C  
HETATM    2  C   UNL     1     -10.775  13.589  66.340  1.00  0.00    -0.287 C  
ENDROOT
BRANCH   2   3
HETATM    3  C   UNL     1     -10.198  14.520  65.282  1.00  0.00    -0.431 C  
BRANCH   3   4
HETATM    4  C   UNL     1     -10.911  15.871  65.286  1.00  0.00    -0.401 C  
BRANCH   4   5
HETATM    5  C   UNL     1     -10.135  16.857  66.148  1.00  0.00    -0.347 C  
BRANCH   5   6
HETATM    6  C   UNL     1     -10.647  18.263  66.053  1.00  0.00    -0.318 C  
HETATM    7  C   UNL     1     -10.555  19.135  67.070  1.00  0.00    -0.551 C  
BRANCH   7   8
HETATM    8  C   UNL     1      -9.965  18.812  68.411  1.00  0.00    -0.441 C  
BRANCH   8   9
HETATM    9  C   UNL     1      -8.709  19.589  68.669  1.00  0.00    -0.377 C  
HETATM   10  C   UNL     1      -7.500  19.032  68.842  1.00  0.00    -0.364 C  
BRANCH  10  11
HETATM   11  C   UNL     1      -7.287  17.549  68.823  1.00  0.00    -0.260 C  
BRANCH  11  12
HETATM   12  C   UNL     1      -6.300  17.100  67.757  1.00  0.00    -0.158 C  
BRANCH  12  13
HETATM   13  C   UNL     1      -6.721  15.738  67.210  1.00  0.00    -0.197 C  
BRANCH  13  14
HETATM   14  C   UNL     1      -7.654  15.035  68.186  1.00  0.00    -0.113 C  
BRANCH  14  15
HETATM   15  C   UNL     1      -7.128  13.652  68.558  1.00  0.00    -0.107 C  
BRANCH  15  16
HETATM   16  C   UNL     1      -7.640  12.609  67.569  1.00  0.00    -0.160 C  
BRANCH  16  17
HETATM   17  C   UNL     1      -7.866  11.258  68.239  1.00  0.00    -0.130 C  
HETATM   18  C   UNL     1      -8.429  10.249  67.268  1.00  0.00    -0.125 C  
HETATM   19  O   UNL     1      -8.682  10.455  66.093  1.00  0.00    -0.144 OA 
HETATM   20  O   UNL     1      -8.638   9.043  67.849  1.00  0.00    -0.124 OA 
ENDBRANCH  16  17
ENDBRANCH  15  16
ENDBRANCH  14  15
ENDBRANCH  13  14
ENDBRANCH  12  13
ENDBRANCH  11  12
ENDBRANCH  10  11
ENDBRANCH   8   9
ENDBRANCH   7   8
ENDBRANCH   5   6
ENDBRANCH   4   5
ENDBRANCH   3   4
ENDBRANCH   2   3
TORSDOF 13
ENDMDL
MODEL      285
REMARK 921   NORMALIZED FREE ENERGY PREDICTED BY IDOCK:   -3.30 KCAL/MOL
REMARK 922        TOTAL FREE ENERGY PREDICTED BY IDOCK:   -7.55 KCAL/MOL
REMARK 923 INTER-LIGAND FREE ENERGY PREDICTED BY IDOCK:   -6.28 KCAL/MOL
REMARK 924 INTRA-LIGAND FREE ENERGY PREDICTED BY IDOCK:   -1.27 KCAL/MOL
REMARK 927      BINDING AFFINITY PREDICTED BY RF-SCORE:    0.00 PKD
ROOT
HETATM    1  C   UNL     1     -11.285   5.643  72.880  1.00  0.00    -0.338 C  
HETATM    2  C   UNL     1     -12.158   6.468  71.952  1.00  0.00    -0.388 C  
ENDROOT
BRANCH   2   3
HETATM    3  C   UNL     1     -11.381   6.915  70.720  1.00  0.00    -0.355 C  
BRANCH   3   4
HETATM    4  C   UNL     1     -10.034   7.523  71.108  1.00  0.00    -0.187 C  
BRANCH   4   5
HETATM    5  C   UNL     1     -10.057   9.024  70.854  1.00  0.00    -0.329 C  
BRANCH   5   6
HETATM    6  C   UNL     1     -11.391   9.653  71.122  1.00  0.00    -0.456 C  
HETATM    7  C   UNL     1     -11.975  10.502  70.262  1.00  0.00    -0.411 C  
BRANCH   7   8
HETATM    8  C   UNL     1     -11.367  10.941  68.962  1.00  0.00    -0.348 C  
BRANCH   8   9
HETATM    9  C   UNL     1     -11.740  12.352  68.619  1.00  0.00    -0.372 C  
HETATM   10  C   UNL     1     -11.940  12.797  67.369  1.00  0.00    -0.335 C  
BRANCH  10  11
HETATM   11  C   UNL     1     -11.778  11.917  66.166  1.00  0.00    -0.217 C  
BRANCH  11  12
HETATM   12  C   UNL     1     -11.794  12.687  64.856  1.00  0.00    -0.436 C  
BRANCH  12  13
HETATM   13  C   UNL     1     -12.266  14.117  65.107  1.00  0.00    -0.439 C  
BRANCH  13  14
HETATM   14  C   UNL     1     -11.280  15.116  64.519  1.00  0.00    -0.283 C  
BRANCH  14  15
HETATM   15  C   UNL     1     -10.561  15.898  65.615  1.00  0.00    -0.393 C  
BRANCH  15  16
HETATM   16  C   UNL     1      -9.406  15.076  66.179  1.00  0.00    -0.327 C  
BRANCH  16  17
HETATM   17  C   UNL     1      -8.608  15.860  67.215  1.00  0.00    -0.205 C  
HETATM   18  C   UNL     1      -8.053  14.952  68.285  1.00  0.00    -0.132 C  
HETATM   19  O   UNL     1      -8.204  13.743  68.343  1.00  0.00    -0.148 OA 
HETATM   20  O   UNL     1      -7.343  15.634  69.217  1.00  0.00    -0.177 OA 
ENDBRANCH  16  17
ENDBRANCH  15  16
ENDBRANCH  14  15
ENDBRANCH  13  14
ENDBRANCH  12  13
ENDBRANCH  11  12
ENDBRANCH  10  11
ENDBRANCH   8   9
ENDBRANCH   7   8
ENDBRANCH   5   6
ENDBRANCH   4   5
ENDBRANCH   3   4
ENDBRANCH   2   3
TORSDOF 13
ENDMDL
MODEL      286
REMARK 921   NORMALIZED FREE ENERGY PREDICTED BY IDOCK:   -3.29 KCAL/MOL
REMARK 922        TOTAL FREE ENERGY PREDICTED BY IDOCK:   -7.54 KCAL/MOL
REMARK 923 INTER-LIGAND FREE ENERGY PREDICTED BY IDOCK:   -5.40 KCAL/MOL
REMARK 924 INTRA-LIGAND FREE ENERGY PREDICTED BY IDOCK:   -2.14 KCAL/MOL
REMARK 927      BINDING AFFINITY PREDICTED BY RF-SCORE:    0.00 PKD
ROOT
HETATM    1  C   UNL     1     -10.592  14.639  65.536  1.00  0.00    -0.369 C  
HETATM    2  C   UNL     1     -10.928  15.625  66.641  1.00  0.00    -0.212 C  
ENDROOT
BRANCH   2   3
HETATM    3  C   UNL     1     -10.742  14.994  68.015  1.00  0.00    -0.262 C  
BRANCH   3   4
HETATM    4  C   UNL     1      -9.560  15.620  68.754  1.00  0.00    -0.215 C  
BRANCH   4   5
HETATM    5  C   UNL     1      -8.512  14.554  69.040  1.00  0.00    -0.048 C  
BRANCH   5   6
HETATM    6  C   UNL     1      -7.757  14.119  67.820  1.00  0.00    -0.175 C  
HETATM    7  C   UNL     1      -7.781  12.854  67.371  1.00  0.00    -0.160 C  
BRANCH   7   8
HETATM    8  C   UNL     1      -8.527  11.734  68.034  1.00  0.00    -0.157 C  
BRANCH   8   9
HETATM    9  C   UNL     1      -9.808  11.418  67.322  1.00  0.00    -0.209 C  
HETATM   10  C   UNL     1     -10.244  10.174  67.070  1.00  0.00    -0.290 C  
BRANCH  10  11
HETATM   11  C   UNL     1      -9.464   8.954  67.458  1.00  0.00    -0.172 C  
BRANCH  11  12
HETATM   12  C   UNL     1     -10.343   7.746  67.738  1.00  0.00    -0.284 C  
BRANCH  12  13
HETATM   13  C   UNL     1     -10.776   7.757  69.203  1.00  0.00    -0.139 C  
BRANCH  13  14
HETATM   14  C   UNL     1      -9.723   8.434  70.067  1.00  0.00    -0.176 C  
BRANCH  14  15
HETATM   15  C   UNL     1     -10.354   9.430  71.035  1.00  0.00    -0.382 C  
BRANCH  15  16
HETATM   16  C   UNL     1     -11.695   9.916  70.492  1.00  0.00    -0.373 C  
BRANCH  16  17
HETATM   17  C   UNL     1     -12.727  10.080  71.602  1.00  0.00    -0.535 C  
HETATM   18  C   UNL     1     -13.460   8.788  71.868  1.00  0.00    -0.404 C  
HETATM   19  O   UNL     1     -13.274   7.731  71.288  1.00  0.00    -0.285 OA 
HETATM   20  O   UNL     1     -14.384   8.917  72.850  1.00  0.00    -0.548 OA 
ENDBRANCH  16  17
ENDBRANCH  15  16
ENDBRANCH  14  15
ENDBRANCH  13  14
ENDBRANCH  12  13
ENDBRANCH  11  12
ENDBRANCH  10  11
ENDBRANCH   8   9
ENDBRANCH   7   8
ENDBRANCH   5   6
ENDBRANCH   4   5
ENDBRANCH   3   4
ENDBRANCH   2   3
TORSDOF 13
ENDMDL
MODEL      287
REMARK 921   NORMALIZED FREE ENERGY PREDICTED BY IDOCK:   -3.29 KCAL/MOL
REMARK 922        TOTAL FREE ENERGY PREDICTED BY IDOCK:   -7.54 KCAL/MOL
REMARK 923 INTER-LIGAND FREE ENERGY PREDICTED BY IDOCK:   -5.08 KCAL/MOL
REMARK 924 INTRA-LIGAND FREE ENERGY PREDICTED BY IDOCK:   -2.46 KCAL/MOL
REMARK 927      BINDING AFFINITY PREDICTED BY RF-SCORE:    0.00 PKD
ROOT
HETATM    1  C   UNL     1     -12.104  12.171  63.551  1.00  0.00    -0.649 C  
HETATM    2  C   UNL     1     -10.920  12.624  64.386  1.00  0.00    -0.386 C  
ENDROOT
BRANCH   2   3
HETATM    3  C   UNL     1     -11.379  13.399  65.615  1.00  0.00    -0.316 C  
BRANCH   3   4
HETATM    4  C   UNL     1     -12.016  12.470  66.647  1.00  0.00    -0.351 C  
BRANCH   4   5
HETATM    5  C   UNL     1     -11.114  11.266  66.878  1.00  0.00    -0.339 C  
BRANCH   5   6
HETATM    6  C   UNL     1     -11.053  10.834  68.312  1.00  0.00    -0.327 C  
HETATM    7  C   UNL     1     -10.617   9.620  68.683  1.00  0.00    -0.246 C  
BRANCH   7   8
HETATM    8  C   UNL     1     -10.170   8.553  67.727  1.00  0.00    -0.283 C  
BRANCH   8   9
HETATM    9  C   UNL     1      -9.024   7.757  68.275  1.00  0.00    -0.131 C  
HETATM   10  C   UNL     1      -7.734   7.999  67.992  1.00  0.00    -0.118 C  
BRANCH  10  11
HETATM   11  C   UNL     1      -7.306   9.090  67.059  1.00  0.00    -0.087 C  
BRANCH  11  12
HETATM   12  C   UNL     1      -6.956  10.385  67.773  1.00  0.00    -0.083 C  
BRANCH  12  13
HETATM   13  C   UNL     1      -7.560  11.567  67.019  1.00  0.00    -0.154 C  
BRANCH  13  14
HETATM   14  C   UNL     1      -7.879  12.706  67.977  1.00  0.00    -0.149 C  
BRANCH  14  15
HETATM   15  C   UNL     1      -7.934  14.046  67.249  1.00  0.00    -0.157 C  
BRANCH  15  16
HETATM   16  C   UNL     1      -8.616  15.094  68.123  1.00  0.00    -0.158 C  
BRANCH  16  17
HETATM   17  C   UNL     1      -9.981  14.621  68.609  1.00  0.00    -0.234 C  
HETATM   18  C   UNL     1     -11.005  15.727  68.537  1.00  0.00    -0.312 C  
HETATM   19  O   UNL     1     -10.800  16.864  68.145  1.00  0.00    -0.362 OA 
HETATM   20  O   UNL     1     -12.225  15.324  68.970  1.00  0.00    -0.239 OA 
ENDBRANCH  16  17
ENDBRANCH  15  16
ENDBRANCH  14  15
ENDBRANCH  13  14
ENDBRANCH  12  13
ENDBRANCH  11  12
ENDBRANCH  10  11
ENDBRANCH   8   9
ENDBRANCH   7   8
ENDBRANCH   5   6
ENDBRANCH   4   5
ENDBRANCH   3   4
ENDBRANCH   2   3
TORSDOF 13
ENDMDL
MODEL      288
REMARK 921   NORMALIZED FREE ENERGY PREDICTED BY IDOCK:   -3.28 KCAL/MOL
REMARK 922        TOTAL FREE ENERGY PREDICTED BY IDOCK:   -7.52 KCAL/MOL
REMARK 923 INTER-LIGAND FREE ENERGY PREDICTED BY IDOCK:   -6.41 KCAL/MOL
REMARK 924 INTRA-LIGAND FREE ENERGY PREDICTED BY IDOCK:   -1.11 KCAL/MOL
REMARK 927      BINDING AFFINITY PREDICTED BY RF-SCORE:    0.00 PKD
ROOT
HETATM    1  C   UNL     1      -9.097   5.168  66.284  1.00  0.00    -0.136 C  
HETATM    2  C   UNL     1     -10.601   5.231  66.480  1.00  0.00    -0.348 C  
ENDROOT
BRANCH   2   3
HETATM    3  C   UNL     1     -11.029   6.590  67.018  1.00  0.00    -0.466 C  
BRANCH   3   4
HETATM    4  C   UNL     1     -10.237   6.962  68.270  1.00  0.00    -0.201 C  
BRANCH   4   5
HETATM    5  C   UNL     1      -9.983   8.463  68.288  1.00  0.00    -0.214 C  
BRANCH   5   6
HETATM    6  C   UNL     1      -9.801   9.053  66.922  1.00  0.00    -0.288 C  
HETATM    7  C   UNL     1     -10.352  10.223  66.561  1.00  0.00    -0.276 C  
BRANCH   7   8
HETATM    8  C   UNL     1     -11.224  11.058  67.452  1.00  0.00    -0.355 C  
BRANCH   8   9
HETATM    9  C   UNL     1     -10.536  12.318  67.885  1.00  0.00    -0.232 C  
HETATM   10  C   UNL     1     -10.798  13.532  67.378  1.00  0.00    -0.279 C  
BRANCH  10  11
HETATM   11  C   UNL     1     -11.802  13.749  66.287  1.00  0.00    -0.426 C  
BRANCH  11  12
HETATM   12  C   UNL     1     -11.418  14.871  65.335  1.00  0.00    -0.320 C  
BRANCH  12  13
HETATM   13  C   UNL     1     -10.074  15.461  65.754  1.00  0.00    -0.391 C  
BRANCH  13  14
HETATM   14  C   UNL     1     -10.250  16.888  66.253  1.00  0.00    -0.337 C  
BRANCH  14  15
HETATM   15  C   UNL     1     -10.588  16.920  67.740  1.00  0.00    -0.340 C  
BRANCH  15  16
HETATM   16  C   UNL     1     -10.444  18.338  68.284  1.00  0.00    -0.324 C  
BRANCH  16  17
HETATM   17  C   UNL     1      -9.009  18.842  68.174  1.00  0.00    -0.337 C  
HETATM   18  C   UNL     1      -8.950  20.196  67.512  1.00  0.00    -0.343 C  
HETATM   19  O   UNL     1      -9.908  20.833  67.104  1.00  0.00    -0.463 OA 
HETATM   20  O   UNL     1      -7.681  20.658  67.403  1.00  0.00    -0.337 OA 
ENDBRANCH  16  17
ENDBRANCH  15  16
ENDBRANCH  14  15
ENDBRANCH  13  14
ENDBRANCH  12  13
ENDBRANCH  11  12
ENDBRANCH  10  11
ENDBRANCH   8   9
ENDBRANCH   7   8
ENDBRANCH   5   6
ENDBRANCH   4   5
ENDBRANCH   3   4
ENDBRANCH   2   3
TORSDOF 13
ENDMDL
MODEL      289
REMARK 921   NORMALIZED FREE ENERGY PREDICTED BY IDOCK:   -3.28 KCAL/MOL
REMARK 922        TOTAL FREE ENERGY PREDICTED BY IDOCK:   -7.51 KCAL/MOL
REMARK 923 INTER-LIGAND FREE ENERGY PREDICTED BY IDOCK:   -5.57 KCAL/MOL
REMARK 924 INTRA-LIGAND FREE ENERGY PREDICTED BY IDOCK:   -1.94 KCAL/MOL
REMARK 927      BINDING AFFINITY PREDICTED BY RF-SCORE:    0.00 PKD
ROOT
HETATM    1  C   UNL     1      -9.026  15.840  69.260  1.00  0.00    -0.266 C  
HETATM    2  C   UNL     1      -9.363  14.620  68.422  1.00  0.00    -0.201 C  
ENDROOT
BRANCH   2   3
HETATM    3  C   UNL     1     -10.719  14.775  67.746  1.00  0.00    -0.268 C  
BRANCH   3   4
HETATM    4  C   UNL     1     -11.848  14.304  68.659  1.00  0.00    -0.379 C  
BRANCH   4   5
HETATM    5  C   UNL     1     -11.705  12.811  68.923  1.00  0.00    -0.370 C  
BRANCH   5   6
HETATM    6  C   UNL     1     -11.870  11.970  67.693  1.00  0.00    -0.294 C  
HETATM    7  C   UNL     1     -11.059  10.939  67.409  1.00  0.00    -0.373 C  
BRANCH   7   8
HETATM    8  C   UNL     1      -9.892  10.523  68.255  1.00  0.00    -0.162 C  
BRANCH   8   9
HETATM    9  C   UNL     1      -9.667   9.041  68.205  1.00  0.00    -0.169 C  
HETATM   10  C   UNL     1      -8.557   8.463  67.722  1.00  0.00    -0.130 C  
BRANCH  10  11
HETATM   11  C   UNL     1      -7.422   9.255  67.147  1.00  0.00    -0.091 C  
BRANCH  11  12
HETATM   12  C   UNL     1      -6.668   8.514  66.055  1.00  0.00    -0.057 C  
BRANCH  12  13
HETATM   13  C   UNL     1      -7.578   8.319  64.845  1.00  0.00    -0.097 C  
BRANCH  13  14
HETATM   14  C   UNL     1      -7.586   9.568  63.976  1.00  0.00    -0.122 C  
BRANCH  14  15
HETATM   15  C   UNL     1      -8.993   9.893  63.482  1.00  0.00    -0.277 C  
BRANCH  15  16
HETATM   16  C   UNL     1      -9.573  11.061  64.273  1.00  0.00    -0.303 C  
BRANCH  16  17
HETATM   17  C   UNL     1     -10.966  11.440  63.780  1.00  0.00    -0.448 C  
HETATM   18  C   UNL     1     -11.231  12.915  63.957  1.00  0.00    -0.412 C  
HETATM   19  O   UNL     1     -10.452  13.727  64.429  1.00  0.00    -0.422 OA 
HETATM   20  O   UNL     1     -12.466  13.268  63.527  1.00  0.00    -0.728 OA 
ENDBRANCH  16  17
ENDBRANCH  15  16
ENDBRANCH  14  15
ENDBRANCH  13  14
ENDBRANCH  12  13
ENDBRANCH  11  12
ENDBRANCH  10  11
ENDBRANCH   8   9
ENDBRANCH   7   8
ENDBRANCH   5   6
ENDBRANCH   4   5
ENDBRANCH   3   4
ENDBRANCH   2   3
TORSDOF 13
ENDMDL
MODEL      290
REMARK 921   NORMALIZED FREE ENERGY PREDICTED BY IDOCK:   -3.28 KCAL/MOL
REMARK 922        TOTAL FREE ENERGY PREDICTED BY IDOCK:   -7.51 KCAL/MOL
REMARK 923 INTER-LIGAND FREE ENERGY PREDICTED BY IDOCK:   -5.14 KCAL/MOL
REMARK 924 INTRA-LIGAND FREE ENERGY PREDICTED BY IDOCK:   -2.37 KCAL/MOL
REMARK 927      BINDING AFFINITY PREDICTED BY RF-SCORE:    0.00 PKD
ROOT
HETATM    1  C   UNL     1     -10.542   8.069  66.934  1.00  0.00    -0.324 C  
HETATM    2  C   UNL     1     -10.610   9.542  66.571  1.00  0.00    -0.133 C  
ENDROOT
BRANCH   2   3
HETATM    3  C   UNL     1     -11.081  10.378  67.753  1.00  0.00    -0.365 C  
BRANCH   3   4
HETATM    4  C   UNL     1     -11.547  11.761  67.300  1.00  0.00    -0.344 C  
BRANCH   4   5
HETATM    5  C   UNL     1     -10.697  12.833  67.969  1.00  0.00    -0.246 C  
BRANCH   5   6
HETATM    6  C   UNL     1      -9.525  13.265  67.140  1.00  0.00    -0.240 C  
HETATM    7  C   UNL     1      -8.271  12.857  67.394  1.00  0.00    -0.187 C  
BRANCH   7   8
HETATM    8  C   UNL     1      -7.889  11.958  68.532  1.00  0.00    -0.136 C  
BRANCH   8   9
HETATM    9  C   UNL     1      -7.529  10.581  68.059  1.00  0.00    -0.090 C  
HETATM   10  C   UNL     1      -7.449   9.505  68.857  1.00  0.00    -0.074 C  
BRANCH  10  11
HETATM   11  C   UNL     1      -7.689   9.581  70.335  1.00  0.00    -0.177 C  
BRANCH  11  12
HETATM   12  C   UNL     1      -9.097   9.170  70.734  1.00  0.00    -0.313 C  
BRANCH  12  13
HETATM   13  C   UNL     1      -9.098   8.685  72.182  1.00  0.00    -0.301 C  
BRANCH  13  14
HETATM   14  C   UNL     1     -10.510   8.334  72.626  1.00  0.00    -0.373 C  
BRANCH  14  15
HETATM   15  C   UNL     1     -11.503   8.460  71.475  1.00  0.00    -0.335 C  
BRANCH  15  16
HETATM   16  C   UNL     1     -12.197   7.124  71.227  1.00  0.00    -0.403 C  
BRANCH  16  17
HETATM   17  C   UNL     1     -11.654   6.428  69.984  1.00  0.00    -0.446 C  
HETATM   18  C   UNL     1     -10.612   5.396  70.341  1.00  0.00    -0.252 C  
HETATM   19  O   UNL     1     -10.231   5.128  71.468  1.00  0.00    -0.195 OA 
HETATM   20  O   UNL     1     -10.117   4.769  69.246  1.00  0.00    -0.205 OA 
ENDBRANCH  16  17
ENDBRANCH  15  16
ENDBRANCH  14  15
ENDBRANCH  13  14
ENDBRANCH  12  13
ENDBRANCH  11  12
ENDBRANCH  10  11
ENDBRANCH   8   9
ENDBRANCH   7   8
ENDBRANCH   5   6
ENDBRANCH   4   5
ENDBRANCH   3   4
ENDBRANCH   2   3
TORSDOF 13
ENDMDL
MODEL      291
REMARK 921   NORMALIZED FREE ENERGY PREDICTED BY IDOCK:   -3.27 KCAL/MOL
REMARK 922        TOTAL FREE ENERGY PREDICTED BY IDOCK:   -7.50 KCAL/MOL
REMARK 923 INTER-LIGAND FREE ENERGY PREDICTED BY IDOCK:   -5.12 KCAL/MOL
REMARK 924 INTRA-LIGAND FREE ENERGY PREDICTED BY IDOCK:   -2.38 KCAL/MOL
REMARK 927      BINDING AFFINITY PREDICTED BY RF-SCORE:    0.00 PKD
ROOT
HETATM    1  C   UNL     1      -9.100   6.353  68.009  1.00  0.00    -0.113 C  
HETATM    2  C   UNL     1      -9.265   7.825  68.344  1.00  0.00    -0.137 C  
ENDROOT
BRANCH   2   3
HETATM    3  C   UNL     1     -10.493   8.410  67.659  1.00  0.00    -0.307 C  
BRANCH   3   4
HETATM    4  C   UNL     1     -10.468   9.937  67.691  1.00  0.00    -0.296 C  
BRANCH   4   5
HETATM    5  C   UNL     1     -10.584  10.421  69.129  1.00  0.00    -0.255 C  
BRANCH   5   6
HETATM    6  C   UNL     1     -11.942  10.957  69.469  1.00  0.00    -0.401 C  
HETATM    7  C   UNL     1     -12.600  10.603  70.585  1.00  0.00    -0.454 C  
BRANCH   7   8
HETATM    8  C   UNL     1     -12.081   9.626  71.598  1.00  0.00    -0.481 C  
BRANCH   8   9
HETATM    9  C   UNL     1     -13.113   8.602  71.964  1.00  0.00    -0.417 C  
HETATM   10  C   UNL     1     -13.095   7.328  71.542  1.00  0.00    -0.434 C  
BRANCH  10  11
HETATM   11  C   UNL     1     -12.037   6.801  70.620  1.00  0.00    -0.371 C  
BRANCH  11  12
HETATM   12  C   UNL     1     -10.812   6.279  71.353  1.00  0.00    -0.312 C  
BRANCH  12  13
HETATM   13  C   UNL     1     -11.249   5.491  72.586  1.00  0.00    -0.348 C  
BRANCH  13  14
HETATM   14  C   UNL     1     -10.484   4.180  72.681  1.00  0.00    -0.228 C  
BRANCH  14  15
HETATM   15  C   UNL     1      -9.797   3.840  71.362  1.00  0.00    -0.226 C  
BRANCH  15  16
HETATM   16  C   UNL     1      -8.295   3.677  71.576  1.00  0.00    -0.081 C  
BRANCH  16  17
HETATM   17  C   UNL     1      -7.493   4.633  70.699  1.00  0.00    -0.053 C  
HETATM   18  C   UNL     1      -7.102   5.878  71.457  1.00  0.00    -0.078 C  
HETATM   19  O   UNL     1      -7.376   6.120  72.621  1.00  0.00    -0.087 OA 
HETATM   20  O   UNL     1      -6.391   6.740  70.692  1.00  0.00    -0.040 OA 
ENDBRANCH  16  17
ENDBRANCH  15  16
ENDBRANCH  14  15
ENDBRANCH  13  14
ENDBRANCH  12  13
ENDBRANCH  11  12
ENDBRANCH  10  11
ENDBRANCH   8   9
ENDBRANCH   7   8
ENDBRANCH   5   6
ENDBRANCH   4   5
ENDBRANCH   3   4
ENDBRANCH   2   3
TORSDOF 13
ENDMDL
MODEL      292
REMARK 921   NORMALIZED FREE ENERGY PREDICTED BY IDOCK:   -3.27 KCAL/MOL
REMARK 922        TOTAL FREE ENERGY PREDICTED BY IDOCK:   -7.50 KCAL/MOL
REMARK 923 INTER-LIGAND FREE ENERGY PREDICTED BY IDOCK:   -5.52 KCAL/MOL
REMARK 924 INTRA-LIGAND FREE ENERGY PREDICTED BY IDOCK:   -1.97 KCAL/MOL
REMARK 927      BINDING AFFINITY PREDICTED BY RF-SCORE:    0.00 PKD
ROOT
HETATM    1  C   UNL     1     -10.266   8.734  67.650  1.00  0.00    -0.298 C  
HETATM    2  C   UNL     1     -10.106   9.744  66.528  1.00  0.00    -0.307 C  
ENDROOT
BRANCH   2   3
HETATM    3  C   UNL     1      -9.988  11.160  67.076  1.00  0.00    -0.223 C  
BRANCH   3   4
HETATM    4  C   UNL     1      -8.527  11.551  67.284  1.00  0.00    -0.152 C  
BRANCH   4   5
HETATM    5  C   UNL     1      -8.424  13.056  67.493  1.00  0.00    -0.190 C  
BRANCH   5   6
HETATM    6  C   UNL     1      -7.114  13.487  68.081  1.00  0.00    -0.117 C  
HETATM    7  C   UNL     1      -6.618  14.723  67.910  1.00  0.00    -0.175 C  
BRANCH   7   8
HETATM    8  C   UNL     1      -7.285  15.798  67.104  1.00  0.00    -0.241 C  
BRANCH   8   9
HETATM    9  C   UNL     1      -6.344  16.922  66.786  1.00  0.00    -0.239 C  
HETATM   10  C   UNL     1      -6.727  18.108  66.287  1.00  0.00    -0.275 C  
BRANCH  10  11
HETATM   11  C   UNL     1      -8.157  18.422  65.966  1.00  0.00    -0.118 C  
BRANCH  11  12
HETATM   12  C   UNL     1      -8.666  19.673  66.662  1.00  0.00    -0.392 C  
BRANCH  12  13
HETATM   13  C   UNL     1      -9.608  19.281  67.798  1.00  0.00    -0.395 C  
BRANCH  13  14
HETATM   14  C   UNL     1     -10.369  18.012  67.446  1.00  0.00    -0.391 C  
BRANCH  14  15
HETATM   15  C   UNL     1     -10.312  16.996  68.584  1.00  0.00    -0.351 C  
BRANCH  15  16
HETATM   16  C   UNL     1     -10.860  15.651  68.118  1.00  0.00    -0.301 C  
BRANCH  16  17
HETATM   17  C   UNL     1     -10.970  15.581  66.598  1.00  0.00    -0.248 C  
HETATM   18  C   UNL     1     -11.805  14.403  66.159  1.00  0.00    -0.382 C  
HETATM   19  O   UNL     1     -12.337  13.591  66.899  1.00  0.00    -0.345 OA 
HETATM   20  O   UNL     1     -11.910  14.325  64.811  1.00  0.00    -0.384 OA 
ENDBRANCH  16  17
ENDBRANCH  15  16
ENDBRANCH  14  15
ENDBRANCH  13  14
ENDBRANCH  12  13
ENDBRANCH  11  12
ENDBRANCH  10  11
ENDBRANCH   8   9
ENDBRANCH   7   8
ENDBRANCH   5   6
ENDBRANCH   4   5
ENDBRANCH   3   4
ENDBRANCH   2   3
TORSDOF 13
ENDMDL
MODEL      293
REMARK 921   NORMALIZED FREE ENERGY PREDICTED BY IDOCK:   -3.27 KCAL/MOL
REMARK 922        TOTAL FREE ENERGY PREDICTED BY IDOCK:   -7.49 KCAL/MOL
REMARK 923 INTER-LIGAND FREE ENERGY PREDICTED BY IDOCK:   -6.04 KCAL/MOL
REMARK 924 INTRA-LIGAND FREE ENERGY PREDICTED BY IDOCK:   -1.45 KCAL/MOL
REMARK 927      BINDING AFFINITY PREDICTED BY RF-SCORE:    0.00 PKD
ROOT
HETATM    1  C   UNL     1      -7.114   6.331  67.636  1.00  0.00    -0.081 C  
HETATM    2  C   UNL     1      -8.014   7.494  68.014  1.00  0.00    -0.123 C  
ENDROOT
BRANCH   2   3
HETATM    3  C   UNL     1      -8.061   8.536  66.904  1.00  0.00    -0.099 C  
BRANCH   3   4
HETATM    4  C   UNL     1      -9.350   8.421  66.093  1.00  0.00    -0.267 C  
BRANCH   4   5
HETATM    5  C   UNL     1     -10.177   9.688  66.262  1.00  0.00    -0.286 C  
BRANCH   5   6
HETATM    6  C   UNL     1      -9.372  10.946  66.135  1.00  0.00    -0.211 C  
HETATM    7  C   UNL     1      -9.790  12.001  65.418  1.00  0.00    -0.243 C  
BRANCH   7   8
HETATM    8  C   UNL     1     -11.077  12.044  64.648  1.00  0.00    -0.375 C  
BRANCH   8   9
HETATM    9  C   UNL     1     -12.146  12.790  65.388  1.00  0.00    -0.512 C  
HETATM   10  C   UNL     1     -12.211  14.128  65.474  1.00  0.00    -0.443 C  
BRANCH  10  11
HETATM   11  C   UNL     1     -11.184  15.025  64.851  1.00  0.00    -0.423 C  
BRANCH  11  12
HETATM   12  C   UNL     1     -10.096  15.455  65.822  1.00  0.00    -0.391 C  
BRANCH  12  13
HETATM   13  C   UNL     1     -10.710  16.294  66.941  1.00  0.00    -0.217 C  
BRANCH  13  14
HETATM   14  C   UNL     1     -10.383  15.694  68.300  1.00  0.00    -0.244 C  
BRANCH  14  15
HETATM   15  C   UNL     1     -11.647  15.257  69.034  1.00  0.00    -0.360 C  
BRANCH  15  16
HETATM   16  C   UNL     1     -11.709  13.735  69.118  1.00  0.00    -0.379 C  
BRANCH  16  17
HETATM   17  C   UNL     1     -12.305  13.266  70.440  1.00  0.00    -0.365 C  
HETATM   18  C   UNL     1     -12.372  11.760  70.511  1.00  0.00    -0.299 C  
HETATM   19  O   UNL     1     -12.005  10.988  69.641  1.00  0.00    -0.303 OA 
HETATM   20  O   UNL     1     -12.902  11.326  71.680  1.00  0.00    -0.424 OA 
ENDBRANCH  16  17
ENDBRANCH  15  16
ENDBRANCH  14  15
ENDBRANCH  13  14
ENDBRANCH  12  13
ENDBRANCH  11  12
ENDBRANCH  10  11
ENDBRANCH   8   9
ENDBRANCH   7   8
ENDBRANCH   5   6
ENDBRANCH   4   5
ENDBRANCH   3   4
ENDBRANCH   2   3
TORSDOF 13
ENDMDL
MODEL      294
REMARK 921   NORMALIZED FREE ENERGY PREDICTED BY IDOCK:   -3.25 KCAL/MOL
REMARK 922        TOTAL FREE ENERGY PREDICTED BY IDOCK:   -7.47 KCAL/MOL
REMARK 923 INTER-LIGAND FREE ENERGY PREDICTED BY IDOCK:   -6.46 KCAL/MOL
REMARK 924 INTRA-LIGAND FREE ENERGY PREDICTED BY IDOCK:   -1.01 KCAL/MOL
REMARK 927      BINDING AFFINITY PREDICTED BY RF-SCORE:    0.00 PKD
ROOT
HETATM    1  C   UNL     1     -10.605   3.201  73.493  1.00  0.00    -0.275 C  
HETATM    2  C   UNL     1     -10.737   4.401  72.571  1.00  0.00    -0.164 C  
ENDROOT
BRANCH   2   3
HETATM    3  C   UNL     1      -9.687   5.457  72.890  1.00  0.00    -0.165 C  
BRANCH   3   4
HETATM    4  C   UNL     1     -10.315   6.674  73.566  1.00  0.00    -0.318 C  
BRANCH   4   5
HETATM    5  C   UNL     1     -11.740   6.862  73.062  1.00  0.00     0.187 C  
BRANCH   5   6
HETATM    6  C   UNL     1     -12.054   8.277  72.680  1.00  0.00    -0.326 C  
HETATM    7  C   UNL     1     -11.481   8.885  71.629  1.00  0.00    -0.409 C  
BRANCH   7   8
HETATM    8  C   UNL     1     -10.456   8.247  70.738  1.00  0.00    -0.223 C  
BRANCH   8   9
HETATM    9  C   UNL     1      -9.343   9.194  70.401  1.00  0.00    -0.272 C  
HETATM   10  C   UNL     1      -9.347  10.015  69.339  1.00  0.00    -0.237 C  
BRANCH  10  11
HETATM   11  C   UNL     1     -10.473  10.045  68.350  1.00  0.00    -0.235 C  
BRANCH  11  12
HETATM   12  C   UNL     1     -11.506  11.119  68.652  1.00  0.00    -0.363 C  
BRANCH  12  13
HETATM   13  C   UNL     1     -10.822  12.482  68.726  1.00  0.00    -0.276 C  
BRANCH  13  14
HETATM   14  C   UNL     1     -11.772  13.582  68.277  1.00  0.00    -0.394 C  
BRANCH  14  15
HETATM   15  C   UNL     1     -11.807  14.730  69.281  1.00  0.00    -0.352 C  
BRANCH  15  16
HETATM   16  C   UNL     1     -12.635  14.339  70.501  1.00  0.00    -0.418 C  
BRANCH  16  17
HETATM   17  C   UNL     1     -13.154  15.563  71.247  1.00  0.00    -0.581 C  
HETATM   18  C   UNL     1     -13.538  15.222  72.666  1.00  0.00    -0.515 C  
HETATM   19  O   UNL     1     -13.456  14.119  73.182  1.00  0.00    -0.619 OA 
HETATM   20  O   UNL     1     -14.004  16.299  73.343  1.00  0.00    -0.500 OA 
ENDBRANCH  16  17
ENDBRANCH  15  16
ENDBRANCH  14  15
ENDBRANCH  13  14
ENDBRANCH  12  13
ENDBRANCH  11  12
ENDBRANCH  10  11
ENDBRANCH   8   9
ENDBRANCH   7   8
ENDBRANCH   5   6
ENDBRANCH   4   5
ENDBRANCH   3   4
ENDBRANCH   2   3
TORSDOF 13
ENDMDL
MODEL      295
REMARK 921   NORMALIZED FREE ENERGY PREDICTED BY IDOCK:   -3.25 KCAL/MOL
REMARK 922        TOTAL FREE ENERGY PREDICTED BY IDOCK:   -7.47 KCAL/MOL
REMARK 923 INTER-LIGAND FREE ENERGY PREDICTED BY IDOCK:   -5.58 KCAL/MOL
REMARK 924 INTRA-LIGAND FREE ENERGY PREDICTED BY IDOCK:   -1.88 KCAL/MOL
REMARK 927      BINDING AFFINITY PREDICTED BY RF-SCORE:    0.00 PKD
ROOT
HETATM    1  C   UNL     1      -6.718  17.418  67.114  1.00  0.00    -0.203 C  
HETATM    2  C   UNL     1      -5.917  18.675  67.402  1.00  0.00    -0.170 C  
ENDROOT
BRANCH   2   3
HETATM    3  C   UNL     1      -6.652  19.581  68.382  1.00  0.00    -0.295 C  
BRANCH   3   4
HETATM    4  C   UNL     1      -7.872  18.878  68.975  1.00  0.00    -0.241 C  
BRANCH   4   5
HETATM    5  C   UNL     1      -9.107  19.748  68.784  1.00  0.00    -0.236 C  
BRANCH   5   6
HETATM    6  C   UNL     1      -9.218  20.332  67.408  1.00  0.00    -0.507 C  
HETATM    7  C   UNL     1     -10.029  19.819  66.470  1.00  0.00    -0.570 C  
BRANCH   7   8
HETATM    8  C   UNL     1     -10.889  18.606  66.666  1.00  0.00    -0.175 C  
BRANCH   8   9
HETATM    9  C   UNL     1     -10.311  17.397  65.991  1.00  0.00    -0.309 C  
HETATM   10  C   UNL     1     -10.299  16.167  66.528  1.00  0.00    -0.311 C  
BRANCH  10  11
HETATM   11  C   UNL     1     -10.846  15.880  67.894  1.00  0.00    -0.327 C  
BRANCH  11  12
HETATM   12  C   UNL     1     -10.776  14.409  68.269  1.00  0.00    -0.246 C  
BRANCH  12  13
HETATM   13  C   UNL     1     -12.058  13.706  67.826  1.00  0.00    -0.325 C  
BRANCH  13  14
HETATM   14  C   UNL     1     -11.737  12.551  66.889  1.00  0.00    -0.447 C  
BRANCH  14  15
HETATM   15  C   UNL     1     -11.602  11.237  67.652  1.00  0.00    -0.290 C  
BRANCH  15  16
HETATM   16  C   UNL     1     -10.504  10.377  67.033  1.00  0.00    -0.309 C  
BRANCH  16  17
HETATM   17  C   UNL     1      -9.373  11.228  66.467  1.00  0.00    -0.201 C  
HETATM   18  C   UNL     1      -8.348  11.556  67.526  1.00  0.00    -0.143 C  
HETATM   19  O   UNL     1      -8.390  11.203  68.693  1.00  0.00    -0.146 OA 
HETATM   20  O   UNL     1      -7.336  12.315  67.040  1.00  0.00    -0.132 OA 
ENDBRANCH  16  17
ENDBRANCH  15  16
ENDBRANCH  14  15
ENDBRANCH  13  14
ENDBRANCH  12  13
ENDBRANCH  11  12
ENDBRANCH  10  11
ENDBRANCH   8   9
ENDBRANCH   7   8
ENDBRANCH   5   6
ENDBRANCH   4   5
ENDBRANCH   3   4
ENDBRANCH   2   3
TORSDOF 13
ENDMDL
MODEL      296
REMARK 921   NORMALIZED FREE ENERGY PREDICTED BY IDOCK:   -3.25 KCAL/MOL
REMARK 922        TOTAL FREE ENERGY PREDICTED BY IDOCK:   -7.46 KCAL/MOL
REMARK 923 INTER-LIGAND FREE ENERGY PREDICTED BY IDOCK:   -6.46 KCAL/MOL
REMARK 924 INTRA-LIGAND FREE ENERGY PREDICTED BY IDOCK:   -1.00 KCAL/MOL
REMARK 927      BINDING AFFINITY PREDICTED BY RF-SCORE:    0.00 PKD
ROOT
HETATM    1  C   UNL     1     -10.658  19.569  66.792  1.00  0.00    -0.597 C  
HETATM    2  C   UNL     1     -10.308  18.539  67.852  1.00  0.00    -0.424 C  
ENDROOT
BRANCH   2   3
HETATM    3  C   UNL     1     -10.850  17.164  67.483  1.00  0.00    -0.203 C  
BRANCH   3   4
HETATM    4  C   UNL     1     -10.302  16.698  66.136  1.00  0.00    -0.340 C  
BRANCH   4   5
HETATM    5  C   UNL     1     -10.348  15.178  66.062  1.00  0.00    -0.326 C  
BRANCH   5   6
HETATM    6  C   UNL     1      -9.465  14.506  67.070  1.00  0.00    -0.247 C  
HETATM    7  C   UNL     1      -9.931  13.613  67.957  1.00  0.00    -0.247 C  
BRANCH   7   8
HETATM    8  C   UNL     1     -11.370  13.205  68.069  1.00  0.00    -0.327 C  
BRANCH   8   9
HETATM    9  C   UNL     1     -11.963  13.604  69.388  1.00  0.00    -0.394 C  
HETATM   10  C   UNL     1     -12.255  12.742  70.375  1.00  0.00    -0.371 C  
BRANCH  10  11
HETATM   11  C   UNL     1     -12.041  11.265  70.243  1.00  0.00    -0.459 C  
BRANCH  11  12
HETATM   12  C   UNL     1     -13.081  10.441  70.985  1.00  0.00    -0.450 C  
BRANCH  12  13
HETATM   13  C   UNL     1     -12.385   9.365  71.815  1.00  0.00    -0.471 C  
BRANCH  13  14
HETATM   14  C   UNL     1     -11.147   8.852  71.094  1.00  0.00    -0.354 C  
BRANCH  14  15
HETATM   15  C   UNL     1     -11.133   7.327  71.030  1.00  0.00    -0.281 C  
BRANCH  15  16
HETATM   16  C   UNL     1     -10.325   6.857  69.824  1.00  0.00    -0.224 C  
BRANCH  16  17
HETATM   17  C   UNL     1      -9.996   5.371  69.909  1.00  0.00    -0.294 C  
HETATM   18  C   UNL     1      -9.783   4.774  68.540  1.00  0.00    -0.151 C  
HETATM   19  O   UNL     1      -9.856   5.376  67.481  1.00  0.00    -0.133 OA 
HETATM   20  O   UNL     1      -9.492   3.452  68.597  1.00  0.00    -0.170 OA 
ENDBRANCH  16  17
ENDBRANCH  15  16
ENDBRANCH  14  15
ENDBRANCH  13  14
ENDBRANCH  12  13
ENDBRANCH  11  12
ENDBRANCH  10  11
ENDBRANCH   8   9
ENDBRANCH   7   8
ENDBRANCH   5   6
ENDBRANCH   4   5
ENDBRANCH   3   4
ENDBRANCH   2   3
TORSDOF 13
ENDMDL
MODEL      297
REMARK 921   NORMALIZED FREE ENERGY PREDICTED BY IDOCK:   -3.23 KCAL/MOL
REMARK 922        TOTAL FREE ENERGY PREDICTED BY IDOCK:   -7.43 KCAL/MOL
REMARK 923 INTER-LIGAND FREE ENERGY PREDICTED BY IDOCK:   -6.12 KCAL/MOL
REMARK 924 INTRA-LIGAND FREE ENERGY PREDICTED BY IDOCK:   -1.31 KCAL/MOL
REMARK 927      BINDING AFFINITY PREDICTED BY RF-SCORE:    0.00 PKD
ROOT
HETATM    1  C   UNL     1     -10.888   7.507  72.262  1.00  0.00    -0.302 C  
HETATM    2  C   UNL     1     -11.450   7.893  70.905  1.00  0.00    -0.294 C  
ENDROOT
BRANCH   2   3
HETATM    3  C   UNL     1     -11.849   6.660  70.106  1.00  0.00    -0.347 C  
BRANCH   3   4
HETATM    4  C   UNL     1     -10.688   6.156  69.252  1.00  0.00    -0.383 C  
BRANCH   4   5
HETATM    5  C   UNL     1     -11.030   6.312  67.776  1.00  0.00    -0.427 C  
BRANCH   5   6
HETATM    6  C   UNL     1      -9.863   6.735  66.936  1.00  0.00    -0.229 C  
HETATM    7  C   UNL     1      -9.590   8.024  66.676  1.00  0.00    -0.297 C  
BRANCH   7   8
HETATM    8  C   UNL     1     -10.416   9.178  67.162  1.00  0.00    -0.325 C  
BRANCH   8   9
HETATM    9  C   UNL     1      -9.668  10.024  68.149  1.00  0.00    -0.156 C  
HETATM   10  C   UNL     1     -10.062  11.242  68.550  1.00  0.00    -0.210 C  
BRANCH  10  11
HETATM   11  C   UNL     1     -11.299  11.903  68.020  1.00  0.00    -0.352 C  
BRANCH  11  12
HETATM   12  C   UNL     1     -11.008  13.168  67.228  1.00  0.00    -0.288 C  
BRANCH  12  13
HETATM   13  C   UNL     1     -11.790  14.336  67.826  1.00  0.00    -0.414 C  
BRANCH  13  14
HETATM   14  C   UNL     1     -11.663  14.343  69.342  1.00  0.00    -0.362 C  
BRANCH  14  15
HETATM   15  C   UNL     1     -11.339  15.739  69.866  1.00  0.00    -0.349 C  
BRANCH  15  16
HETATM   16  C   UNL     1     -10.733  16.592  68.755  1.00  0.00    -0.342 C  
BRANCH  16  17
HETATM   17  C   UNL     1      -9.214  16.665  68.864  1.00  0.00    -0.244 C  
HETATM   18  C   UNL     1      -8.677  17.932  68.245  1.00  0.00    -0.275 C  
HETATM   19  O   UNL     1      -9.345  18.806  67.717  1.00  0.00    -0.286 OA 
HETATM   20  O   UNL     1      -7.327  18.010  68.329  1.00  0.00    -0.240 OA 
ENDBRANCH  16  17
ENDBRANCH  15  16
ENDBRANCH  14  15
ENDBRANCH  13  14
ENDBRANCH  12  13
ENDBRANCH  11  12
ENDBRANCH  10  11
ENDBRANCH   8   9
ENDBRANCH   7   8
ENDBRANCH   5   6
ENDBRANCH   4   5
ENDBRANCH   3   4
ENDBRANCH   2   3
TORSDOF 13
ENDMDL
MODEL      298
REMARK 921   NORMALIZED FREE ENERGY PREDICTED BY IDOCK:   -3.22 KCAL/MOL
REMARK 922        TOTAL FREE ENERGY PREDICTED BY IDOCK:   -7.42 KCAL/MOL
REMARK 923 INTER-LIGAND FREE ENERGY PREDICTED BY IDOCK:   -5.83 KCAL/MOL
REMARK 924 INTRA-LIGAND FREE ENERGY PREDICTED BY IDOCK:   -1.59 KCAL/MOL
REMARK 927      BINDING AFFINITY PREDICTED BY RF-SCORE:    0.00 PKD
ROOT
HETATM    1  C   UNL     1     -12.869  11.979  63.925  1.00  0.00    -0.400 C  
HETATM    2  C   UNL     1     -11.373  11.757  63.787  1.00  0.00    -0.524 C  
ENDROOT
BRANCH   2   3
HETATM    3  C   UNL     1     -10.594  13.006  64.176  1.00  0.00    -0.421 C  
BRANCH   3   4
HETATM    4  C   UNL     1     -11.502  14.234  64.214  1.00  0.00    -0.257 C  
BRANCH   4   5
HETATM    5  C   UNL     1     -11.034  15.184  65.308  1.00  0.00    -0.405 C  
BRANCH   5   6
HETATM    6  C   UNL     1     -11.017  16.621  64.882  1.00  0.00    -0.162 C  
HETATM    7  C   UNL     1     -10.328  17.563  65.546  1.00  0.00    -0.032 C  
BRANCH   7   8
HETATM    8  C   UNL     1      -9.528  17.307  66.789  1.00  0.00    -0.274 C  
BRANCH   8   9
HETATM    9  C   UNL     1      -8.157  16.789  66.473  1.00  0.00    -0.329 C  
HETATM   10  C   UNL     1      -7.645  15.655  66.976  1.00  0.00    -0.245 C  
BRANCH  10  11
HETATM   11  C   UNL     1      -8.397  14.793  67.945  1.00  0.00    -0.151 C  
BRANCH  11  12
HETATM   12  C   UNL     1      -8.997  13.553  67.301  1.00  0.00    -0.222 C  
BRANCH  12  13
HETATM   13  C   UNL     1      -9.763  12.751  68.351  1.00  0.00    -0.186 C  
BRANCH  13  14
HETATM   14  C   UNL     1     -11.079  12.243  67.779  1.00  0.00    -0.304 C  
BRANCH  14  15
HETATM   15  C   UNL     1     -11.104  10.719  67.709  1.00  0.00    -0.381 C  
BRANCH  15  16
HETATM   16  C   UNL     1     -10.445  10.123  68.950  1.00  0.00    -0.230 C  
BRANCH  16  17
HETATM   17  C   UNL     1     -11.280  10.364  70.203  1.00  0.00    -0.393 C  
HETATM   18  C   UNL     1     -11.509   9.082  70.966  1.00  0.00    -0.295 C  
HETATM   19  O   UNL     1     -11.094   7.980  70.650  1.00  0.00    -0.256 OA 
HETATM   20  O   UNL     1     -12.253   9.277  72.082  1.00  0.00    -0.359 OA 
ENDBRANCH  16  17
ENDBRANCH  15  16
ENDBRANCH  14  15
ENDBRANCH  13  14
ENDBRANCH  12  13
ENDBRANCH  11  12
ENDBRANCH  10  11
ENDBRANCH   8   9
ENDBRANCH   7   8
ENDBRANCH   5   6
ENDBRANCH   4   5
ENDBRANCH   3   4
ENDBRANCH   2   3
TORSDOF 13
ENDMDL
MODEL      299
REMARK 921   NORMALIZED FREE ENERGY PREDICTED BY IDOCK:   -3.22 KCAL/MOL
REMARK 922        TOTAL FREE ENERGY PREDICTED BY IDOCK:   -7.41 KCAL/MOL
REMARK 923 INTER-LIGAND FREE ENERGY PREDICTED BY IDOCK:   -5.75 KCAL/MOL
REMARK 924 INTRA-LIGAND FREE ENERGY PREDICTED BY IDOCK:   -1.66 KCAL/MOL
REMARK 927      BINDING AFFINITY PREDICTED BY RF-SCORE:    0.00 PKD
ROOT
HETATM    1  C   UNL     1     -10.633  16.316  65.584  1.00  0.00    -0.360 C  
HETATM    2  C   UNL     1     -11.117  14.990  65.026  1.00  0.00    -0.421 C  
ENDROOT
BRANCH   2   3
HETATM    3  C   UNL     1     -10.408  13.820  65.697  1.00  0.00    -0.321 C  
BRANCH   3   4
HETATM    4  C   UNL     1     -10.033  14.156  67.139  1.00  0.00    -0.255 C  
BRANCH   4   5
HETATM    5  C   UNL     1     -10.964  13.422  68.094  1.00  0.00    -0.277 C  
BRANCH   5   6
HETATM    6  C   UNL     1     -11.614  12.217  67.485  1.00  0.00    -0.422 C  
HETATM    7  C   UNL     1     -11.489  10.987  68.008  1.00  0.00    -0.365 C  
BRANCH   7   8
HETATM    8  C   UNL     1     -10.678  10.666  69.228  1.00  0.00    -0.275 C  
BRANCH   8   9
HETATM    9  C   UNL     1      -9.307  10.171  68.873  1.00  0.00    -0.179 C  
HETATM   10  C   UNL     1      -9.050   8.950  68.380  1.00  0.00    -0.137 C  
BRANCH  10  11
HETATM   11  C   UNL     1     -10.125   7.929  68.158  1.00  0.00    -0.228 C  
BRANCH  11  12
HETATM   12  C   UNL     1      -9.984   6.708  69.052  1.00  0.00    -0.162 C  
BRANCH  12  13
HETATM   13  C   UNL     1     -11.364   6.257  69.526  1.00  0.00    -0.475 C  
BRANCH  13  14
HETATM   14  C   UNL     1     -11.479   6.391  71.038  1.00  0.00    -0.394 C  
BRANCH  14  15
HETATM   15  C   UNL     1     -11.648   7.849  71.456  1.00  0.00    -0.306 C  
BRANCH  15  16
HETATM   16  C   UNL     1     -10.589   8.228  72.486  1.00  0.00    -0.407 C  
BRANCH  16  17
HETATM   17  C   UNL     1      -9.578   7.106  72.697  1.00  0.00    -0.177 C  
HETATM   18  C   UNL     1      -8.364   7.592  73.449  1.00  0.00    -0.158 C  
HETATM   19  O   UNL     1      -8.182   8.730  73.851  1.00  0.00    -0.346 OA 
HETATM   20  O   UNL     1      -7.454   6.607  73.643  1.00  0.00    -0.084 OA 
ENDBRANCH  16  17
ENDBRANCH  15  16
ENDBRANCH  14  15
ENDBRANCH  13  14
ENDBRANCH  12  13
ENDBRANCH  11  12
ENDBRANCH  10  11
ENDBRANCH   8   9
ENDBRANCH   7   8
ENDBRANCH   5   6
ENDBRANCH   4   5
ENDBRANCH   3   4
ENDBRANCH   2   3
TORSDOF 13
ENDMDL
MODEL      300
REMARK 921   NORMALIZED FREE ENERGY PREDICTED BY IDOCK:   -3.21 KCAL/MOL
REMARK 922        TOTAL FREE ENERGY PREDICTED BY IDOCK:   -7.40 KCAL/MOL
REMARK 923 INTER-LIGAND FREE ENERGY PREDICTED BY IDOCK:   -5.15 KCAL/MOL
REMARK 924 INTRA-LIGAND FREE ENERGY PREDICTED BY IDOCK:   -2.25 KCAL/MOL
REMARK 927      BINDING AFFINITY PREDICTED BY RF-SCORE:    0.00 PKD
ROOT
HETATM    1  C   UNL     1      -5.716  12.429  69.427  1.00  0.00    -0.085 C  
HETATM    2  C   UNL     1      -6.934  12.971  68.699  1.00  0.00    -0.102 C  
ENDROOT
BRANCH   2   3
HETATM    3  C   UNL     1      -6.533  13.992  67.643  1.00  0.00    -0.156 C  
BRANCH   3   4
HETATM    4  C   UNL     1      -7.644  15.016  67.415  1.00  0.00    -0.233 C  
BRANCH   4   5
HETATM    5  C   UNL     1      -8.607  14.500  66.355  1.00  0.00     0.157 C  
BRANCH   5   6
HETATM    6  C   UNL     1      -9.508  15.562  65.801  1.00  0.00    -0.334 C  
HETATM    7  C   UNL     1     -10.596  15.277  65.069  1.00  0.00    -0.444 C  
BRANCH   7   8
HETATM    8  C   UNL     1     -11.025  13.888  64.698  1.00  0.00    -0.406 C  
BRANCH   8   9
HETATM    9  C   UNL     1     -12.190  13.425  65.520  1.00  0.00    -0.499 C  
HETATM   10  C   UNL     1     -12.097  12.553  66.536  1.00  0.00    -0.245 C  
BRANCH  10  11
HETATM   11  C   UNL     1     -10.799  11.922  66.939  1.00  0.00    -0.305 C  
BRANCH  11  12
HETATM   12  C   UNL     1     -10.486  12.086  68.417  1.00  0.00    -0.231 C  
BRANCH  12  13
HETATM   13  C   UNL     1     -10.646  13.551  68.815  1.00  0.00    -0.237 C  
BRANCH  13  14
HETATM   14  C   UNL     1     -11.820  13.721  69.769  1.00  0.00    -0.394 C  
BRANCH  14  15
HETATM   15  C   UNL     1     -12.110  15.195  70.036  1.00  0.00    -0.384 C  
BRANCH  15  16
HETATM   16  C   UNL     1     -10.940  16.056  69.572  1.00  0.00    -0.326 C  
BRANCH  16  17
HETATM   17  C   UNL     1     -11.343  16.992  68.437  1.00  0.00     0.114 C  
HETATM   18  C   UNL     1     -10.376  18.143  68.304  1.00  0.00    -0.363 C  
HETATM   19  O   UNL     1      -9.390  18.331  68.997  1.00  0.00    -0.222 OA 
HETATM   20  O   UNL     1     -10.722  18.987  67.301  1.00  0.00    -0.452 OA 
ENDBRANCH  16  17
ENDBRANCH  15  16
ENDBRANCH  14  15
ENDBRANCH  13  14
ENDBRANCH  12  13
ENDBRANCH  11  12
ENDBRANCH  10  11
ENDBRANCH   8   9
ENDBRANCH   7   8
ENDBRANCH   5   6
ENDBRANCH   4   5
ENDBRANCH   3   4
ENDBRANCH   2   3
TORSDOF 13
ENDMDL
MODEL      301
REMARK 921   NORMALIZED FREE ENERGY PREDICTED BY IDOCK:   -3.21 KCAL/MOL
REMARK 922        TOTAL FREE ENERGY PREDICTED BY IDOCK:   -7.40 KCAL/MOL
REMARK 923 INTER-LIGAND FREE ENERGY PREDICTED BY IDOCK:   -4.98 KCAL/MOL
REMARK 924 INTRA-LIGAND FREE ENERGY PREDICTED BY IDOCK:   -2.42 KCAL/MOL
REMARK 927      BINDING AFFINITY PREDICTED BY RF-SCORE:    0.00 PKD
ROOT
HETATM    1  C   UNL     1      -7.334   8.671  71.203  1.00  0.00    -0.092 C  
HETATM    2  C   UNL     1      -7.064   7.178  71.275  1.00  0.00    -0.069 C  
ENDROOT
BRANCH   2   3
HETATM    3  C   UNL     1      -7.761   6.551  72.475  1.00  0.00    -0.099 C  
BRANCH   3   4
HETATM    4  C   UNL     1      -8.330   5.177  72.128  1.00  0.00    -0.125 C  
BRANCH   4   5
HETATM    5  C   UNL     1      -8.722   5.142  70.657  1.00  0.00    -0.142 C  
BRANCH   5   6
HETATM    6  C   UNL     1     -10.187   4.912  70.437  1.00  0.00    -0.292 C  
HETATM    7  C   UNL     1     -11.060   5.920  70.282  1.00  0.00    -0.368 C  
BRANCH   7   8
HETATM    8  C   UNL     1     -10.693   7.373  70.335  1.00  0.00    -0.250 C  
BRANCH   8   9
HETATM    9  C   UNL     1     -11.260   8.048  71.548  1.00  0.00    -0.296 C  
HETATM   10  C   UNL     1     -11.446   9.373  71.656  1.00  0.00    -0.463 C  
BRANCH  10  11
HETATM   11  C   UNL     1     -11.071  10.330  70.565  1.00  0.00    -0.381 C  
BRANCH  11  12
HETATM   12  C   UNL     1     -12.274  10.944  69.868  1.00  0.00    -0.408 C  
BRANCH  12  13
HETATM   13  C   UNL     1     -11.800  11.887  68.764  1.00  0.00    -0.371 C  
BRANCH  13  14
HETATM   14  C   UNL     1     -10.316  11.691  68.494  1.00  0.00    -0.224 C  
BRANCH  14  15
HETATM   15  C   UNL     1     -10.065  11.258  67.052  1.00  0.00    -0.238 C  
BRANCH  15  16
HETATM   16  C   UNL     1      -9.533   9.828  67.015  1.00  0.00    -0.195 C  
BRANCH  16  17
HETATM   17  C   UNL     1     -10.661   8.805  67.090  1.00  0.00    -0.303 C  
HETATM   18  C   UNL     1     -10.183   7.428  66.696  1.00  0.00    -0.177 C  
HETATM   19  O   UNL     1      -9.047   7.138  66.357  1.00  0.00    -0.153 OA 
HETATM   20  O   UNL     1     -11.174   6.506  66.755  1.00  0.00    -0.334 OA 
ENDBRANCH  16  17
ENDBRANCH  15  16
ENDBRANCH  14  15
ENDBRANCH  13  14
ENDBRANCH  12  13
ENDBRANCH  11  12
ENDBRANCH  10  11
ENDBRANCH   8   9
ENDBRANCH   7   8
ENDBRANCH   5   6
ENDBRANCH   4   5
ENDBRANCH   3   4
ENDBRANCH   2   3
TORSDOF 13
ENDMDL
MODEL      302
REMARK 921   NORMALIZED FREE ENERGY PREDICTED BY IDOCK:   -3.20 KCAL/MOL
REMARK 922        TOTAL FREE ENERGY PREDICTED BY IDOCK:   -7.37 KCAL/MOL
REMARK 923 INTER-LIGAND FREE ENERGY PREDICTED BY IDOCK:   -4.70 KCAL/MOL
REMARK 924 INTRA-LIGAND FREE ENERGY PREDICTED BY IDOCK:   -2.67 KCAL/MOL
REMARK 927      BINDING AFFINITY PREDICTED BY RF-SCORE:    0.00 PKD
ROOT
HETATM    1  C   UNL     1      -9.183   7.102  66.433  1.00  0.00    -0.196 C  
HETATM    2  C   UNL     1     -10.489   7.221  67.198  1.00  0.00    -0.394 C  
ENDROOT
BRANCH   2   3
HETATM    3  C   UNL     1     -10.832   5.916  67.906  1.00  0.00    -0.323 C  
BRANCH   3   4
HETATM    4  C   UNL     1     -11.311   6.172  69.333  1.00  0.00    -0.401 C  
BRANCH   4   5
HETATM    5  C   UNL     1     -10.608   5.218  70.289  1.00  0.00    -0.288 C  
BRANCH   5   6
HETATM    6  C   UNL     1      -9.379   4.588  69.705  1.00  0.00    -0.221 C  
HETATM    7  C   UNL     1      -8.144   4.866  70.152  1.00  0.00    -0.073 C  
BRANCH   7   8
HETATM    8  C   UNL     1      -7.842   5.841  71.251  1.00  0.00    -0.111 C  
BRANCH   8   9
HETATM    9  C   UNL     1      -7.711   5.160  72.581  1.00  0.00    -0.098 C  
HETATM   10  C   UNL     1      -8.190   5.656  73.732  1.00  0.00    -0.111 C  
BRANCH  10  11
HETATM   11  C   UNL     1      -8.891   6.978  73.809  1.00  0.00    -0.197 C  
BRANCH  11  12
HETATM   12  C   UNL     1     -10.406   6.853  73.829  1.00  0.00    -0.409 C  
BRANCH  12  13
HETATM   13  C   UNL     1     -11.008   7.746  72.746  1.00  0.00    -0.447 C  
BRANCH  13  14
HETATM   14  C   UNL     1      -9.953   8.685  72.181  1.00  0.00    -0.386 C  
BRANCH  14  15
HETATM   15  C   UNL     1     -10.153   8.909  70.685  1.00  0.00    -0.262 C  
BRANCH  15  16
HETATM   16  C   UNL     1      -8.883   9.483  70.063  1.00  0.00    -0.246 C  
BRANCH  16  17
HETATM   17  C   UNL     1      -9.179  10.242  68.774  1.00  0.00    -0.166 C  
HETATM   18  C   UNL     1      -8.017  11.116  68.370  1.00  0.00    -0.137 C  
HETATM   19  O   UNL     1      -6.962  11.224  68.974  1.00  0.00    -0.087 OA 
HETATM   20  O   UNL     1      -8.265  11.801  67.227  1.00  0.00    -0.148 OA 
ENDBRANCH  16  17
ENDBRANCH  15  16
ENDBRANCH  14  15
ENDBRANCH  13  14
ENDBRANCH  12  13
ENDBRANCH  11  12
ENDBRANCH  10  11
ENDBRANCH   8   9
ENDBRANCH   7   8
ENDBRANCH   5   6
ENDBRANCH   4   5
ENDBRANCH   3   4
ENDBRANCH   2   3
TORSDOF 13
ENDMDL
MODEL      303
REMARK 921   NORMALIZED FREE ENERGY PREDICTED BY IDOCK:   -3.18 KCAL/MOL
REMARK 922        TOTAL FREE ENERGY PREDICTED BY IDOCK:   -7.34 KCAL/MOL
REMARK 923 INTER-LIGAND FREE ENERGY PREDICTED BY IDOCK:   -5.83 KCAL/MOL
REMARK 924 INTRA-LIGAND FREE ENERGY PREDICTED BY IDOCK:   -1.51 KCAL/MOL
REMARK 927      BINDING AFFINITY PREDICTED BY RF-SCORE:    0.00 PKD
ROOT
HETATM    1  C   UNL     1     -11.666  13.951  64.317  1.00  0.00    -0.406 C  
HETATM    2  C   UNL     1     -12.016  13.499  65.723  1.00  0.00    -0.439 C  
ENDROOT
BRANCH   2   3
HETATM    3  C   UNL     1     -10.786  13.496  66.621  1.00  0.00    -0.282 C  
BRANCH   3   4
HETATM    4  C   UNL     1      -9.716  12.544  66.090  1.00  0.00    -0.259 C  
BRANCH   4   5
HETATM    5  C   UNL     1     -10.198  11.105  66.226  1.00  0.00    -0.286 C  
BRANCH   5   6
HETATM    6  C   UNL     1     -10.580  10.736  67.628  1.00  0.00    -0.271 C  
HETATM    7  C   UNL     1     -10.032   9.696  68.275  1.00  0.00    -0.178 C  
BRANCH   7   8
HETATM    8  C   UNL     1      -9.008   8.774  67.682  1.00  0.00    -0.141 C  
BRANCH   8   9
HETATM    9  C   UNL     1      -9.517   7.368  67.577  1.00  0.00    -0.162 C  
HETATM   10  C   UNL     1      -9.588   6.513  68.608  1.00  0.00    -0.125 C  
BRANCH  10  11
HETATM   11  C   UNL     1      -9.130   6.876  69.988  1.00  0.00    -0.145 C  
BRANCH  11  12
HETATM   12  C   UNL     1     -10.143   6.527  71.067  1.00  0.00    -0.208 C  
BRANCH  12  13
HETATM   13  C   UNL     1     -11.555   6.769  70.540  1.00  0.00    -0.426 C  
BRANCH  13  14
HETATM   14  C   UNL     1     -12.476   7.214  71.667  1.00  0.00    -0.405 C  
BRANCH  14  15
HETATM   15  C   UNL     1     -13.431   8.311  71.205  1.00  0.00    -0.036 C  
BRANCH  15  16
HETATM   16  C   UNL     1     -13.056   9.642  71.848  1.00  0.00    -0.530 C  
BRANCH  16  17
HETATM   17  C   UNL     1     -12.276  10.534  70.888  1.00  0.00    -0.490 C  
HETATM   18  C   UNL     1     -12.630  11.989  71.076  1.00  0.00    -0.273 C  
HETATM   19  O   UNL     1     -13.433  12.429  71.882  1.00  0.00    -0.423 OA 
HETATM   20  O   UNL     1     -11.948  12.795  70.228  1.00  0.00    -0.343 OA 
ENDBRANCH  16  17
ENDBRANCH  15  16
ENDBRANCH  14  15
ENDBRANCH  13  14
ENDBRANCH  12  13
ENDBRANCH  11  12
ENDBRANCH  10  11
ENDBRANCH   8   9
ENDBRANCH   7   8
ENDBRANCH   5   6
ENDBRANCH   4   5
ENDBRANCH   3   4
ENDBRANCH   2   3
TORSDOF 13
ENDMDL
MODEL      304
REMARK 921   NORMALIZED FREE ENERGY PREDICTED BY IDOCK:   -3.17 KCAL/MOL
REMARK 922        TOTAL FREE ENERGY PREDICTED BY IDOCK:   -7.33 KCAL/MOL
REMARK 923 INTER-LIGAND FREE ENERGY PREDICTED BY IDOCK:   -6.24 KCAL/MOL
REMARK 924 INTRA-LIGAND FREE ENERGY PREDICTED BY IDOCK:   -1.09 KCAL/MOL
REMARK 927      BINDING AFFINITY PREDICTED BY RF-SCORE:    0.00 PKD
ROOT
HETATM    1  C   UNL     1     -11.605  12.174  63.478  1.00  0.00    -0.562 C  
HETATM    2  C   UNL     1     -11.253  13.209  64.532  1.00  0.00    -0.383 C  
ENDROOT
BRANCH   2   3
HETATM    3  C   UNL     1     -12.242  13.173  65.689  1.00  0.00    -0.521 C  
BRANCH   3   4
HETATM    4  C   UNL     1     -11.929  14.258  66.717  1.00  0.00    -0.462 C  
BRANCH   4   5
HETATM    5  C   UNL     1     -12.023  13.676  68.121  1.00  0.00    -0.390 C  
BRANCH   5   6
HETATM    6  C   UNL     1     -10.783  12.952  68.550  1.00  0.00    -0.275 C  
HETATM    7  C   UNL     1     -10.810  11.705  69.047  1.00  0.00    -0.247 C  
BRANCH   7   8
HETATM    8  C   UNL     1     -12.062  10.906  69.257  1.00  0.00    -0.332 C  
BRANCH   8   9
HETATM    9  C   UNL     1     -12.660  11.151  70.610  1.00  0.00    -0.408 C  
HETATM   10  C   UNL     1     -12.651  10.259  71.612  1.00  0.00    -0.534 C  
BRANCH  10  11
HETATM   11  C   UNL     1     -12.056   8.891  71.466  1.00  0.00    -0.395 C  
BRANCH  11  12
HETATM   12  C   UNL     1     -10.648   8.788  72.028  1.00  0.00    -0.414 C  
BRANCH  12  13
HETATM   13  C   UNL     1     -10.235   7.320  72.111  1.00  0.00    -0.216 C  
BRANCH  13  14
HETATM   14  C   UNL     1     -11.460   6.417  72.068  1.00  0.00    -0.350 C  
BRANCH  14  15
HETATM   15  C   UNL     1     -11.122   4.999  72.519  1.00  0.00    -0.217 C  
BRANCH  15  16
HETATM   16  C   UNL     1      -9.620   4.756  72.413  1.00  0.00    -0.184 C  
BRANCH  16  17
HETATM   17  C   UNL     1      -9.292   3.698  71.364  1.00  0.00    -0.211 C  
HETATM   18  C   UNL     1      -7.881   3.186  71.521  1.00  0.00    -0.056 C  
HETATM   19  O   UNL     1      -7.080   3.550  72.366  1.00  0.00    -0.043 OA 
HETATM   20  O   UNL     1      -7.572   2.247  70.594  1.00  0.00    -0.039 OA 
ENDBRANCH  16  17
ENDBRANCH  15  16
ENDBRANCH  14  15
ENDBRANCH  13  14
ENDBRANCH  12  13
ENDBRANCH  11  12
ENDBRANCH  10  11
ENDBRANCH   8   9
ENDBRANCH   7   8
ENDBRANCH   5   6
ENDBRANCH   4   5
ENDBRANCH   3   4
ENDBRANCH   2   3
TORSDOF 13
ENDMDL
MODEL      305
REMARK 921   NORMALIZED FREE ENERGY PREDICTED BY IDOCK:   -3.17 KCAL/MOL
REMARK 922        TOTAL FREE ENERGY PREDICTED BY IDOCK:   -7.32 KCAL/MOL
REMARK 923 INTER-LIGAND FREE ENERGY PREDICTED BY IDOCK:   -5.83 KCAL/MOL
REMARK 924 INTRA-LIGAND FREE ENERGY PREDICTED BY IDOCK:   -1.49 KCAL/MOL
REMARK 927      BINDING AFFINITY PREDICTED BY RF-SCORE:    0.00 PKD
ROOT
HETATM    1  C   UNL     1      -8.897   2.363  63.889  1.00  0.00    -0.091 C  
HETATM    2  C   UNL     1      -9.955   3.393  64.247  1.00  0.00    -0.181 C  
ENDROOT
BRANCH   2   3
HETATM    3  C   UNL     1      -9.416   4.410  65.245  1.00  0.00    -0.172 C  
BRANCH   3   4
HETATM    4  C   UNL     1     -10.529   4.946  66.143  1.00  0.00    -0.346 C  
BRANCH   4   5
HETATM    5  C   UNL     1      -9.939   5.887  67.184  1.00  0.00    -0.187 C  
BRANCH   5   6
HETATM    6  C   UNL     1     -10.946   6.378  68.180  1.00  0.00    -0.393 C  
HETATM    7  C   UNL     1     -11.026   5.888  69.428  1.00  0.00    -0.421 C  
BRANCH   7   8
HETATM    8  C   UNL     1     -10.155   4.791  69.963  1.00  0.00    -0.308 C  
BRANCH   8   9
HETATM    9  C   UNL     1      -9.000   5.330  70.752  1.00  0.00    -0.160 C  
HETATM   10  C   UNL     1      -9.051   5.621  72.062  1.00  0.00    -0.145 C  
BRANCH  10  11
HETATM   11  C   UNL     1     -10.301   5.459  72.873  1.00  0.00    -0.231 C  
BRANCH  11  12
HETATM   12  C   UNL     1     -10.628   6.680  73.718  1.00  0.00    -0.302 C  
BRANCH  12  13
HETATM   13  C   UNL     1     -10.704   7.916  72.824  1.00  0.00    -0.435 C  
BRANCH  13  14
HETATM   14  C   UNL     1     -12.154   8.293  72.558  1.00  0.00    -0.400 C  
BRANCH  14  15
HETATM   15  C   UNL     1     -12.378   8.640  71.089  1.00  0.00    -0.243 C  
BRANCH  15  16
HETATM   16  C   UNL     1     -12.326  10.151  70.890  1.00  0.00    -0.461 C  
BRANCH  16  17
HETATM   17  C   UNL     1     -11.040  10.586  70.196  1.00  0.00    -0.369 C  
HETATM   18  C   UNL     1     -11.311  11.095  68.801  1.00  0.00    -0.277 C  
HETATM   19  O   UNL     1     -12.406  11.163  68.267  1.00  0.00    -0.532 OA 
HETATM   20  O   UNL     1     -10.177  11.483  68.169  1.00  0.00    -0.182 OA 
ENDBRANCH  16  17
ENDBRANCH  15  16
ENDBRANCH  14  15
ENDBRANCH  13  14
ENDBRANCH  12  13
ENDBRANCH  11  12
ENDBRANCH  10  11
ENDBRANCH   8   9
ENDBRANCH   7   8
ENDBRANCH   5   6
ENDBRANCH   4   5
ENDBRANCH   3   4
ENDBRANCH   2   3
TORSDOF 13
ENDMDL
MODEL      306
REMARK 921   NORMALIZED FREE ENERGY PREDICTED BY IDOCK:   -3.15 KCAL/MOL
REMARK 922        TOTAL FREE ENERGY PREDICTED BY IDOCK:   -7.30 KCAL/MOL
REMARK 923 INTER-LIGAND FREE ENERGY PREDICTED BY IDOCK:   -5.99 KCAL/MOL
REMARK 924 INTRA-LIGAND FREE ENERGY PREDICTED BY IDOCK:   -1.30 KCAL/MOL
REMARK 927      BINDING AFFINITY PREDICTED BY RF-SCORE:    0.00 PKD
ROOT
HETATM    1  C   UNL     1     -10.450   8.255  67.319  1.00  0.00    -0.373 C  
HETATM    2  C   UNL     1     -10.843   9.720  67.244  1.00  0.00    -0.247 C  
ENDROOT
BRANCH   2   3
HETATM    3  C   UNL     1      -9.776  10.608  67.871  1.00  0.00    -0.177 C  
BRANCH   3   4
HETATM    4  C   UNL     1      -9.558  11.875  67.047  1.00  0.00    -0.196 C  
BRANCH   4   5
HETATM    5  C   UNL     1      -8.897  12.941  67.911  1.00  0.00    -0.190 C  
BRANCH   5   6
HETATM    6  C   UNL     1      -7.441  13.133  67.608  1.00  0.00    -0.164 C  
HETATM    7  C   UNL     1      -6.722  14.139  68.130  1.00  0.00    -0.125 C  
BRANCH   7   8
HETATM    8  C   UNL     1      -7.279  15.192  69.042  1.00  0.00    -0.149 C  
BRANCH   8   9
HETATM    9  C   UNL     1      -6.944  16.575  68.568  1.00  0.00    -0.154 C  
HETATM   10  C   UNL     1      -7.788  17.362  67.883  1.00  0.00    -0.201 C  
BRANCH  10  11
HETATM   11  C   UNL     1      -9.164  16.918  67.490  1.00  0.00    -0.223 C  
BRANCH  11  12
HETATM   12  C   UNL     1     -10.243  17.396  68.448  1.00  0.00    -0.362 C  
BRANCH  12  13
HETATM   13  C   UNL     1     -10.599  16.274  69.421  1.00  0.00    -0.301 C  
BRANCH  13  14
HETATM   14  C   UNL     1     -12.056  15.867  69.257  1.00  0.00    -0.166 C  
BRANCH  14  15
HETATM   15  C   UNL     1     -12.419  14.712  70.186  1.00  0.00    -0.369 C  
BRANCH  15  16
HETATM   16  C   UNL     1     -13.613  15.089  71.056  1.00  0.00    -0.442 C  
BRANCH  16  17
HETATM   17  C   UNL     1     -13.449  14.590  72.488  1.00  0.00    -0.580 C  
HETATM   18  C   UNL     1     -12.553  15.501  73.290  1.00  0.00    -0.499 C  
HETATM   19  O   UNL     1     -12.014  16.515  72.878  1.00  0.00    -0.536 OA 
HETATM   20  O   UNL     1     -12.394  15.070  74.564  1.00  0.00    -0.541 OA 
ENDBRANCH  16  17
ENDBRANCH  15  16
ENDBRANCH  14  15
ENDBRANCH  13  14
ENDBRANCH  12  13
ENDBRANCH  11  12
ENDBRANCH  10  11
ENDBRANCH   8   9
ENDBRANCH   7   8
ENDBRANCH   5   6
ENDBRANCH   4   5
ENDBRANCH   3   4
ENDBRANCH   2   3
TORSDOF 13
ENDMDL
MODEL      307
REMARK 921   NORMALIZED FREE ENERGY PREDICTED BY IDOCK:   -3.15 KCAL/MOL
REMARK 922        TOTAL FREE ENERGY PREDICTED BY IDOCK:   -7.30 KCAL/MOL
REMARK 923 INTER-LIGAND FREE ENERGY PREDICTED BY IDOCK:   -4.85 KCAL/MOL
REMARK 924 INTRA-LIGAND FREE ENERGY PREDICTED BY IDOCK:   -2.44 KCAL/MOL
REMARK 927      BINDING AFFINITY PREDICTED BY RF-SCORE:    0.00 PKD
ROOT
HETATM    1  C   UNL     1      -7.580   6.077  70.094  1.00  0.00    -0.095 C  
HETATM    2  C   UNL     1      -8.957   6.676  70.325  1.00  0.00    -0.152 C  
ENDROOT
BRANCH   2   3
HETATM    3  C   UNL     1     -10.034   5.868  69.612  1.00  0.00    -0.234 C  
BRANCH   3   4
HETATM    4  C   UNL     1     -11.333   5.851  70.415  1.00  0.00    -0.219 C  
BRANCH   4   5
HETATM    5  C   UNL     1     -11.469   7.150  71.198  1.00  0.00    -0.322 C  
BRANCH   5   6
HETATM    6  C   UNL     1     -12.892   7.573  71.407  1.00  0.00    -0.381 C  
HETATM    7  C   UNL     1     -13.241   8.851  71.624  1.00  0.00    -0.411 C  
BRANCH   7   8
HETATM    8  C   UNL     1     -12.269   9.990  71.712  1.00  0.00    -0.383 C  
BRANCH   8   9
HETATM    9  C   UNL     1     -12.589  11.074  70.726  1.00  0.00    -0.463 C  
HETATM   10  C   UNL     1     -11.836  11.364  69.654  1.00  0.00    -0.431 C  
BRANCH  10  11
HETATM   11  C   UNL     1     -10.560  10.640  69.346  1.00  0.00    -0.270 C  
BRANCH  11  12
HETATM   12  C   UNL     1     -10.761   9.431  68.447  1.00  0.00    -0.213 C  
BRANCH  12  13
HETATM   13  C   UNL     1     -10.141   9.702  67.078  1.00  0.00    -0.275 C  
BRANCH  13  14
HETATM   14  C   UNL     1      -9.639   8.409  66.453  1.00  0.00    -0.307 C  
BRANCH  14  15
HETATM   15  C   UNL     1      -8.219   8.087  66.908  1.00  0.00    -0.115 C  
BRANCH  15  16
HETATM   16  C   UNL     1      -7.703   6.845  66.187  1.00  0.00    -0.091 C  
BRANCH  16  17
HETATM   17  C   UNL     1      -8.804   5.809  65.990  1.00  0.00    -0.150 C  
HETATM   18  C   UNL     1      -8.364   4.442  66.454  1.00  0.00    -0.105 C  
HETATM   19  O   UNL     1      -7.275   4.167  66.931  1.00  0.00    -0.066 OA 
HETATM   20  O   UNL     1      -9.331   3.508  66.282  1.00  0.00    -0.168 OA 
ENDBRANCH  16  17
ENDBRANCH  15  16
ENDBRANCH  14  15
ENDBRANCH  13  14
ENDBRANCH  12  13
ENDBRANCH  11  12
ENDBRANCH  10  11
ENDBRANCH   8   9
ENDBRANCH   7   8
ENDBRANCH   5   6
ENDBRANCH   4   5
ENDBRANCH   3   4
ENDBRANCH   2   3
TORSDOF 13
ENDMDL
MODEL      308
REMARK 921   NORMALIZED FREE ENERGY PREDICTED BY IDOCK:   -3.15 KCAL/MOL
REMARK 922        TOTAL FREE ENERGY PREDICTED BY IDOCK:   -7.29 KCAL/MOL
REMARK 923 INTER-LIGAND FREE ENERGY PREDICTED BY IDOCK:   -5.35 KCAL/MOL
REMARK 924 INTRA-LIGAND FREE ENERGY PREDICTED BY IDOCK:   -1.94 KCAL/MOL
REMARK 927      BINDING AFFINITY PREDICTED BY RF-SCORE:    0.00 PKD
ROOT
HETATM    1  C   UNL     1     -10.913  10.111  69.454  1.00  0.00    -0.285 C  
HETATM    2  C   UNL     1     -11.893  11.110  70.043  1.00  0.00    -0.441 C  
ENDROOT
BRANCH   2   3
HETATM    3  C   UNL     1     -12.343  10.682  71.435  1.00  0.00    -0.455 C  
BRANCH   3   4
HETATM    4  C   UNL     1     -13.395   9.578  71.360  1.00  0.00    -0.435 C  
BRANCH   4   5
HETATM    5  C   UNL     1     -12.991   8.422  72.265  1.00  0.00    -0.338 C  
BRANCH   5   6
HETATM    6  C   UNL     1     -11.524   8.390  72.570  1.00  0.00    -0.422 C  
HETATM    7  C   UNL     1     -10.727   7.383  72.180  1.00  0.00    -0.262 C  
BRANCH   7   8
HETATM    8  C   UNL     1     -11.200   6.173  71.429  1.00  0.00    -0.346 C  
BRANCH   8   9
HETATM    9  C   UNL     1     -11.553   6.500  70.009  1.00  0.00    -0.455 C  
HETATM   10  C   UNL     1     -10.845   6.094  68.943  1.00  0.00    -0.406 C  
BRANCH  10  11
HETATM   11  C   UNL     1      -9.592   5.282  69.071  1.00  0.00    -0.199 C  
BRANCH  11  12
HETATM   12  C   UNL     1      -8.798   5.199  67.778  1.00  0.00    -0.106 C  
BRANCH  12  13
HETATM   13  C   UNL     1      -9.641   5.736  66.624  1.00  0.00    -0.168 C  
BRANCH  13  14
HETATM   14  C   UNL     1      -8.994   6.973  66.019  1.00  0.00    -0.135 C  
BRANCH  14  15
HETATM   15  C   UNL     1      -7.736   7.372  66.784  1.00  0.00    -0.109 C  
BRANCH  15  16
HETATM   16  C   UNL     1      -7.815   8.838  67.202  1.00  0.00    -0.096 C  
BRANCH  16  17
HETATM   17  C   UNL     1      -8.678   9.652  66.244  1.00  0.00    -0.156 C  
HETATM   18  C   UNL     1      -8.659  11.119  66.597  1.00  0.00    -0.165 C  
HETATM   19  O   UNL     1      -8.044  11.622  67.522  1.00  0.00    -0.131 OA 
HETATM   20  O   UNL     1      -9.424  11.857  65.756  1.00  0.00    -0.236 OA 
ENDBRANCH  16  17
ENDBRANCH  15  16
ENDBRANCH  14  15
ENDBRANCH  13  14
ENDBRANCH  12  13
ENDBRANCH  11  12
ENDBRANCH  10  11
ENDBRANCH   8   9
ENDBRANCH   7   8
ENDBRANCH   5   6
ENDBRANCH   4   5
ENDBRANCH   3   4
ENDBRANCH   2   3
TORSDOF 13
ENDMDL
MODEL      309
REMARK 921   NORMALIZED FREE ENERGY PREDICTED BY IDOCK:   -3.15 KCAL/MOL
REMARK 922        TOTAL FREE ENERGY PREDICTED BY IDOCK:   -7.28 KCAL/MOL
REMARK 923 INTER-LIGAND FREE ENERGY PREDICTED BY IDOCK:   -5.81 KCAL/MOL
REMARK 924 INTRA-LIGAND FREE ENERGY PREDICTED BY IDOCK:   -1.48 KCAL/MOL
REMARK 927      BINDING AFFINITY PREDICTED BY RF-SCORE:    0.00 PKD
ROOT
HETATM    1  C   UNL     1      -8.748   6.174  65.837  1.00  0.00    -0.158 C  
HETATM    2  C   UNL     1      -9.985   5.573  66.480  1.00  0.00    -0.214 C  
ENDROOT
BRANCH   2   3
HETATM    3  C   UNL     1     -10.985   6.656  66.865  1.00  0.00    -0.396 C  
BRANCH   3   4
HETATM    4  C   UNL     1     -10.536   7.401  68.120  1.00  0.00    -0.241 C  
BRANCH   4   5
HETATM    5  C   UNL     1     -10.638   8.903  67.888  1.00  0.00    -0.244 C  
BRANCH   5   6
HETATM    6  C   UNL     1      -9.311   9.561  67.658  1.00  0.00    -0.141 C  
HETATM    7  C   UNL     1      -8.901   9.953  66.441  1.00  0.00    -0.159 C  
BRANCH   7   8
HETATM    8  C   UNL     1      -9.691   9.760  65.180  1.00  0.00    -0.338 C  
BRANCH   8   9
HETATM    9  C   UNL     1      -9.721  11.005  64.345  1.00  0.00    -0.330 C  
HETATM   10  C   UNL     1     -10.585  12.016  64.528  1.00  0.00    -0.356 C  
BRANCH  10  11
HETATM   11  C   UNL     1     -11.645  11.986  65.587  1.00  0.00    -0.356 C  
BRANCH  11  12
HETATM   12  C   UNL     1     -12.092  13.371  66.026  1.00  0.00    -0.487 C  
BRANCH  12  13
HETATM   13  C   UNL     1     -11.518  14.420  65.075  1.00  0.00    -0.372 C  
BRANCH  13  14
HETATM   14  C   UNL     1     -10.822  15.525  65.855  1.00  0.00    -0.317 C  
BRANCH  14  15
HETATM   15  C   UNL     1     -10.769  16.823  65.054  1.00  0.00    -0.118 C  
BRANCH  15  16
HETATM   16  C   UNL     1     -10.487  18.003  65.979  1.00  0.00    -0.317 C  
BRANCH  16  17
HETATM   17  C   UNL     1      -9.111  17.896  66.625  1.00  0.00    -0.279 C  
HETATM   18  C   UNL     1      -9.089  18.550  67.985  1.00  0.00    -0.301 C  
HETATM   19  O   UNL     1     -10.033  19.102  68.527  1.00  0.00    -0.379 OA 
HETATM   20  O   UNL     1      -7.871  18.468  68.573  1.00  0.00    -0.302 OA 
ENDBRANCH  16  17
ENDBRANCH  15  16
ENDBRANCH  14  15
ENDBRANCH  13  14
ENDBRANCH  12  13
ENDBRANCH  11  12
ENDBRANCH  10  11
ENDBRANCH   8   9
ENDBRANCH   7   8
ENDBRANCH   5   6
ENDBRANCH   4   5
ENDBRANCH   3   4
ENDBRANCH   2   3
TORSDOF 13
ENDMDL
MODEL      310
REMARK 921   NORMALIZED FREE ENERGY PREDICTED BY IDOCK:   -3.14 KCAL/MOL
REMARK 922        TOTAL FREE ENERGY PREDICTED BY IDOCK:   -7.28 KCAL/MOL
REMARK 923 INTER-LIGAND FREE ENERGY PREDICTED BY IDOCK:   -5.45 KCAL/MOL
REMARK 924 INTRA-LIGAND FREE ENERGY PREDICTED BY IDOCK:   -1.83 KCAL/MOL
REMARK 927      BINDING AFFINITY PREDICTED BY RF-SCORE:    0.00 PKD
ROOT
HETATM    1  C   UNL     1     -10.509  16.185  65.305  1.00  0.00    -0.356 C  
HETATM    2  C   UNL     1     -11.081  14.778  65.293  1.00  0.00    -0.374 C  
ENDROOT
BRANCH   2   3
HETATM    3  C   UNL     1     -10.202  13.821  66.088  1.00  0.00    -0.305 C  
BRANCH   3   4
HETATM    4  C   UNL     1     -10.191  14.185  67.571  1.00  0.00    -0.241 C  
BRANCH   4   5
HETATM    5  C   UNL     1     -11.299  13.429  68.293  1.00  0.00    -0.330 C  
BRANCH   5   6
HETATM    6  C   UNL     1     -11.773  12.216  67.551  1.00  0.00    -0.385 C  
HETATM    7  C   UNL     1     -11.583  10.969  68.010  1.00  0.00    -0.326 C  
BRANCH   7   8
HETATM    8  C   UNL     1     -10.863  10.637  69.284  1.00  0.00    -0.282 C  
BRANCH   8   9
HETATM    9  C   UNL     1      -9.374  10.687  69.113  1.00  0.00    -0.174 C  
HETATM   10  C   UNL     1      -8.566   9.622  69.229  1.00  0.00    -0.153 C  
BRANCH  10  11
HETATM   11  C   UNL     1      -9.078   8.257  69.576  1.00  0.00    -0.154 C  
BRANCH  11  12
HETATM   12  C   UNL     1      -9.963   7.657  68.495  1.00  0.00    -0.190 C  
BRANCH  12  13
HETATM   13  C   UNL     1      -9.095   7.138  67.351  1.00  0.00    -0.124 C  
BRANCH  13  14
HETATM   14  C   UNL     1      -9.325   7.960  66.091  1.00  0.00    -0.188 C  
BRANCH  14  15
HETATM   15  C   UNL     1      -8.232   9.007  65.903  1.00  0.00    -0.118 C  
BRANCH  15  16
HETATM   16  C   UNL     1      -8.555   9.898  64.708  1.00  0.00    -0.191 C  
BRANCH  16  17
HETATM   17  C   UNL     1     -10.021  10.318  64.696  1.00  0.00    -0.377 C  
HETATM   18  C   UNL     1     -10.308  11.288  63.576  1.00  0.00    -0.408 C  
HETATM   19  O   UNL     1      -9.495  11.702  62.766  1.00  0.00    -0.348 OA 
HETATM   20  O   UNL     1     -11.606  11.674  63.553  1.00  0.00    -0.428 OA 
ENDBRANCH  16  17
ENDBRANCH  15  16
ENDBRANCH  14  15
ENDBRANCH  13  14
ENDBRANCH  12  13
ENDBRANCH  11  12
ENDBRANCH  10  11
ENDBRANCH   8   9
ENDBRANCH   7   8
ENDBRANCH   5   6
ENDBRANCH   4   5
ENDBRANCH   3   4
ENDBRANCH   2   3
TORSDOF 13
ENDMDL
MODEL      311
REMARK 921   NORMALIZED FREE ENERGY PREDICTED BY IDOCK:   -3.14 KCAL/MOL
REMARK 922        TOTAL FREE ENERGY PREDICTED BY IDOCK:   -7.28 KCAL/MOL
REMARK 923 INTER-LIGAND FREE ENERGY PREDICTED BY IDOCK:   -6.03 KCAL/MOL
REMARK 924 INTRA-LIGAND FREE ENERGY PREDICTED BY IDOCK:   -1.25 KCAL/MOL
REMARK 927      BINDING AFFINITY PREDICTED BY RF-SCORE:    0.00 PKD
ROOT
HETATM    1  C   UNL     1      -9.311   8.643  72.034  1.00  0.00    -0.362 C  
HETATM    2  C   UNL     1     -10.769   8.224  71.986  1.00  0.00    -0.366 C  
ENDROOT
BRANCH   2   3
HETATM    3  C   UNL     1     -11.482   8.850  70.794  1.00  0.00    -0.319 C  
BRANCH   3   4
HETATM    4  C   UNL     1     -11.480  10.375  70.889  1.00  0.00    -0.385 C  
BRANCH   4   5
HETATM    5  C   UNL     1     -12.258  10.962  69.720  1.00  0.00    -0.381 C  
BRANCH   5   6
HETATM    6  C   UNL     1     -12.124  12.450  69.603  1.00  0.00    -0.271 C  
HETATM    7  C   UNL     1     -11.298  13.034  68.720  1.00  0.00    -0.332 C  
BRANCH   7   8
HETATM    8  C   UNL     1     -10.403  12.286  67.777  1.00  0.00    -0.216 C  
BRANCH   8   9
HETATM    9  C   UNL     1      -9.171  13.071  67.437  1.00  0.00    -0.208 C  
HETATM   10  C   UNL     1      -9.086  13.933  66.412  1.00  0.00    -0.105 C  
BRANCH  10  11
HETATM   11  C   UNL     1     -10.226  14.179  65.470  1.00  0.00    -0.371 C  
BRANCH  11  12
HETATM   12  C   UNL     1     -11.025  15.426  65.813  1.00  0.00    -0.311 C  
BRANCH  12  13
HETATM   13  C   UNL     1     -10.071  16.572  66.142  1.00  0.00    -0.365 C  
BRANCH  13  14
HETATM   14  C   UNL     1     -10.612  17.402  67.297  1.00  0.00    -0.284 C  
BRANCH  14  15
HETATM   15  C   UNL     1      -9.636  17.425  68.470  1.00  0.00    -0.298 C  
BRANCH  15  16
HETATM   16  C   UNL     1      -8.348  18.138  68.070  1.00  0.00    -0.268 C  
BRANCH  16  17
HETATM   17  C   UNL     1      -8.080  19.354  68.949  1.00  0.00    -0.344 C  
HETATM   18  C   UNL     1      -6.600  19.611  69.100  1.00  0.00    -0.334 C  
HETATM   19  O   UNL     1      -5.707  18.949  68.597  1.00  0.00    -0.201 OA 
HETATM   20  O   UNL     1      -6.344  20.688  69.881  1.00  0.00    -0.312 OA 
ENDBRANCH  16  17
ENDBRANCH  15  16
ENDBRANCH  14  15
ENDBRANCH  13  14
ENDBRANCH  12  13
ENDBRANCH  11  12
ENDBRANCH  10  11
ENDBRANCH   8   9
ENDBRANCH   7   8
ENDBRANCH   5   6
ENDBRANCH   4   5
ENDBRANCH   3   4
ENDBRANCH   2   3
TORSDOF 13
ENDMDL
MODEL      312
REMARK 921   NORMALIZED FREE ENERGY PREDICTED BY IDOCK:   -3.14 KCAL/MOL
REMARK 922        TOTAL FREE ENERGY PREDICTED BY IDOCK:   -7.28 KCAL/MOL
REMARK 923 INTER-LIGAND FREE ENERGY PREDICTED BY IDOCK:   -5.16 KCAL/MOL
REMARK 924 INTRA-LIGAND FREE ENERGY PREDICTED BY IDOCK:   -2.11 KCAL/MOL
REMARK 927      BINDING AFFINITY PREDICTED BY RF-SCORE:    0.00 PKD
ROOT
HETATM    1  C   UNL     1     -12.288  12.130  63.522  1.00  0.00    -0.682 C  
HETATM    2  C   UNL     1     -12.632  12.832  64.824  1.00  0.00    -0.518 C  
ENDROOT
BRANCH   2   3
HETATM    3  C   UNL     1     -11.418  12.919  65.739  1.00  0.00    -0.376 C  
BRANCH   3   4
HETATM    4  C   UNL     1     -11.367  11.737  66.705  1.00  0.00    -0.381 C  
BRANCH   4   5
HETATM    5  C   UNL     1     -11.068  12.237  68.112  1.00  0.00    -0.285 C  
BRANCH   5   6
HETATM    6  C   UNL     1     -10.171  13.437  68.138  1.00  0.00    -0.246 C  
HETATM    7  C   UNL     1      -8.832  13.338  68.147  1.00  0.00    -0.187 C  
BRANCH   7   8
HETATM    8  C   UNL     1      -8.080  12.040  68.159  1.00  0.00    -0.160 C  
BRANCH   8   9
HETATM    9  C   UNL     1      -7.633  11.642  66.784  1.00  0.00    -0.104 C  
HETATM   10  C   UNL     1      -7.800  10.417  66.262  1.00  0.00    -0.132 C  
BRANCH  10  11
HETATM   11  C   UNL     1      -8.436   9.296  67.027  1.00  0.00    -0.124 C  
BRANCH  11  12
HETATM   12  C   UNL     1      -9.507   8.563  66.235  1.00  0.00    -0.299 C  
BRANCH  12  13
HETATM   13  C   UNL     1     -10.659   8.182  67.161  1.00  0.00    -0.355 C  
BRANCH  13  14
HETATM   14  C   UNL     1     -10.946   6.690  67.071  1.00  0.00    -0.463 C  
BRANCH  14  15
HETATM   15  C   UNL     1     -10.827   6.018  68.436  1.00  0.00    -0.361 C  
BRANCH  15  16
HETATM   16  C   UNL     1      -9.657   5.039  68.442  1.00  0.00    -0.195 C  
BRANCH  16  17
HETATM   17  C   UNL     1      -8.363   5.709  68.894  1.00  0.00    -0.103 C  
HETATM   18  C   UNL     1      -7.391   5.857  67.749  1.00  0.00    -0.077 C  
HETATM   19  O   UNL     1      -7.583   5.498  66.599  1.00  0.00    -0.086 OA 
HETATM   20  O   UNL     1      -6.234   6.448  68.134  1.00  0.00    -0.029 OA 
ENDBRANCH  16  17
ENDBRANCH  15  16
ENDBRANCH  14  15
ENDBRANCH  13  14
ENDBRANCH  12  13
ENDBRANCH  11  12
ENDBRANCH  10  11
ENDBRANCH   8   9
ENDBRANCH   7   8
ENDBRANCH   5   6
ENDBRANCH   4   5
ENDBRANCH   3   4
ENDBRANCH   2   3
TORSDOF 13
ENDMDL
MODEL      313
REMARK 921   NORMALIZED FREE ENERGY PREDICTED BY IDOCK:   -3.14 KCAL/MOL
REMARK 922        TOTAL FREE ENERGY PREDICTED BY IDOCK:   -7.28 KCAL/MOL
REMARK 923 INTER-LIGAND FREE ENERGY PREDICTED BY IDOCK:   -5.43 KCAL/MOL
REMARK 924 INTRA-LIGAND FREE ENERGY PREDICTED BY IDOCK:   -1.84 KCAL/MOL
REMARK 927      BINDING AFFINITY PREDICTED BY RF-SCORE:    0.00 PKD
ROOT
HETATM    1  C   UNL     1      -6.855  11.074  69.398  1.00  0.00    -0.119 C  
HETATM    2  C   UNL     1      -8.005  10.973  68.412  1.00  0.00    -0.131 C  
ENDROOT
BRANCH   2   3
HETATM    3  C   UNL     1      -8.556  12.350  68.066  1.00  0.00    -0.180 C  
BRANCH   3   4
HETATM    4  C   UNL     1     -10.081  12.370  68.145  1.00  0.00    -0.224 C  
BRANCH   4   5
HETATM    5  C   UNL     1     -10.591  13.776  67.856  1.00  0.00    -0.257 C  
BRANCH   5   6
HETATM    6  C   UNL     1     -12.036  13.815  67.458  1.00  0.00    -0.411 C  
HETATM    7  C   UNL     1     -12.431  14.060  66.199  1.00  0.00    -0.467 C  
BRANCH   7   8
HETATM    8  C   UNL     1     -11.498  14.348  65.060  1.00  0.00    -0.372 C  
BRANCH   8   9
HETATM    9  C   UNL     1     -11.933  13.668  63.797  1.00  0.00    -0.425 C  
HETATM   10  C   UNL     1     -12.005  12.337  63.642  1.00  0.00    -0.633 C  
BRANCH  10  11
HETATM   11  C   UNL     1     -11.621  11.379  64.729  1.00  0.00     0.021 C  
BRANCH  11  12
HETATM   12  C   UNL     1     -10.235  10.784  64.540  1.00  0.00    -0.428 C  
BRANCH  12  13
HETATM   13  C   UNL     1      -9.995   9.700  65.589  1.00  0.00    -0.321 C  
BRANCH  13  14
HETATM   14  C   UNL     1      -8.713   8.939  65.287  1.00  0.00    -0.220 C  
BRANCH  14  15
HETATM   15  C   UNL     1      -8.534   7.754  66.232  1.00  0.00    -0.143 C  
BRANCH  15  16
HETATM   16  C   UNL     1      -9.723   7.654  67.183  1.00  0.00    -0.239 C  
BRANCH  16  17
HETATM   17  C   UNL     1      -9.278   7.620  68.641  1.00  0.00    -0.141 C  
HETATM   18  C   UNL     1     -10.244   6.835  69.494  1.00  0.00    -0.184 C  
HETATM   19  O   UNL     1     -11.259   6.285  69.100  1.00  0.00    -0.376 OA 
HETATM   20  O   UNL     1      -9.865   6.798  70.794  1.00  0.00    -0.182 OA 
ENDBRANCH  16  17
ENDBRANCH  15  16
ENDBRANCH  14  15
ENDBRANCH  13  14
ENDBRANCH  12  13
ENDBRANCH  11  12
ENDBRANCH  10  11
ENDBRANCH   8   9
ENDBRANCH   7   8
ENDBRANCH   5   6
ENDBRANCH   4   5
ENDBRANCH   3   4
ENDBRANCH   2   3
TORSDOF 13
ENDMDL
MODEL      314
REMARK 921   NORMALIZED FREE ENERGY PREDICTED BY IDOCK:   -3.14 KCAL/MOL
REMARK 922        TOTAL FREE ENERGY PREDICTED BY IDOCK:   -7.27 KCAL/MOL
REMARK 923 INTER-LIGAND FREE ENERGY PREDICTED BY IDOCK:   -5.93 KCAL/MOL
REMARK 924 INTRA-LIGAND FREE ENERGY PREDICTED BY IDOCK:   -1.34 KCAL/MOL
REMARK 927      BINDING AFFINITY PREDICTED BY RF-SCORE:    0.00 PKD
ROOT
HETATM    1  C   UNL     1      -6.864  15.237  69.465  1.00  0.00    -0.180 C  
HETATM    2  C   UNL     1      -7.465  15.985  68.288  1.00  0.00    -0.136 C  
ENDROOT
BRANCH   2   3
HETATM    3  C   UNL     1      -7.696  17.451  68.629  1.00  0.00    -0.273 C  
BRANCH   3   4
HETATM    4  C   UNL     1      -9.105  17.894  68.240  1.00  0.00    -0.280 C  
BRANCH   4   5
HETATM    5  C   UNL     1      -9.887  16.702  67.705  1.00  0.00    -0.256 C  
BRANCH   5   6
HETATM    6  C   UNL     1     -11.254  16.568  68.306  1.00  0.00    -0.265 C  
HETATM    7  C   UNL     1     -11.646  15.469  68.969  1.00  0.00    -0.377 C  
BRANCH   7   8
HETATM    8  C   UNL     1     -10.794  14.250  69.165  1.00  0.00    -0.264 C  
BRANCH   8   9
HETATM    9  C   UNL     1     -11.238  13.112  68.295  1.00  0.00    -0.307 C  
HETATM   10  C   UNL     1     -11.781  11.976  68.758  1.00  0.00    -0.377 C  
BRANCH  10  11
HETATM   11  C   UNL     1     -11.973  11.714  70.221  1.00  0.00    -0.445 C  
BRANCH  11  12
HETATM   12  C   UNL     1     -11.577  10.305  70.634  1.00  0.00    -0.435 C  
BRANCH  12  13
HETATM   13  C   UNL     1     -12.434   9.858  71.816  1.00  0.00    -0.487 C  
BRANCH  13  14
HETATM   14  C   UNL     1     -12.969   8.451  71.586  1.00  0.00    -0.355 C  
BRANCH  14  15
HETATM   15  C   UNL     1     -11.928   7.396  71.948  1.00  0.00    -0.337 C  
BRANCH  15  16
HETATM   16  C   UNL     1     -11.671   6.478  70.756  1.00  0.00    -0.427 C  
BRANCH  16  17
HETATM   17  C   UNL     1     -10.181   6.319  70.476  1.00  0.00    -0.240 C  
HETATM   18  C   UNL     1      -9.768   7.079  69.239  1.00  0.00    -0.158 C  
HETATM   19  O   UNL     1     -10.506   7.744  68.532  1.00  0.00    -0.202 OA 
HETATM   20  O   UNL     1      -8.446   6.946  68.975  1.00  0.00    -0.127 OA 
ENDBRANCH  16  17
ENDBRANCH  15  16
ENDBRANCH  14  15
ENDBRANCH  13  14
ENDBRANCH  12  13
ENDBRANCH  11  12
ENDBRANCH  10  11
ENDBRANCH   8   9
ENDBRANCH   7   8
ENDBRANCH   5   6
ENDBRANCH   4   5
ENDBRANCH   3   4
ENDBRANCH   2   3
TORSDOF 13
ENDMDL
MODEL      315
REMARK 921   NORMALIZED FREE ENERGY PREDICTED BY IDOCK:   -3.13 KCAL/MOL
REMARK 922        TOTAL FREE ENERGY PREDICTED BY IDOCK:   -7.25 KCAL/MOL
REMARK 923 INTER-LIGAND FREE ENERGY PREDICTED BY IDOCK:   -5.31 KCAL/MOL
REMARK 924 INTRA-LIGAND FREE ENERGY PREDICTED BY IDOCK:   -1.94 KCAL/MOL
REMARK 927      BINDING AFFINITY PREDICTED BY RF-SCORE:    0.00 PKD
ROOT
HETATM    1  C   UNL     1     -10.282  11.223  63.707  1.00  0.00    -0.431 C  
HETATM    2  C   UNL     1     -11.255  12.370  63.496  1.00  0.00    -0.540 C  
ENDROOT
BRANCH   2   3
HETATM    3  C   UNL     1     -12.314  12.400  64.590  1.00  0.00    -0.518 C  
BRANCH   3   4
HETATM    4  C   UNL     1     -12.645  13.833  64.999  1.00  0.00    -0.427 C  
BRANCH   4   5
HETATM    5  C   UNL     1     -12.398  14.010  66.491  1.00  0.00    -0.442 C  
BRANCH   5   6
HETATM    6  C   UNL     1     -10.943  14.044  66.854  1.00  0.00    -0.301 C  
HETATM    7  C   UNL     1     -10.435  13.325  67.867  1.00  0.00    -0.244 C  
BRANCH   7   8
HETATM    8  C   UNL     1     -11.246  12.436  68.764  1.00  0.00    -0.318 C  
BRANCH   8   9
HETATM    9  C   UNL     1     -11.548  11.117  68.117  1.00  0.00    -0.350 C  
HETATM   10  C   UNL     1     -10.774  10.027  68.230  1.00  0.00    -0.280 C  
BRANCH  10  11
HETATM   11  C   UNL     1      -9.491  10.028  69.006  1.00  0.00    -0.190 C  
BRANCH  11  12
HETATM   12  C   UNL     1      -8.285  10.419  68.167  1.00  0.00    -0.116 C  
BRANCH  12  13
HETATM   13  C   UNL     1      -7.466   9.173  67.835  1.00  0.00    -0.084 C  
BRANCH  13  14
HETATM   14  C   UNL     1      -7.708   8.744  66.395  1.00  0.00    -0.099 C  
BRANCH  14  15
HETATM   15  C   UNL     1      -8.301   7.339  66.327  1.00  0.00    -0.129 C  
BRANCH  15  16
HETATM   16  C   UNL     1      -8.222   6.666  67.693  1.00  0.00    -0.122 C  
BRANCH  16  17
HETATM   17  C   UNL     1      -9.567   6.082  68.113  1.00  0.00    -0.122 C  
HETATM   18  C   UNL     1      -9.726   6.089  69.614  1.00  0.00    -0.152 C  
HETATM   19  O   UNL     1      -8.904   6.501  70.416  1.00  0.00    -0.148 OA 
HETATM   20  O   UNL     1     -10.915   5.570  70.005  1.00  0.00    -0.301 OA 
ENDBRANCH  16  17
ENDBRANCH  15  16
ENDBRANCH  14  15
ENDBRANCH  13  14
ENDBRANCH  12  13
ENDBRANCH  11  12
ENDBRANCH  10  11
ENDBRANCH   8   9
ENDBRANCH   7   8
ENDBRANCH   5   6
ENDBRANCH   4   5
ENDBRANCH   3   4
ENDBRANCH   2   3
TORSDOF 13
ENDMDL
MODEL      316
REMARK 921   NORMALIZED FREE ENERGY PREDICTED BY IDOCK:   -3.13 KCAL/MOL
REMARK 922        TOTAL FREE ENERGY PREDICTED BY IDOCK:   -7.25 KCAL/MOL
REMARK 923 INTER-LIGAND FREE ENERGY PREDICTED BY IDOCK:   -5.79 KCAL/MOL
REMARK 924 INTRA-LIGAND FREE ENERGY PREDICTED BY IDOCK:   -1.47 KCAL/MOL
REMARK 927      BINDING AFFINITY PREDICTED BY RF-SCORE:    0.00 PKD
ROOT
HETATM    1  C   UNL     1      -6.844  17.096  66.842  1.00  0.00    -0.242 C  
HETATM    2  C   UNL     1      -7.417  17.371  68.221  1.00  0.00    -0.227 C  
ENDROOT
BRANCH   2   3
HETATM    3  C   UNL     1      -7.595  16.079  69.009  1.00  0.00    -0.209 C  
BRANCH   3   4
HETATM    4  C   UNL     1      -9.059  15.644  69.033  1.00  0.00    -0.241 C  
BRANCH   4   5
HETATM    5  C   UNL     1      -9.362  14.797  67.805  1.00  0.00    -0.199 C  
BRANCH   5   6
HETATM    6  C   UNL     1     -10.308  13.667  68.080  1.00  0.00    -0.250 C  
HETATM    7  C   UNL     1      -9.886  12.416  68.323  1.00  0.00    -0.224 C  
BRANCH   7   8
HETATM    8  C   UNL     1      -8.446  11.994  68.322  1.00  0.00    -0.167 C  
BRANCH   8   9
HETATM    9  C   UNL     1      -8.208  10.825  67.413  1.00  0.00    -0.116 C  
HETATM   10  C   UNL     1      -8.446   9.548  67.749  1.00  0.00    -0.119 C  
BRANCH  10  11
HETATM   11  C   UNL     1      -8.957   9.153  69.101  1.00  0.00    -0.144 C  
BRANCH  11  12
HETATM   12  C   UNL     1     -10.460   8.930  69.131  1.00  0.00    -0.236 C  
BRANCH  12  13
HETATM   13  C   UNL     1     -10.881   8.463  70.523  1.00  0.00    -0.250 C  
BRANCH  13  14
HETATM   14  C   UNL     1     -11.378   9.638  71.353  1.00  0.00    -0.444 C  
BRANCH  14  15
HETATM   15  C   UNL     1     -12.116  10.657  70.489  1.00  0.00    -0.448 C  
BRANCH  15  16
HETATM   16  C   UNL     1     -12.888  11.634  71.369  1.00  0.00    -0.461 C  
BRANCH  16  17
HETATM   17  C   UNL     1     -12.691  13.077  70.918  1.00  0.00    -0.299 C  
HETATM   18  C   UNL     1     -13.603  14.018  71.667  1.00  0.00    -0.350 C  
HETATM   19  O   UNL     1     -14.405  13.699  72.529  1.00  0.00    -0.707 OA 
HETATM   20  O   UNL     1     -13.443  15.306  71.275  1.00  0.00    -0.454 OA 
ENDBRANCH  16  17
ENDBRANCH  15  16
ENDBRANCH  14  15
ENDBRANCH  13  14
ENDBRANCH  12  13
ENDBRANCH  11  12
ENDBRANCH  10  11
ENDBRANCH   8   9
ENDBRANCH   7   8
ENDBRANCH   5   6
ENDBRANCH   4   5
ENDBRANCH   3   4
ENDBRANCH   2   3
TORSDOF 13
ENDMDL
MODEL      317
REMARK 921   NORMALIZED FREE ENERGY PREDICTED BY IDOCK:   -3.12 KCAL/MOL
REMARK 922        TOTAL FREE ENERGY PREDICTED BY IDOCK:   -7.24 KCAL/MOL
REMARK 923 INTER-LIGAND FREE ENERGY PREDICTED BY IDOCK:   -5.59 KCAL/MOL
REMARK 924 INTRA-LIGAND FREE ENERGY PREDICTED BY IDOCK:   -1.66 KCAL/MOL
REMARK 927      BINDING AFFINITY PREDICTED BY RF-SCORE:    0.00 PKD
ROOT
HETATM    1  C   UNL     1     -10.232   5.098  66.472  1.00  0.00    -0.300 C  
HETATM    2  C   UNL     1     -11.156   6.286  66.675  1.00  0.00    -0.115 C  
ENDROOT
BRANCH   2   3
HETATM    3  C   UNL     1     -10.426   7.440  67.350  1.00  0.00    -0.366 C  
BRANCH   3   4
HETATM    4  C   UNL     1     -10.261   7.188  68.848  1.00  0.00    -0.188 C  
BRANCH   4   5
HETATM    5  C   UNL     1     -11.577   6.692  69.432  1.00  0.00    -0.210 C  
BRANCH   5   6
HETATM    6  C   UNL     1     -11.517   6.448  70.910  1.00  0.00    -0.406 C  
HETATM    7  C   UNL     1     -12.382   7.010  71.770  1.00  0.00    -0.391 C  
BRANCH   7   8
HETATM    8  C   UNL     1     -13.477   7.955  71.372  1.00  0.00    -0.290 C  
BRANCH   8   9
HETATM    9  C   UNL     1     -13.374   9.265  72.094  1.00  0.00    -0.537 C  
HETATM   10  C   UNL     1     -13.176  10.446  71.488  1.00  0.00    -0.485 C  
BRANCH  10  11
HETATM   11  C   UNL     1     -13.007  10.571  70.004  1.00  0.00     0.071 C  
BRANCH  11  12
HETATM   12  C   UNL     1     -11.619  11.038  69.598  1.00  0.00    -0.390 C  
BRANCH  12  13
HETATM   13  C   UNL     1     -11.430  10.840  68.096  1.00  0.00    -0.346 C  
BRANCH  13  14
HETATM   14  C   UNL     1     -10.090  11.402  67.647  1.00  0.00    -0.200 C  
BRANCH  14  15
HETATM   15  C   UNL     1     -10.265  12.450  66.551  1.00  0.00    -0.244 C  
BRANCH  15  16
HETATM   16  C   UNL     1     -10.992  13.673  67.103  1.00  0.00    -0.299 C  
BRANCH  16  17
HETATM   17  C   UNL     1     -10.340  14.187  68.382  1.00  0.00    -0.249 C  
HETATM   18  C   UNL     1      -9.347  15.286  68.092  1.00  0.00    -0.198 C  
HETATM   19  O   UNL     1      -9.077  15.729  66.988  1.00  0.00    -0.202 OA 
HETATM   20  O   UNL     1      -8.756  15.752  69.218  1.00  0.00    -0.240 OA 
ENDBRANCH  16  17
ENDBRANCH  15  16
ENDBRANCH  14  15
ENDBRANCH  13  14
ENDBRANCH  12  13
ENDBRANCH  11  12
ENDBRANCH  10  11
ENDBRANCH   8   9
ENDBRANCH   7   8
ENDBRANCH   5   6
ENDBRANCH   4   5
ENDBRANCH   3   4
ENDBRANCH   2   3
TORSDOF 13
ENDMDL
MODEL      318
REMARK 921   NORMALIZED FREE ENERGY PREDICTED BY IDOCK:   -3.12 KCAL/MOL
REMARK 922        TOTAL FREE ENERGY PREDICTED BY IDOCK:   -7.24 KCAL/MOL
REMARK 923 INTER-LIGAND FREE ENERGY PREDICTED BY IDOCK:   -4.87 KCAL/MOL
REMARK 924 INTRA-LIGAND FREE ENERGY PREDICTED BY IDOCK:   -2.37 KCAL/MOL
REMARK 927      BINDING AFFINITY PREDICTED BY RF-SCORE:    0.00 PKD
ROOT
HETATM    1  C   UNL     1      -8.088   8.458  71.519  1.00  0.00    -0.172 C  
HETATM    2  C   UNL     1      -8.579   7.257  72.308  1.00  0.00    -0.131 C  
ENDROOT
BRANCH   2   3
HETATM    3  C   UNL     1      -9.550   7.678  73.403  1.00  0.00    -0.346 C  
BRANCH   3   4
HETATM    4  C   UNL     1     -10.630   6.620  73.620  1.00  0.00    -0.323 C  
BRANCH   4   5
HETATM    5  C   UNL     1     -11.087   6.070  72.276  1.00  0.00    -0.324 C  
BRANCH   5   6
HETATM    6  C   UNL     1     -12.450   6.546  71.871  1.00  0.00    -0.291 C  
HETATM    7  C   UNL     1     -12.637   7.642  71.118  1.00  0.00    -0.257 C  
BRANCH   7   8
HETATM    8  C   UNL     1     -11.532   8.525  70.619  1.00  0.00    -0.249 C  
BRANCH   8   9
HETATM    9  C   UNL     1     -11.849   9.978  70.811  1.00  0.00    -0.435 C  
HETATM   10  C   UNL     1     -11.351  10.966  70.051  1.00  0.00    -0.386 C  
BRANCH  10  11
HETATM   11  C   UNL     1     -10.386  10.711  68.932  1.00  0.00    -0.225 C  
BRANCH  11  12
HETATM   12  C   UNL     1     -11.069  10.485  67.593  1.00  0.00    -0.375 C  
BRANCH  12  13
HETATM   13  C   UNL     1     -10.135   9.709  66.667  1.00  0.00    -0.307 C  
BRANCH  13  14
HETATM   14  C   UNL     1      -9.311   8.704  67.458  1.00  0.00    -0.162 C  
BRANCH  14  15
HETATM   15  C   UNL     1     -10.004   7.346  67.524  1.00  0.00    -0.225 C  
BRANCH  15  16
HETATM   16  C   UNL     1      -8.969   6.229  67.609  1.00  0.00    -0.115 C  
BRANCH  16  17
HETATM   17  C   UNL     1      -8.870   5.656  69.019  1.00  0.00    -0.106 C  
HETATM   18  C   UNL     1      -9.251   4.196  69.049  1.00  0.00    -0.150 C  
HETATM   19  O   UNL     1      -9.598   3.530  68.087  1.00  0.00    -0.174 OA 
HETATM   20  O   UNL     1      -9.172   3.672  70.296  1.00  0.00    -0.119 OA 
ENDBRANCH  16  17
ENDBRANCH  15  16
ENDBRANCH  14  15
ENDBRANCH  13  14
ENDBRANCH  12  13
ENDBRANCH  11  12
ENDBRANCH  10  11
ENDBRANCH   8   9
ENDBRANCH   7   8
ENDBRANCH   5   6
ENDBRANCH   4   5
ENDBRANCH   3   4
ENDBRANCH   2   3
TORSDOF 13
ENDMDL
MODEL      319
REMARK 921   NORMALIZED FREE ENERGY PREDICTED BY IDOCK:   -3.11 KCAL/MOL
REMARK 922        TOTAL FREE ENERGY PREDICTED BY IDOCK:   -7.22 KCAL/MOL
REMARK 923 INTER-LIGAND FREE ENERGY PREDICTED BY IDOCK:   -5.78 KCAL/MOL
REMARK 924 INTRA-LIGAND FREE ENERGY PREDICTED BY IDOCK:   -1.44 KCAL/MOL
REMARK 927      BINDING AFFINITY PREDICTED BY RF-SCORE:    0.00 PKD
ROOT
HETATM    1  C   UNL     1      -7.899   6.687  69.753  1.00  0.00    -0.115 C  
HETATM    2  C   UNL     1      -9.335   7.174  69.840  1.00  0.00    -0.150 C  
ENDROOT
BRANCH   2   3
HETATM    3  C   UNL     1     -10.294   6.016  70.085  1.00  0.00    -0.284 C  
BRANCH   3   4
HETATM    4  C   UNL     1     -11.460   6.443  70.975  1.00  0.00    -0.394 C  
BRANCH   4   5
HETATM    5  C   UNL     1     -11.849   7.880  70.653  1.00  0.00    -0.116 C  
BRANCH   5   6
HETATM    6  C   UNL     1     -12.325   8.649  71.849  1.00  0.00    -0.414 C  
HETATM    7  C   UNL     1     -12.788   9.906  71.761  1.00  0.00    -0.540 C  
BRANCH   7   8
HETATM    8  C   UNL     1     -12.860  10.694  70.486  1.00  0.00    -0.356 C  
BRANCH   8   9
HETATM    9  C   UNL     1     -11.718  11.658  70.361  1.00  0.00    -0.292 C  
HETATM   10  C   UNL     1     -11.286  12.168  69.198  1.00  0.00    -0.303 C  
BRANCH  10  11
HETATM   11  C   UNL     1     -11.895  11.795  67.880  1.00  0.00    -0.289 C  
BRANCH  11  12
HETATM   12  C   UNL     1     -11.957  12.955  66.900  1.00  0.00    -0.402 C  
BRANCH  12  13
HETATM   13  C   UNL     1     -10.562  13.233  66.344  1.00  0.00    -0.288 C  
BRANCH  13  14
HETATM   14  C   UNL     1     -10.573  13.183  64.824  1.00  0.00    -0.390 C  
BRANCH  14  15
HETATM   15  C   UNL     1     -10.805  11.763  64.315  1.00  0.00    -0.404 C  
BRANCH  15  16
HETATM   16  C   UNL     1      -9.556  10.914  64.533  1.00  0.00    -0.312 C  
BRANCH  16  17
HETATM   17  C   UNL     1      -9.864   9.652  65.331  1.00  0.00    -0.322 C  
HETATM   18  C   UNL     1      -8.632   8.800  65.512  1.00  0.00    -0.174 C  
HETATM   19  O   UNL     1      -7.518   9.059  65.089  1.00  0.00    -0.094 OA 
HETATM   20  O   UNL     1      -8.889   7.671  66.217  1.00  0.00    -0.144 OA 
ENDBRANCH  16  17
ENDBRANCH  15  16
ENDBRANCH  14  15
ENDBRANCH  13  14
ENDBRANCH  12  13
ENDBRANCH  11  12
ENDBRANCH  10  11
ENDBRANCH   8   9
ENDBRANCH   7   8
ENDBRANCH   5   6
ENDBRANCH   4   5
ENDBRANCH   3   4
ENDBRANCH   2   3
TORSDOF 13
ENDMDL
MODEL      320
REMARK 921   NORMALIZED FREE ENERGY PREDICTED BY IDOCK:   -3.11 KCAL/MOL
REMARK 922        TOTAL FREE ENERGY PREDICTED BY IDOCK:   -7.22 KCAL/MOL
REMARK 923 INTER-LIGAND FREE ENERGY PREDICTED BY IDOCK:   -5.15 KCAL/MOL
REMARK 924 INTRA-LIGAND FREE ENERGY PREDICTED BY IDOCK:   -2.07 KCAL/MOL
REMARK 927      BINDING AFFINITY PREDICTED BY RF-SCORE:    0.00 PKD
ROOT
HETATM    1  C   UNL     1      -8.729  10.566  69.019  1.00  0.00    -0.160 C  
HETATM    2  C   UNL     1      -9.422   9.227  69.204  1.00  0.00    -0.157 C  
ENDROOT
BRANCH   2   3
HETATM    3  C   UNL     1      -8.431   8.076  69.092  1.00  0.00    -0.136 C  
BRANCH   3   4
HETATM    4  C   UNL     1      -9.007   6.792  69.684  1.00  0.00    -0.143 C  
BRANCH   4   5
HETATM    5  C   UNL     1      -8.011   6.188  70.665  1.00  0.00    -0.111 C  
BRANCH   5   6
HETATM    6  C   UNL     1      -8.033   4.689  70.688  1.00  0.00    -0.068 C  
HETATM    7  C   UNL     1      -8.575   3.990  71.699  1.00  0.00    -0.122 C  
BRANCH   7   8
HETATM    8  C   UNL     1      -9.189   4.608  72.920  1.00  0.00    -0.137 C  
BRANCH   8   9
HETATM    9  C   UNL     1     -10.664   4.824  72.754  1.00  0.00    -0.282 C  
HETATM   10  C   UNL     1     -11.267   6.019  72.857  1.00  0.00    -0.265 C  
BRANCH  10  11
HETATM   11  C   UNL     1     -10.516   7.274  73.182  1.00  0.00    -0.385 C  
BRANCH  11  12
HETATM   12  C   UNL     1     -10.992   8.479  72.387  1.00  0.00    -0.390 C  
BRANCH  12  13
HETATM   13  C   UNL     1     -12.494   8.364  72.132  1.00  0.00    -0.422 C  
BRANCH  13  14
HETATM   14  C   UNL     1     -12.942   9.397  71.108  1.00  0.00    -0.307 C  
BRANCH  14  15
HETATM   15  C   UNL     1     -12.011  10.605  71.092  1.00  0.00    -0.401 C  
BRANCH  15  16
HETATM   16  C   UNL     1     -12.403  11.559  69.967  1.00  0.00    -0.287 C  
BRANCH  16  17
HETATM   17  C   UNL     1     -12.221  13.017  70.375  1.00  0.00    -0.386 C  
HETATM   18  C   UNL     1     -12.038  13.907  69.169  1.00  0.00    -0.338 C  
HETATM   19  O   UNL     1     -12.031  13.539  68.006  1.00  0.00    -0.355 OA 
HETATM   20  O   UNL     1     -11.872  15.206  69.514  1.00  0.00    -0.300 OA 
ENDBRANCH  16  17
ENDBRANCH  15  16
ENDBRANCH  14  15
ENDBRANCH  13  14
ENDBRANCH  12  13
ENDBRANCH  11  12
ENDBRANCH  10  11
ENDBRANCH   8   9
ENDBRANCH   7   8
ENDBRANCH   5   6
ENDBRANCH   4   5
ENDBRANCH   3   4
ENDBRANCH   2   3
TORSDOF 13
ENDMDL
MODEL      321
REMARK 921   NORMALIZED FREE ENERGY PREDICTED BY IDOCK:   -3.11 KCAL/MOL
REMARK 922        TOTAL FREE ENERGY PREDICTED BY IDOCK:   -7.21 KCAL/MOL
REMARK 923 INTER-LIGAND FREE ENERGY PREDICTED BY IDOCK:   -5.38 KCAL/MOL
REMARK 924 INTRA-LIGAND FREE ENERGY PREDICTED BY IDOCK:   -1.84 KCAL/MOL
REMARK 927      BINDING AFFINITY PREDICTED BY RF-SCORE:    0.00 PKD
ROOT
HETATM    1  C   UNL     1     -11.157   6.301  69.418  1.00  0.00    -0.477 C  
HETATM    2  C   UNL     1     -10.658   7.677  69.014  1.00  0.00    -0.186 C  
ENDROOT
BRANCH   2   3
HETATM    3  C   UNL     1     -10.543   8.596  70.223  1.00  0.00    -0.240 C  
BRANCH   3   4
HETATM    4  C   UNL     1      -9.154   8.508  70.853  1.00  0.00    -0.208 C  
BRANCH   4   5
HETATM    5  C   UNL     1      -8.092   8.712  69.781  1.00  0.00    -0.114 C  
BRANCH   5   6
HETATM    6  C   UNL     1      -7.150   9.838  70.084  1.00  0.00    -0.130 C  
HETATM    7  C   UNL     1      -7.260  11.046  69.508  1.00  0.00    -0.091 C  
BRANCH   7   8
HETATM    8  C   UNL     1      -8.301  11.406  68.490  1.00  0.00    -0.153 C  
BRANCH   8   9
HETATM    9  C   UNL     1      -7.763  11.336  67.092  1.00  0.00    -0.147 C  
HETATM   10  C   UNL     1      -8.385  10.722  66.073  1.00  0.00    -0.163 C  
BRANCH  10  11
HETATM   11  C   UNL     1      -9.691  10.007  66.242  1.00  0.00    -0.272 C  
BRANCH  11  12
HETATM   12  C   UNL     1     -10.898  10.905  66.026  1.00  0.00    -0.155 C  
BRANCH  12  13
HETATM   13  C   UNL     1     -10.778  11.607  64.675  1.00  0.00    -0.371 C  
BRANCH  13  14
HETATM   14  C   UNL     1     -12.122  12.182  64.251  1.00  0.00    -0.465 C  
BRANCH  14  15
HETATM   15  C   UNL     1     -12.118  13.706  64.312  1.00  0.00    -0.480 C  
BRANCH  15  16
HETATM   16  C   UNL     1     -10.726  14.217  64.670  1.00  0.00    -0.408 C  
BRANCH  16  17
HETATM   17  C   UNL     1     -10.785  15.556  65.396  1.00  0.00    -0.422 C  
HETATM   18  C   UNL     1     -10.717  15.375  66.893  1.00  0.00    -0.314 C  
HETATM   19  O   UNL     1     -10.627  14.308  67.479  1.00  0.00    -0.258 OA 
HETATM   20  O   UNL     1     -10.772  16.556  67.555  1.00  0.00    -0.321 OA 
ENDBRANCH  16  17
ENDBRANCH  15  16
ENDBRANCH  14  15
ENDBRANCH  13  14
ENDBRANCH  12  13
ENDBRANCH  11  12
ENDBRANCH  10  11
ENDBRANCH   8   9
ENDBRANCH   7   8
ENDBRANCH   5   6
ENDBRANCH   4   5
ENDBRANCH   3   4
ENDBRANCH   2   3
TORSDOF 13
ENDMDL
MODEL      322
REMARK 921   NORMALIZED FREE ENERGY PREDICTED BY IDOCK:   -3.11 KCAL/MOL
REMARK 922        TOTAL FREE ENERGY PREDICTED BY IDOCK:   -7.21 KCAL/MOL
REMARK 923 INTER-LIGAND FREE ENERGY PREDICTED BY IDOCK:   -5.37 KCAL/MOL
REMARK 924 INTRA-LIGAND FREE ENERGY PREDICTED BY IDOCK:   -1.84 KCAL/MOL
REMARK 927      BINDING AFFINITY PREDICTED BY RF-SCORE:    0.00 PKD
ROOT
HETATM    1  C   UNL     1      -8.813  11.186  66.112  1.00  0.00    -0.195 C  
HETATM    2  C   UNL     1      -9.634  10.810  64.892  1.00  0.00    -0.307 C  
ENDROOT
BRANCH   2   3
HETATM    3  C   UNL     1     -10.354  12.024  64.318  1.00  0.00    -0.357 C  
BRANCH   3   4
HETATM    4  C   UNL     1     -11.261  12.671  65.363  1.00  0.00    -0.334 C  
BRANCH   4   5
HETATM    5  C   UNL     1     -11.228  14.185  65.203  1.00  0.00    -0.337 C  
BRANCH   5   6
HETATM    6  C   UNL     1      -9.854  14.769  65.343  1.00  0.00    -0.295 C  
HETATM    7  C   UNL     1      -9.613  15.887  66.046  1.00  0.00    -0.385 C  
BRANCH   7   8
HETATM    8  C   UNL     1     -10.670  16.693  66.741  1.00  0.00    -0.133 C  
BRANCH   8   9
HETATM    9  C   UNL     1     -10.366  16.872  68.199  1.00  0.00    -0.336 C  
HETATM   10  C   UNL     1     -10.855  16.089  69.173  1.00  0.00    -0.281 C  
BRANCH  10  11
HETATM   11  C   UNL     1     -11.794  14.954  68.898  1.00  0.00    -0.334 C  
BRANCH  11  12
HETATM   12  C   UNL     1     -11.234  13.601  69.304  1.00  0.00    -0.284 C  
BRANCH  12  13
HETATM   13  C   UNL     1     -11.959  12.495  68.541  1.00  0.00    -0.266 C  
BRANCH  13  14
HETATM   14  C   UNL     1     -12.154  11.274  69.427  1.00  0.00    -0.384 C  
BRANCH  14  15
HETATM   15  C   UNL     1     -11.112  10.199  69.130  1.00  0.00    -0.257 C  
BRANCH  15  16
HETATM   16  C   UNL     1     -10.554   9.631  70.431  1.00  0.00    -0.354 C  
BRANCH  16  17
HETATM   17  C   UNL     1      -9.773   8.343  70.196  1.00  0.00    -0.175 C  
HETATM   18  C   UNL     1      -8.286   8.598  70.163  1.00  0.00    -0.123 C  
HETATM   19  O   UNL     1      -7.745   9.682  70.303  1.00  0.00    -0.145 OA 
HETATM   20  O   UNL     1      -7.577   7.463  69.951  1.00  0.00    -0.086 OA 
ENDBRANCH  16  17
ENDBRANCH  15  16
ENDBRANCH  14  15
ENDBRANCH  13  14
ENDBRANCH  12  13
ENDBRANCH  11  12
ENDBRANCH  10  11
ENDBRANCH   8   9
ENDBRANCH   7   8
ENDBRANCH   5   6
ENDBRANCH   4   5
ENDBRANCH   3   4
ENDBRANCH   2   3
TORSDOF 13
ENDMDL
MODEL      323
REMARK 921   NORMALIZED FREE ENERGY PREDICTED BY IDOCK:   -3.11 KCAL/MOL
REMARK 922        TOTAL FREE ENERGY PREDICTED BY IDOCK:   -7.21 KCAL/MOL
REMARK 923 INTER-LIGAND FREE ENERGY PREDICTED BY IDOCK:   -5.26 KCAL/MOL
REMARK 924 INTRA-LIGAND FREE ENERGY PREDICTED BY IDOCK:   -1.95 KCAL/MOL
REMARK 927      BINDING AFFINITY PREDICTED BY RF-SCORE:    0.00 PKD
ROOT
HETATM    1  C   UNL     1      -9.100   6.353  68.009  1.00  0.00    -0.113 C  
HETATM    2  C   UNL     1      -9.265   7.825  68.344  1.00  0.00    -0.137 C  
ENDROOT
BRANCH   2   3
HETATM    3  C   UNL     1     -10.493   8.410  67.659  1.00  0.00    -0.307 C  
BRANCH   3   4
HETATM    4  C   UNL     1     -10.468   9.937  67.691  1.00  0.00    -0.296 C  
BRANCH   4   5
HETATM    5  C   UNL     1     -10.584  10.421  69.129  1.00  0.00    -0.255 C  
BRANCH   5   6
HETATM    6  C   UNL     1     -11.942  10.957  69.469  1.00  0.00    -0.401 C  
HETATM    7  C   UNL     1     -12.600  10.603  70.585  1.00  0.00    -0.454 C  
BRANCH   7   8
HETATM    8  C   UNL     1     -12.081   9.626  71.598  1.00  0.00    -0.481 C  
BRANCH   8   9
HETATM    9  C   UNL     1     -13.113   8.602  71.964  1.00  0.00    -0.417 C  
HETATM   10  C   UNL     1     -13.095   7.328  71.542  1.00  0.00    -0.434 C  
BRANCH  10  11
HETATM   11  C   UNL     1     -12.037   6.801  70.620  1.00  0.00    -0.371 C  
BRANCH  11  12
HETATM   12  C   UNL     1     -10.812   6.279  71.353  1.00  0.00    -0.312 C  
BRANCH  12  13
HETATM   13  C   UNL     1      -9.964   7.453  71.834  1.00  0.00    -0.196 C  
BRANCH  13  14
HETATM   14  C   UNL     1      -9.534   7.245  73.279  1.00  0.00    -0.240 C  
BRANCH  14  15
HETATM   15  C   UNL     1     -10.359   6.153  73.952  1.00  0.00    -0.302 C  
BRANCH  15  16
HETATM   16  C   UNL     1      -9.445   5.051  74.480  1.00  0.00    -0.143 C  
BRANCH  16  17
HETATM   17  C   UNL     1      -9.801   3.691  73.889  1.00  0.00    -0.154 C  
HETATM   18  C   UNL     1      -8.924   3.357  72.708  1.00  0.00    -0.088 C  
HETATM   19  O   UNL     1      -8.036   4.061  72.257  1.00  0.00    -0.082 OA 
HETATM   20  O   UNL     1      -9.230   2.152  72.168  1.00  0.00    -0.077 OA 
ENDBRANCH  16  17
ENDBRANCH  15  16
ENDBRANCH  14  15
ENDBRANCH  13  14
ENDBRANCH  12  13
ENDBRANCH  11  12
ENDBRANCH  10  11
ENDBRANCH   8   9
ENDBRANCH   7   8
ENDBRANCH   5   6
ENDBRANCH   4   5
ENDBRANCH   3   4
ENDBRANCH   2   3
TORSDOF 13
ENDMDL
MODEL      324
REMARK 921   NORMALIZED FREE ENERGY PREDICTED BY IDOCK:   -3.11 KCAL/MOL
REMARK 922        TOTAL FREE ENERGY PREDICTED BY IDOCK:   -7.21 KCAL/MOL
REMARK 923 INTER-LIGAND FREE ENERGY PREDICTED BY IDOCK:   -5.01 KCAL/MOL
REMARK 924 INTRA-LIGAND FREE ENERGY PREDICTED BY IDOCK:   -2.20 KCAL/MOL
REMARK 927      BINDING AFFINITY PREDICTED BY RF-SCORE:    0.00 PKD
ROOT
HETATM    1  C   UNL     1     -11.033   6.161  66.899  1.00  0.00    -0.384 C  
HETATM    2  C   UNL     1      -9.641   6.727  66.683  1.00  0.00    -0.211 C  
ENDROOT
BRANCH   2   3
HETATM    3  C   UNL     1      -9.539   8.152  67.210  1.00  0.00    -0.211 C  
BRANCH   3   4
HETATM    4  C   UNL     1     -10.822   8.568  67.926  1.00  0.00    -0.045 C  
BRANCH   4   5
HETATM    5  C   UNL     1     -10.485   9.117  69.306  1.00  0.00    -0.231 C  
BRANCH   5   6
HETATM    6  C   UNL     1     -10.013   8.067  70.265  1.00  0.00    -0.189 C  
HETATM    7  C   UNL     1     -10.859   7.332  71.004  1.00  0.00    -0.258 C  
BRANCH   7   8
HETATM    8  C   UNL     1     -12.351   7.485  70.984  1.00  0.00    -0.265 C  
BRANCH   8   9
HETATM    9  C   UNL     1     -12.872   8.050  72.272  1.00  0.00    -0.213 C  
HETATM   10  C   UNL     1     -13.359   9.294  72.407  1.00  0.00    -0.521 C  
BRANCH  10  11
HETATM   11  C   UNL     1     -13.404  10.268  71.269  1.00  0.00    -0.369 C  
BRANCH  11  12
HETATM   12  C   UNL     1     -12.254  11.263  71.287  1.00  0.00    -0.275 C  
BRANCH  12  13
HETATM   13  C   UNL     1     -12.735  12.610  70.753  1.00  0.00    -0.213 C  
BRANCH  13  14
HETATM   14  C   UNL     1     -11.697  13.215  69.819  1.00  0.00    -0.350 C  
BRANCH  14  15
HETATM   15  C   UNL     1     -11.987  12.863  68.363  1.00  0.00    -0.289 C  
BRANCH  15  16
HETATM   16  C   UNL     1     -10.849  13.342  67.467  1.00  0.00    -0.276 C  
BRANCH  16  17
HETATM   17  C   UNL     1      -9.487  12.935  68.018  1.00  0.00    -0.213 C  
HETATM   18  C   UNL     1      -8.804  11.936  67.116  1.00  0.00    -0.180 C  
HETATM   19  O   UNL     1      -9.256  11.491  66.074  1.00  0.00    -0.214 OA 
HETATM   20  O   UNL     1      -7.593  11.560  67.593  1.00  0.00    -0.103 OA 
ENDBRANCH  16  17
ENDBRANCH  15  16
ENDBRANCH  14  15
ENDBRANCH  13  14
ENDBRANCH  12  13
ENDBRANCH  11  12
ENDBRANCH  10  11
ENDBRANCH   8   9
ENDBRANCH   7   8
ENDBRANCH   5   6
ENDBRANCH   4   5
ENDBRANCH   3   4
ENDBRANCH   2   3
TORSDOF 13
ENDMDL
MODEL      325
REMARK 921   NORMALIZED FREE ENERGY PREDICTED BY IDOCK:   -3.10 KCAL/MOL
REMARK 922        TOTAL FREE ENERGY PREDICTED BY IDOCK:   -7.21 KCAL/MOL
REMARK 923 INTER-LIGAND FREE ENERGY PREDICTED BY IDOCK:   -4.61 KCAL/MOL
REMARK 924 INTRA-LIGAND FREE ENERGY PREDICTED BY IDOCK:   -2.60 KCAL/MOL
REMARK 927      BINDING AFFINITY PREDICTED BY RF-SCORE:    0.00 PKD
ROOT
HETATM    1  C   UNL     1     -10.526   6.297  67.338  1.00  0.00    -0.308 C  
HETATM    2  C   UNL     1      -9.289   6.925  66.720  1.00  0.00    -0.190 C  
ENDROOT
BRANCH   2   3
HETATM    3  C   UNL     1      -9.493   8.415  66.475  1.00  0.00    -0.284 C  
BRANCH   3   4
HETATM    4  C   UNL     1     -10.895   8.855  66.892  1.00  0.00     0.010 C  
BRANCH   4   5
HETATM    5  C   UNL     1     -10.798  10.044  67.838  1.00  0.00    -0.323 C  
BRANCH   5   6
HETATM    6  C   UNL     1     -11.273  11.330  67.230  1.00  0.00    -0.364 C  
HETATM    7  C   UNL     1     -10.440  12.195  66.630  1.00  0.00    -0.248 C  
BRANCH   7   8
HETATM    8  C   UNL     1      -8.957  12.002  66.518  1.00  0.00    -0.193 C  
BRANCH   8   9
HETATM    9  C   UNL     1      -8.218  12.704  67.618  1.00  0.00    -0.174 C  
HETATM   10  C   UNL     1      -7.432  12.086  68.513  1.00  0.00    -0.117 C  
BRANCH  10  11
HETATM   11  C   UNL     1      -7.233  10.600  68.519  1.00  0.00    -0.086 C  
BRANCH  11  12
HETATM   12  C   UNL     1      -7.550   9.960  69.861  1.00  0.00    -0.167 C  
BRANCH  12  13
HETATM   13  C   UNL     1      -7.796   8.465  69.669  1.00  0.00    -0.100 C  
BRANCH  13  14
HETATM   14  C   UNL     1      -9.035   8.025  70.435  1.00  0.00    -0.146 C  
BRANCH  14  15
HETATM   15  C   UNL     1      -9.705   9.205  71.133  1.00  0.00    -0.360 C  
BRANCH  15  16
HETATM   16  C   UNL     1     -11.000   8.756  71.802  1.00  0.00    -0.415 C  
BRANCH  16  17
HETATM   17  C   UNL     1     -11.202   7.249  71.687  1.00  0.00    -0.275 C  
HETATM   18  C   UNL     1     -10.854   6.546  72.976  1.00  0.00    -0.261 C  
HETATM   19  O   UNL     1     -10.460   7.084  73.998  1.00  0.00    -0.366 OA 
HETATM   20  O   UNL     1     -11.025   5.204  72.890  1.00  0.00    -0.243 OA 
ENDBRANCH  16  17
ENDBRANCH  15  16
ENDBRANCH  14  15
ENDBRANCH  13  14
ENDBRANCH  12  13
ENDBRANCH  11  12
ENDBRANCH  10  11
ENDBRANCH   8   9
ENDBRANCH   7   8
ENDBRANCH   5   6
ENDBRANCH   4   5
ENDBRANCH   3   4
ENDBRANCH   2   3
TORSDOF 13
ENDMDL
MODEL      326
REMARK 921   NORMALIZED FREE ENERGY PREDICTED BY IDOCK:   -3.10 KCAL/MOL
REMARK 922        TOTAL FREE ENERGY PREDICTED BY IDOCK:   -7.20 KCAL/MOL
REMARK 923 INTER-LIGAND FREE ENERGY PREDICTED BY IDOCK:   -6.00 KCAL/MOL
REMARK 924 INTRA-LIGAND FREE ENERGY PREDICTED BY IDOCK:   -1.20 KCAL/MOL
REMARK 927      BINDING AFFINITY PREDICTED BY RF-SCORE:    0.00 PKD
ROOT
HETATM    1  C   UNL     1      -6.757   6.466  68.449  1.00  0.00    -0.068 C  
HETATM    2  C   UNL     1      -7.171   7.849  68.923  1.00  0.00    -0.076 C  
ENDROOT
BRANCH   2   3
HETATM    3  C   UNL     1      -8.672   7.918  69.171  1.00  0.00    -0.138 C  
BRANCH   3   4
HETATM    4  C   UNL     1      -9.002   8.906  70.288  1.00  0.00    -0.201 C  
BRANCH   4   5
HETATM    5  C   UNL     1      -9.891  10.016  69.743  1.00  0.00    -0.270 C  
BRANCH   5   6
HETATM    6  C   UNL     1      -9.395  10.598  68.454  1.00  0.00    -0.163 C  
HETATM    7  C   UNL     1     -10.176  11.332  67.646  1.00  0.00    -0.206 C  
BRANCH   7   8
HETATM    8  C   UNL     1     -11.621  11.634  67.912  1.00  0.00    -0.369 C  
BRANCH   8   9
HETATM    9  C   UNL     1     -11.846  13.092  68.183  1.00  0.00    -0.381 C  
HETATM   10  C   UNL     1     -11.957  14.029  67.229  1.00  0.00    -0.448 C  
BRANCH  10  11
HETATM   11  C   UNL     1     -11.837  13.709  65.770  1.00  0.00    -0.397 C  
BRANCH  11  12
HETATM   12  C   UNL     1     -10.728  14.484  65.077  1.00  0.00    -0.444 C  
BRANCH  12  13
HETATM   13  C   UNL     1      -9.656  14.866  66.096  1.00  0.00    -0.340 C  
BRANCH  13  14
HETATM   14  C   UNL     1      -9.291  16.337  65.960  1.00  0.00    -0.361 C  
BRANCH  14  15
HETATM   15  C   UNL     1     -10.535  17.209  65.818  1.00  0.00    -0.242 C  
BRANCH  15  16
HETATM   16  C   UNL     1     -10.224  18.644  66.231  1.00  0.00    -0.462 C  
BRANCH  16  17
HETATM   17  C   UNL     1      -8.866  18.753  66.916  1.00  0.00    -0.299 C  
HETATM   18  C   UNL     1      -9.004  19.224  68.343  1.00  0.00    -0.352 C  
HETATM   19  O   UNL     1     -10.052  19.492  68.906  1.00  0.00    -0.442 OA 
HETATM   20  O   UNL     1      -7.805  19.329  68.965  1.00  0.00    -0.342 OA 
ENDBRANCH  16  17
ENDBRANCH  15  16
ENDBRANCH  14  15
ENDBRANCH  13  14
ENDBRANCH  12  13
ENDBRANCH  11  12
ENDBRANCH  10  11
ENDBRANCH   8   9
ENDBRANCH   7   8
ENDBRANCH   5   6
ENDBRANCH   4   5
ENDBRANCH   3   4
ENDBRANCH   2   3
TORSDOF 13
ENDMDL
MODEL      327
REMARK 921   NORMALIZED FREE ENERGY PREDICTED BY IDOCK:   -3.09 KCAL/MOL
REMARK 922        TOTAL FREE ENERGY PREDICTED BY IDOCK:   -7.18 KCAL/MOL
REMARK 923 INTER-LIGAND FREE ENERGY PREDICTED BY IDOCK:   -5.96 KCAL/MOL
REMARK 924 INTRA-LIGAND FREE ENERGY PREDICTED BY IDOCK:   -1.22 KCAL/MOL
REMARK 927      BINDING AFFINITY PREDICTED BY RF-SCORE:    0.00 PKD
ROOT
HETATM    1  C   UNL     1      -9.910  19.618  68.252  1.00  0.00    -0.521 C  
HETATM    2  C   UNL     1      -9.255  19.512  66.886  1.00  0.00    -0.408 C  
ENDROOT
BRANCH   2   3
HETATM    3  C   UNL     1      -7.911  20.228  66.864  1.00  0.00    -0.349 C  
BRANCH   3   4
HETATM    4  C   UNL     1      -7.167  20.046  68.185  1.00  0.00    -0.320 C  
BRANCH   4   5
HETATM    5  C   UNL     1      -5.889  19.253  67.950  1.00  0.00    -0.212 C  
BRANCH   5   6
HETATM    6  C   UNL     1      -5.358  18.598  69.189  1.00  0.00    -0.198 C  
HETATM    7  C   UNL     1      -5.892  17.476  69.698  1.00  0.00    -0.243 C  
BRANCH   7   8
HETATM    8  C   UNL     1      -7.080  16.766  69.118  1.00  0.00    -0.222 C  
BRANCH   8   9
HETATM    9  C   UNL     1      -6.724  15.397  68.622  1.00  0.00    -0.102 C  
HETATM   10  C   UNL     1      -7.331  14.787  67.592  1.00  0.00    -0.206 C  
BRANCH  10  11
HETATM   11  C   UNL     1      -8.465  15.414  66.839  1.00  0.00    -0.287 C  
BRANCH  11  12
HETATM   12  C   UNL     1      -9.807  14.759  67.124  1.00  0.00    -0.232 C  
BRANCH  12  13
HETATM   13  C   UNL     1      -9.606  13.266  67.373  1.00  0.00    -0.223 C  
BRANCH  13  14
HETATM   14  C   UNL     1     -10.942  12.540  67.370  1.00  0.00    -0.297 C  
BRANCH  14  15
HETATM   15  C   UNL     1     -10.960  11.404  68.389  1.00  0.00    -0.263 C  
BRANCH  15  16
HETATM   16  C   UNL     1     -11.440  11.917  69.743  1.00  0.00    -0.303 C  
BRANCH  16  17
HETATM   17  C   UNL     1     -12.073  10.807  70.575  1.00  0.00    -0.459 C  
HETATM   18  C   UNL     1     -12.948  11.369  71.669  1.00  0.00    -0.418 C  
HETATM   19  O   UNL     1     -13.144  12.553  71.887  1.00  0.00    -0.417 OA 
HETATM   20  O   UNL     1     -13.517  10.396  72.420  1.00  0.00    -0.282 OA 
ENDBRANCH  16  17
ENDBRANCH  15  16
ENDBRANCH  14  15
ENDBRANCH  13  14
ENDBRANCH  12  13
ENDBRANCH  11  12
ENDBRANCH  10  11
ENDBRANCH   8   9
ENDBRANCH   7   8
ENDBRANCH   5   6
ENDBRANCH   4   5
ENDBRANCH   3   4
ENDBRANCH   2   3
TORSDOF 13
ENDMDL
MODEL      328
REMARK 921   NORMALIZED FREE ENERGY PREDICTED BY IDOCK:   -3.09 KCAL/MOL
REMARK 922        TOTAL FREE ENERGY PREDICTED BY IDOCK:   -7.18 KCAL/MOL
REMARK 923 INTER-LIGAND FREE ENERGY PREDICTED BY IDOCK:   -5.23 KCAL/MOL
REMARK 924 INTRA-LIGAND FREE ENERGY PREDICTED BY IDOCK:   -1.95 KCAL/MOL
REMARK 927      BINDING AFFINITY PREDICTED BY RF-SCORE:    0.00 PKD
ROOT
HETATM    1  C   UNL     1     -11.010   7.344  71.579  1.00  0.00    -0.255 C  
HETATM    2  C   UNL     1     -10.096   7.938  70.522  1.00  0.00    -0.192 C  
ENDROOT
BRANCH   2   3
HETATM    3  C   UNL     1     -10.646   7.699  69.122  1.00  0.00    -0.195 C  
BRANCH   3   4
HETATM    4  C   UNL     1     -11.107   6.253  68.950  1.00  0.00    -0.434 C  
BRANCH   4   5
HETATM    5  C   UNL     1     -10.411   5.633  67.746  1.00  0.00    -0.275 C  
BRANCH   5   6
HETATM    6  C   UNL     1      -9.563   4.447  68.093  1.00  0.00    -0.200 C  
HETATM    7  C   UNL     1      -8.299   4.567  68.531  1.00  0.00    -0.089 C  
BRANCH   7   8
HETATM    8  C   UNL     1      -7.582   5.874  68.698  1.00  0.00    -0.090 C  
BRANCH   8   9
HETATM    9  C   UNL     1      -6.569   6.097  67.615  1.00  0.00    -0.056 C  
HETATM   10  C   UNL     1      -6.595   7.131  66.759  1.00  0.00    -0.055 C  
BRANCH  10  11
HETATM   11  C   UNL     1      -7.675   8.169  66.784  1.00  0.00    -0.095 C  
BRANCH  11  12
HETATM   12  C   UNL     1      -8.516   8.188  65.518  1.00  0.00    -0.174 C  
BRANCH  12  13
HETATM   13  C   UNL     1      -9.716   9.111  65.714  1.00  0.00    -0.299 C  
BRANCH  13  14
HETATM   14  C   UNL     1      -9.274  10.449  66.288  1.00  0.00    -0.195 C  
BRANCH  14  15
HETATM   15  C   UNL     1      -9.789  11.613  65.447  1.00  0.00    -0.268 C  
BRANCH  15  16
HETATM   16  C   UNL     1     -11.148  12.077  65.964  1.00  0.00    -0.364 C  
BRANCH  16  17
HETATM   17  C   UNL     1     -12.020  12.631  64.842  1.00  0.00    -0.459 C  
HETATM   18  C   UNL     1     -11.791  14.109  64.646  1.00  0.00    -0.431 C  
HETATM   19  O   UNL     1     -11.016  14.802  65.284  1.00  0.00    -0.329 OA 
HETATM   20  O   UNL     1     -12.561  14.619  63.654  1.00  0.00    -0.773 OA 
ENDBRANCH  16  17
ENDBRANCH  15  16
ENDBRANCH  14  15
ENDBRANCH  13  14
ENDBRANCH  12  13
ENDBRANCH  11  12
ENDBRANCH  10  11
ENDBRANCH   8   9
ENDBRANCH   7   8
ENDBRANCH   5   6
ENDBRANCH   4   5
ENDBRANCH   3   4
ENDBRANCH   2   3
TORSDOF 13
ENDMDL
MODEL      329
REMARK 921   NORMALIZED FREE ENERGY PREDICTED BY IDOCK:   -3.07 KCAL/MOL
REMARK 922        TOTAL FREE ENERGY PREDICTED BY IDOCK:   -7.15 KCAL/MOL
REMARK 923 INTER-LIGAND FREE ENERGY PREDICTED BY IDOCK:   -5.13 KCAL/MOL
REMARK 924 INTRA-LIGAND FREE ENERGY PREDICTED BY IDOCK:   -2.02 KCAL/MOL
REMARK 927      BINDING AFFINITY PREDICTED BY RF-SCORE:    0.00 PKD
ROOT
HETATM    1  C   UNL     1     -12.550  10.134  71.411  1.00  0.00    -0.526 C  
HETATM    2  C   UNL     1     -11.447   9.119  71.652  1.00  0.00    -0.451 C  
ENDROOT
BRANCH   2   3
HETATM    3  C   UNL     1     -12.014   7.807  72.179  1.00  0.00    -0.362 C  
BRANCH   3   4
HETATM    4  C   UNL     1     -12.342   6.848  71.035  1.00  0.00    -0.401 C  
BRANCH   4   5
HETATM    5  C   UNL     1     -11.051   6.329  70.416  1.00  0.00    -0.416 C  
BRANCH   5   6
HETATM    6  C   UNL     1     -11.158   6.074  68.943  1.00  0.00    -0.349 C  
HETATM    7  C   UNL     1     -10.267   5.325  68.274  1.00  0.00    -0.200 C  
BRANCH   7   8
HETATM    8  C   UNL     1      -9.062   4.685  68.897  1.00  0.00    -0.163 C  
BRANCH   8   9
HETATM    9  C   UNL     1      -7.901   5.631  68.965  1.00  0.00    -0.096 C  
HETATM   10  C   UNL     1      -7.015   5.810  67.973  1.00  0.00    -0.065 C  
BRANCH  10  11
HETATM   11  C   UNL     1      -7.083   5.046  66.685  1.00  0.00    -0.069 C  
BRANCH  11  12
HETATM   12  C   UNL     1      -6.912   5.927  65.458  1.00  0.00    -0.064 C  
BRANCH  12  13
HETATM   13  C   UNL     1      -8.189   6.731  65.222  1.00  0.00    -0.127 C  
BRANCH  13  14
HETATM   14  C   UNL     1      -8.148   8.038  66.000  1.00  0.00    -0.110 C  
BRANCH  14  15
HETATM   15  C   UNL     1      -9.541   8.452  66.465  1.00  0.00    -0.304 C  
BRANCH  15  16
HETATM   16  C   UNL     1      -9.440   9.411  67.647  1.00  0.00    -0.154 C  
BRANCH  16  17
HETATM   17  C   UNL     1     -10.813   9.886  68.109  1.00  0.00    -0.282 C  
HETATM   18  C   UNL     1     -11.066  11.318  67.706  1.00  0.00    -0.271 C  
HETATM   19  O   UNL     1     -10.292  12.033  67.090  1.00  0.00    -0.210 OA 
HETATM   20  O   UNL     1     -12.282  11.757  68.112  1.00  0.00    -0.507 OA 
ENDBRANCH  16  17
ENDBRANCH  15  16
ENDBRANCH  14  15
ENDBRANCH  13  14
ENDBRANCH  12  13
ENDBRANCH  11  12
ENDBRANCH  10  11
ENDBRANCH   8   9
ENDBRANCH   7   8
ENDBRANCH   5   6
ENDBRANCH   4   5
ENDBRANCH   3   4
ENDBRANCH   2   3
TORSDOF 13
ENDMDL
MODEL      330
REMARK 921   NORMALIZED FREE ENERGY PREDICTED BY IDOCK:   -3.06 KCAL/MOL
REMARK 922        TOTAL FREE ENERGY PREDICTED BY IDOCK:   -7.12 KCAL/MOL
REMARK 923 INTER-LIGAND FREE ENERGY PREDICTED BY IDOCK:   -5.68 KCAL/MOL
REMARK 924 INTRA-LIGAND FREE ENERGY PREDICTED BY IDOCK:   -1.44 KCAL/MOL
REMARK 927      BINDING AFFINITY PREDICTED BY RF-SCORE:    0.00 PKD
ROOT
HETATM    1  C   UNL     1      -7.317  16.085  68.985  1.00  0.00    -0.191 C  
HETATM    2  C   UNL     1      -8.656  15.406  68.753  1.00  0.00    -0.190 C  
ENDROOT
BRANCH   2   3
HETATM    3  C   UNL     1      -8.680  14.684  67.412  1.00  0.00    -0.209 C  
BRANCH   3   4
HETATM    4  C   UNL     1      -9.419  15.505  66.357  1.00  0.00    -0.320 C  
BRANCH   4   5
HETATM    5  C   UNL     1     -10.127  14.571  65.384  1.00  0.00    -0.394 C  
BRANCH   5   6
HETATM    6  C   UNL     1     -11.478  14.130  65.860  1.00  0.00    -0.338 C  
HETATM    7  C   UNL     1     -11.782  12.841  66.078  1.00  0.00    -0.470 C  
BRANCH   7   8
HETATM    8  C   UNL     1     -10.835  11.699  65.851  1.00  0.00    -0.339 C  
BRANCH   8   9
HETATM    9  C   UNL     1     -10.044  11.377  67.084  1.00  0.00    -0.226 C  
HETATM   10  C   UNL     1      -9.861  10.136  67.559  1.00  0.00    -0.211 C  
BRANCH  10  11
HETATM   11  C   UNL     1     -10.463   8.928  66.908  1.00  0.00    -0.304 C  
BRANCH  11  12
HETATM   12  C   UNL     1      -9.424   7.961  66.363  1.00  0.00    -0.258 C  
BRANCH  12  13
HETATM   13  C   UNL     1      -9.775   6.537  66.788  1.00  0.00    -0.208 C  
BRANCH  13  14
HETATM   14  C   UNL     1     -11.024   6.532  67.657  1.00  0.00    -0.426 C  
BRANCH  14  15
HETATM   15  C   UNL     1     -10.784   5.797  68.972  1.00  0.00    -0.354 C  
BRANCH  15  16
HETATM   16  C   UNL     1      -9.695   6.500  69.777  1.00  0.00    -0.170 C  
BRANCH  16  17
HETATM   17  C   UNL     1     -10.110   6.705  71.230  1.00  0.00    -0.207 C  
HETATM   18  C   UNL     1     -10.920   7.967  71.399  1.00  0.00    -0.234 C  
HETATM   19  O   UNL     1     -11.222   8.745  70.508  1.00  0.00    -0.255 OA 
HETATM   20  O   UNL     1     -11.295   8.167  72.685  1.00  0.00    -0.380 OA 
ENDBRANCH  16  17
ENDBRANCH  15  16
ENDBRANCH  14  15
ENDBRANCH  13  14
ENDBRANCH  12  13
ENDBRANCH  11  12
ENDBRANCH  10  11
ENDBRANCH   8   9
ENDBRANCH   7   8
ENDBRANCH   5   6
ENDBRANCH   4   5
ENDBRANCH   3   4
ENDBRANCH   2   3
TORSDOF 13
ENDMDL
MODEL      331
REMARK 921   NORMALIZED FREE ENERGY PREDICTED BY IDOCK:   -3.05 KCAL/MOL
REMARK 922        TOTAL FREE ENERGY PREDICTED BY IDOCK:   -7.11 KCAL/MOL
REMARK 923 INTER-LIGAND FREE ENERGY PREDICTED BY IDOCK:   -5.79 KCAL/MOL
REMARK 924 INTRA-LIGAND FREE ENERGY PREDICTED BY IDOCK:   -1.31 KCAL/MOL
REMARK 927      BINDING AFFINITY PREDICTED BY RF-SCORE:    0.00 PKD
ROOT
HETATM    1  C   UNL     1      -7.498  12.407  68.388  1.00  0.00    -0.123 C  
HETATM    2  C   UNL     1      -7.865  13.494  67.394  1.00  0.00    -0.157 C  
ENDROOT
BRANCH   2   3
HETATM    3  C   UNL     1      -9.272  13.287  66.848  1.00  0.00    -0.242 C  
BRANCH   3   4
HETATM    4  C   UNL     1      -9.595  11.801  66.704  1.00  0.00    -0.219 C  
BRANCH   4   5
HETATM    5  C   UNL     1     -10.920  11.495  67.391  1.00  0.00    -0.317 C  
BRANCH   5   6
HETATM    6  C   UNL     1     -11.367  12.576  68.329  1.00  0.00    -0.331 C  
HETATM    7  C   UNL     1     -11.873  12.312  69.544  1.00  0.00    -0.380 C  
BRANCH   7   8
HETATM    8  C   UNL     1     -12.076  10.931  70.095  1.00  0.00    -0.431 C  
BRANCH   8   9
HETATM    9  C   UNL     1     -12.821  10.953  71.396  1.00  0.00    -0.554 C  
HETATM   10  C   UNL     1     -13.177   9.855  72.079  1.00  0.00    -0.555 C  
BRANCH  10  11
HETATM   11  C   UNL     1     -12.885   8.470  71.586  1.00  0.00    -0.366 C  
BRANCH  11  12
HETATM   12  C   UNL     1     -11.647   7.858  72.220  1.00  0.00    -0.406 C  
BRANCH  12  13
HETATM   13  C   UNL     1     -10.571   7.658  71.155  1.00  0.00    -0.235 C  
BRANCH  13  14
HETATM   14  C   UNL     1     -11.070   6.729  70.059  1.00  0.00    -0.366 C  
BRANCH  14  15
HETATM   15  C   UNL     1     -10.149   5.524  69.889  1.00  0.00    -0.305 C  
BRANCH  15  16
HETATM   16  C   UNL     1      -9.251   5.715  68.671  1.00  0.00    -0.134 C  
BRANCH  16  17
HETATM   17  C   UNL     1      -9.127   4.433  67.855  1.00  0.00    -0.154 C  
HETATM   18  C   UNL     1      -9.881   4.534  66.552  1.00  0.00    -0.227 C  
HETATM   19  O   UNL     1     -10.518   5.502  66.170  1.00  0.00    -0.175 OA 
HETATM   20  O   UNL     1      -9.784   3.401  65.815  1.00  0.00    -0.117 OA 
ENDBRANCH  16  17
ENDBRANCH  15  16
ENDBRANCH  14  15
ENDBRANCH  13  14
ENDBRANCH  12  13
ENDBRANCH  11  12
ENDBRANCH  10  11
ENDBRANCH   8   9
ENDBRANCH   7   8
ENDBRANCH   5   6
ENDBRANCH   4   5
ENDBRANCH   3   4
ENDBRANCH   2   3
TORSDOF 13
ENDMDL
MODEL      332
REMARK 921   NORMALIZED FREE ENERGY PREDICTED BY IDOCK:   -3.03 KCAL/MOL
REMARK 922        TOTAL FREE ENERGY PREDICTED BY IDOCK:   -7.08 KCAL/MOL
REMARK 923 INTER-LIGAND FREE ENERGY PREDICTED BY IDOCK:   -4.85 KCAL/MOL
REMARK 924 INTRA-LIGAND FREE ENERGY PREDICTED BY IDOCK:   -2.23 KCAL/MOL
REMARK 927      BINDING AFFINITY PREDICTED BY RF-SCORE:    0.00 PKD
ROOT
HETATM    1  C   UNL     1      -5.963  11.805  70.127  1.00  0.00    -0.162 C  
HETATM    2  C   UNL     1      -7.043  11.498  69.104  1.00  0.00    -0.105 C  
ENDROOT
BRANCH   2   3
HETATM    3  C   UNL     1      -6.802  12.258  67.807  1.00  0.00    -0.109 C  
BRANCH   3   4
HETATM    4  C   UNL     1      -8.112  12.785  67.224  1.00  0.00    -0.172 C  
BRANCH   4   5
HETATM    5  C   UNL     1      -8.694  13.846  68.148  1.00  0.00    -0.182 C  
BRANCH   5   6
HETATM    6  C   UNL     1      -8.179  15.226  67.869  1.00  0.00    -0.151 C  
HETATM    7  C   UNL     1      -8.972  16.219  67.437  1.00  0.00    -0.197 C  
BRANCH   7   8
HETATM    8  C   UNL     1     -10.439  16.070  67.159  1.00  0.00    -0.308 C  
BRANCH   8   9
HETATM    9  C   UNL     1     -10.784  16.472  65.756  1.00  0.00    -0.232 C  
HETATM   10  C   UNL     1     -10.907  15.612  64.733  1.00  0.00    -0.377 C  
BRANCH  10  11
HETATM   11  C   UNL     1     -10.677  14.139  64.889  1.00  0.00    -0.444 C  
BRANCH  11  12
HETATM   12  C   UNL     1     -11.840  13.419  65.552  1.00  0.00    -0.394 C  
BRANCH  12  13
HETATM   13  C   UNL     1     -11.441  11.978  65.861  1.00  0.00    -0.392 C  
BRANCH  13  14
HETATM   14  C   UNL     1     -10.616  11.396  64.722  1.00  0.00    -0.377 C  
BRANCH  14  15
HETATM   15  C   UNL     1      -9.957  10.081  65.128  1.00  0.00    -0.350 C  
BRANCH  15  16
HETATM   16  C   UNL     1     -10.354   9.710  66.553  1.00  0.00    -0.264 C  
BRANCH  16  17
HETATM   17  C   UNL     1      -9.169   9.170  67.347  1.00  0.00    -0.150 C  
HETATM   18  C   UNL     1      -9.541   7.924  68.113  1.00  0.00    -0.152 C  
HETATM   19  O   UNL     1     -10.638   7.391  68.119  1.00  0.00    -0.203 OA 
HETATM   20  O   UNL     1      -8.499   7.432  68.827  1.00  0.00    -0.128 OA 
ENDBRANCH  16  17
ENDBRANCH  15  16
ENDBRANCH  14  15
ENDBRANCH  13  14
ENDBRANCH  12  13
ENDBRANCH  11  12
ENDBRANCH  10  11
ENDBRANCH   8   9
ENDBRANCH   7   8
ENDBRANCH   5   6
ENDBRANCH   4   5
ENDBRANCH   3   4
ENDBRANCH   2   3
TORSDOF 13
ENDMDL
MODEL      333
REMARK 921   NORMALIZED FREE ENERGY PREDICTED BY IDOCK:   -3.03 KCAL/MOL
REMARK 922        TOTAL FREE ENERGY PREDICTED BY IDOCK:   -7.08 KCAL/MOL
REMARK 923 INTER-LIGAND FREE ENERGY PREDICTED BY IDOCK:   -6.22 KCAL/MOL
REMARK 924 INTRA-LIGAND FREE ENERGY PREDICTED BY IDOCK:   -0.86 KCAL/MOL
REMARK 927      BINDING AFFINITY PREDICTED BY RF-SCORE:    0.00 PKD
ROOT
HETATM    1  C   UNL     1      -8.914   5.314  65.698  1.00  0.00    -0.160 C  
HETATM    2  C   UNL     1     -10.200   4.868  66.372  1.00  0.00    -0.313 C  
ENDROOT
BRANCH   2   3
HETATM    3  C   UNL     1     -10.717   5.936  67.328  1.00  0.00    -0.380 C  
BRANCH   3   4
HETATM    4  C   UNL     1      -9.749   6.152  68.489  1.00  0.00    -0.141 C  
BRANCH   4   5
HETATM    5  C   UNL     1      -9.521   7.644  68.695  1.00  0.00    -0.151 C  
BRANCH   5   6
HETATM    6  C   UNL     1      -9.560   8.433  67.421  1.00  0.00    -0.202 C  
HETATM    7  C   UNL     1     -10.300   9.545  67.283  1.00  0.00    -0.319 C  
BRANCH   7   8
HETATM    8  C   UNL     1     -11.183  10.111  68.356  1.00  0.00    -0.238 C  
BRANCH   8   9
HETATM    9  C   UNL     1     -10.725  11.469  68.797  1.00  0.00    -0.247 C  
HETATM   10  C   UNL     1     -11.008  12.609  68.147  1.00  0.00    -0.265 C  
BRANCH  10  11
HETATM   11  C   UNL     1     -11.801  12.634  66.876  1.00  0.00    -0.425 C  
BRANCH  11  12
HETATM   12  C   UNL     1     -12.040  14.040  66.348  1.00  0.00    -0.483 C  
BRANCH  12  13
HETATM   13  C   UNL     1     -10.900  14.954  66.791  1.00  0.00    -0.320 C  
BRANCH  13  14
HETATM   14  C   UNL     1     -11.333  15.815  67.969  1.00  0.00    -0.310 C  
BRANCH  14  15
HETATM   15  C   UNL     1     -10.360  15.685  69.138  1.00  0.00    -0.241 C  
BRANCH  15  16
HETATM   16  C   UNL     1     -11.001  16.213  70.418  1.00  0.00    -0.320 C  
BRANCH  16  17
HETATM   17  C   UNL     1     -12.291  15.471  70.751  1.00  0.00    -0.463 C  
HETATM   18  C   UNL     1     -12.540  15.439  72.239  1.00  0.00    -0.373 C  
HETATM   19  O   UNL     1     -11.822  15.934  73.093  1.00  0.00    -0.440 OA 
HETATM   20  O   UNL     1     -13.682  14.780  72.553  1.00  0.00    -0.426 OA 
ENDBRANCH  16  17
ENDBRANCH  15  16
ENDBRANCH  14  15
ENDBRANCH  13  14
ENDBRANCH  12  13
ENDBRANCH  11  12
ENDBRANCH  10  11
ENDBRANCH   8   9
ENDBRANCH   7   8
ENDBRANCH   5   6
ENDBRANCH   4   5
ENDBRANCH   3   4
ENDBRANCH   2   3
TORSDOF 13
ENDMDL
MODEL      334
REMARK 921   NORMALIZED FREE ENERGY PREDICTED BY IDOCK:   -2.99 KCAL/MOL
REMARK 922        TOTAL FREE ENERGY PREDICTED BY IDOCK:   -7.00 KCAL/MOL
REMARK 923 INTER-LIGAND FREE ENERGY PREDICTED BY IDOCK:   -5.54 KCAL/MOL
REMARK 924 INTRA-LIGAND FREE ENERGY PREDICTED BY IDOCK:   -1.46 KCAL/MOL
REMARK 927      BINDING AFFINITY PREDICTED BY RF-SCORE:    0.00 PKD
ROOT
HETATM    1  C   UNL     1      -7.897  15.568  69.033  1.00  0.00    -0.201 C  
HETATM    2  C   UNL     1      -8.490  15.800  67.654  1.00  0.00    -0.171 C  
ENDROOT
BRANCH   2   3
HETATM    3  C   UNL     1      -9.135  17.176  67.558  1.00  0.00    -0.225 C  
BRANCH   3   4
HETATM    4  C   UNL     1     -10.321  17.164  66.596  1.00  0.00    -0.310 C  
BRANCH   4   5
HETATM    5  C   UNL     1     -10.469  15.778  65.982  1.00  0.00    -0.350 C  
BRANCH   5   6
HETATM    6  C   UNL     1     -11.189  15.784  64.667  1.00  0.00    -0.373 C  
HETATM    7  C   UNL     1     -12.220  14.965  64.406  1.00  0.00    -0.399 C  
BRANCH   7   8
HETATM    8  C   UNL     1     -12.754  13.943  65.366  1.00  0.00    -0.525 C  
BRANCH   8   9
HETATM    9  C   UNL     1     -11.951  12.677  65.335  1.00  0.00    -0.496 C  
HETATM   10  C   UNL     1     -11.300  12.170  66.394  1.00  0.00    -0.411 C  
BRANCH  10  11
HETATM   11  C   UNL     1     -11.287  12.849  67.731  1.00  0.00    -0.343 C  
BRANCH  11  12
HETATM   12  C   UNL     1     -10.239  12.286  68.677  1.00  0.00    -0.177 C  
BRANCH  12  13
HETATM   13  C   UNL     1     -10.875  11.225  69.573  1.00  0.00    -0.207 C  
BRANCH  13  14
HETATM   14  C   UNL     1     -10.047   9.949  69.560  1.00  0.00    -0.240 C  
BRANCH  14  15
HETATM   15  C   UNL     1     -10.168   9.221  68.224  1.00  0.00    -0.236 C  
BRANCH  15  16
HETATM   16  C   UNL     1     -10.773   7.836  68.429  1.00  0.00    -0.088 C  
BRANCH  16  17
HETATM   17  C   UNL     1     -10.905   7.077  67.114  1.00  0.00    -0.427 C  
HETATM   18  C   UNL     1      -9.789   6.074  66.943  1.00  0.00    -0.158 C  
HETATM   19  O   UNL     1      -8.884   5.873  67.735  1.00  0.00    -0.111 OA 
HETATM   20  O   UNL     1      -9.889   5.392  65.776  1.00  0.00    -0.097 OA 
ENDBRANCH  16  17
ENDBRANCH  15  16
ENDBRANCH  14  15
ENDBRANCH  13  14
ENDBRANCH  12  13
ENDBRANCH  11  12
ENDBRANCH  10  11
ENDBRANCH   8   9
ENDBRANCH   7   8
ENDBRANCH   5   6
ENDBRANCH   4   5
ENDBRANCH   3   4
ENDBRANCH   2   3
TORSDOF 13
ENDMDL
MODEL      335
REMARK 921   NORMALIZED FREE ENERGY PREDICTED BY IDOCK:   -2.98 KCAL/MOL
REMARK 922        TOTAL FREE ENERGY PREDICTED BY IDOCK:   -6.98 KCAL/MOL
REMARK 923 INTER-LIGAND FREE ENERGY PREDICTED BY IDOCK:   -5.63 KCAL/MOL
REMARK 924 INTRA-LIGAND FREE ENERGY PREDICTED BY IDOCK:   -1.35 KCAL/MOL
REMARK 927      BINDING AFFINITY PREDICTED BY RF-SCORE:    0.00 PKD
ROOT
HETATM    1  C   UNL     1      -6.341   4.278  63.895  1.00  0.00    -0.030 C  
HETATM    2  C   UNL     1      -6.269   5.786  64.054  1.00  0.00    -0.025 C  
ENDROOT
BRANCH   2   3
HETATM    3  C   UNL     1      -7.629   6.365  64.422  1.00  0.00    -0.098 C  
BRANCH   3   4
HETATM    4  C   UNL     1      -8.127   7.331  63.349  1.00  0.00    -0.003 C  
BRANCH   4   5
HETATM    5  C   UNL     1      -7.750   8.757  63.727  1.00  0.00    -0.133 C  
BRANCH   5   6
HETATM    6  C   UNL     1      -8.873   9.735  63.555  1.00  0.00    -0.260 C  
HETATM    7  C   UNL     1      -9.571  10.221  64.593  1.00  0.00    -0.374 C  
BRANCH   7   8
HETATM    8  C   UNL     1      -9.340   9.834  66.024  1.00  0.00    -0.249 C  
BRANCH   8   9
HETATM    9  C   UNL     1     -10.309   8.785  66.482  1.00  0.00    -0.254 C  
HETATM   10  C   UNL     1     -10.465   8.410  67.761  1.00  0.00    -0.284 C  
BRANCH  10  11
HETATM   11  C   UNL     1      -9.650   8.992  68.876  1.00  0.00    -0.156 C  
BRANCH  11  12
HETATM   12  C   UNL     1      -9.827  10.494  69.025  1.00  0.00    -0.224 C  
BRANCH  12  13
HETATM   13  C   UNL     1     -11.046  10.783  69.898  1.00  0.00    -0.339 C  
BRANCH  13  14
HETATM   14  C   UNL     1     -12.061  11.623  69.137  1.00  0.00    -0.315 C  
BRANCH  14  15
HETATM   15  C   UNL     1     -11.727  13.109  69.222  1.00  0.00    -0.376 C  
BRANCH  15  16
HETATM   16  C   UNL     1     -11.857  13.759  67.847  1.00  0.00    -0.413 C  
BRANCH  16  17
HETATM   17  C   UNL     1     -11.749  12.732  66.726  1.00  0.00    -0.459 C  
HETATM   18  C   UNL     1     -12.511  13.172  65.500  1.00  0.00    -0.458 C  
HETATM   19  O   UNL     1     -13.143  14.209  65.388  1.00  0.00    -0.743 OA 
HETATM   20  O   UNL     1     -12.427  12.269  64.493  1.00  0.00    -0.439 OA 
ENDBRANCH  16  17
ENDBRANCH  15  16
ENDBRANCH  14  15
ENDBRANCH  13  14
ENDBRANCH  12  13
ENDBRANCH  11  12
ENDBRANCH  10  11
ENDBRANCH   8   9
ENDBRANCH   7   8
ENDBRANCH   5   6
ENDBRANCH   4   5
ENDBRANCH   3   4
ENDBRANCH   2   3
TORSDOF 13
ENDMDL
MODEL      336
REMARK 921   NORMALIZED FREE ENERGY PREDICTED BY IDOCK:   -2.97 KCAL/MOL
REMARK 922        TOTAL FREE ENERGY PREDICTED BY IDOCK:   -6.97 KCAL/MOL
REMARK 923 INTER-LIGAND FREE ENERGY PREDICTED BY IDOCK:   -4.80 KCAL/MOL
REMARK 924 INTRA-LIGAND FREE ENERGY PREDICTED BY IDOCK:   -2.17 KCAL/MOL
REMARK 927      BINDING AFFINITY PREDICTED BY RF-SCORE:    0.00 PKD
ROOT
HETATM    1  C   UNL     1      -7.355  10.840  68.144  1.00  0.00    -0.088 C  
HETATM    2  C   UNL     1      -7.263  12.096  67.296  1.00  0.00    -0.144 C  
ENDROOT
BRANCH   2   3
HETATM    3  C   UNL     1      -6.967  13.318  68.155  1.00  0.00    -0.114 C  
BRANCH   3   4
HETATM    4  C   UNL     1      -7.912  14.471  67.819  1.00  0.00    -0.168 C  
BRANCH   4   5
HETATM    5  C   UNL     1      -8.375  15.145  69.104  1.00  0.00    -0.221 C  
BRANCH   5   6
HETATM    6  C   UNL     1      -9.867  15.201  69.242  1.00  0.00    -0.231 C  
HETATM    7  C   UNL     1     -10.550  16.356  69.232  1.00  0.00    -0.311 C  
BRANCH   7   8
HETATM    8  C   UNL     1      -9.917  17.712  69.111  1.00  0.00    -0.192 C  
BRANCH   8   9
HETATM    9  C   UNL     1     -10.651  18.585  68.138  1.00  0.00    -0.291 C  
HETATM   10  C   UNL     1     -10.292  18.752  66.856  1.00  0.00    -0.456 C  
BRANCH  10  11
HETATM   11  C   UNL     1      -9.083  18.091  66.266  1.00  0.00    -0.197 C  
BRANCH  11  12
HETATM   12  C   UNL     1      -9.384  16.734  65.649  1.00  0.00     0.151 C  
BRANCH  12  13
HETATM   13  C   UNL     1     -10.823  16.711  65.138  1.00  0.00    -0.199 C  
BRANCH  13  14
HETATM   14  C   UNL     1     -11.154  15.353  64.537  1.00  0.00    -0.272 C  
BRANCH  14  15
HETATM   15  C   UNL     1     -10.608  14.217  65.397  1.00  0.00    -0.358 C  
BRANCH  15  16
HETATM   16  C   UNL     1     -11.622  13.080  65.475  1.00  0.00    -0.382 C  
BRANCH  16  17
HETATM   17  C   UNL     1     -10.986  11.790  65.981  1.00  0.00    -0.355 C  
HETATM   18  C   UNL     1     -10.506  10.928  64.839  1.00  0.00    -0.282 C  
HETATM   19  O   UNL     1     -10.599  11.199  63.653  1.00  0.00    -0.371 OA 
HETATM   20  O   UNL     1      -9.940   9.775  65.271  1.00  0.00    -0.318 OA 
ENDBRANCH  16  17
ENDBRANCH  15  16
ENDBRANCH  14  15
ENDBRANCH  13  14
ENDBRANCH  12  13
ENDBRANCH  11  12
ENDBRANCH  10  11
ENDBRANCH   8   9
ENDBRANCH   7   8
ENDBRANCH   5   6
ENDBRANCH   4   5
ENDBRANCH   3   4
ENDBRANCH   2   3
TORSDOF 13
ENDMDL
MODEL      337
REMARK 921   NORMALIZED FREE ENERGY PREDICTED BY IDOCK:   -2.97 KCAL/MOL
REMARK 922        TOTAL FREE ENERGY PREDICTED BY IDOCK:   -6.97 KCAL/MOL
REMARK 923 INTER-LIGAND FREE ENERGY PREDICTED BY IDOCK:   -5.25 KCAL/MOL
REMARK 924 INTRA-LIGAND FREE ENERGY PREDICTED BY IDOCK:   -1.72 KCAL/MOL
REMARK 927      BINDING AFFINITY PREDICTED BY RF-SCORE:    0.00 PKD
ROOT
HETATM    1  C   UNL     1      -6.798  11.521  69.611  1.00  0.00    -0.038 C  
HETATM    2  C   UNL     1      -7.982  11.309  68.684  1.00  0.00    -0.145 C  
ENDROOT
BRANCH   2   3
HETATM    3  C   UNL     1      -8.419  12.619  68.042  1.00  0.00    -0.177 C  
BRANCH   3   4
HETATM    4  C   UNL     1      -9.911  12.866  68.253  1.00  0.00    -0.234 C  
BRANCH   4   5
HETATM    5  C   UNL     1     -10.346  14.089  67.456  1.00  0.00    -0.245 C  
BRANCH   5   6
HETATM    6  C   UNL     1     -11.821  14.132  67.189  1.00  0.00    -0.454 C  
HETATM    7  C   UNL     1     -12.330  14.095  65.947  1.00  0.00    -0.486 C  
BRANCH   7   8
HETATM    8  C   UNL     1     -11.505  14.036  64.696  1.00  0.00    -0.389 C  
BRANCH   8   9
HETATM    9  C   UNL     1     -12.119  13.136  63.665  1.00  0.00    -0.583 C  
HETATM   10  C   UNL     1     -11.686  11.895  63.395  1.00  0.00    -0.500 C  
BRANCH  10  11
HETATM   11  C   UNL     1     -10.507  11.285  64.089  1.00  0.00    -0.431 C  
BRANCH  11  12
HETATM   12  C   UNL     1     -10.854  10.680  65.440  1.00  0.00     0.005 C  
BRANCH  12  13
HETATM   13  C   UNL     1      -9.830   9.607  65.800  1.00  0.00    -0.373 C  
BRANCH  13  14
HETATM   14  C   UNL     1     -10.070   9.091  67.211  1.00  0.00    -0.297 C  
BRANCH  14  15
HETATM   15  C   UNL     1      -9.215   7.862  67.507  1.00  0.00    -0.152 C  
BRANCH  15  16
HETATM   16  C   UNL     1      -9.032   7.030  66.241  1.00  0.00    -0.175 C  
BRANCH  16  17
HETATM   17  C   UNL     1      -9.560   5.610  66.418  1.00  0.00    -0.175 C  
HETATM   18  C   UNL     1      -8.948   4.666  65.412  1.00  0.00    -0.145 C  
HETATM   19  O   UNL     1      -8.133   4.966  64.556  1.00  0.00    -0.100 OA 
HETATM   20  O   UNL     1      -9.409   3.399  65.553  1.00  0.00    -0.153 OA 
ENDBRANCH  16  17
ENDBRANCH  15  16
ENDBRANCH  14  15
ENDBRANCH  13  14
ENDBRANCH  12  13
ENDBRANCH  11  12
ENDBRANCH  10  11
ENDBRANCH   8   9
ENDBRANCH   7   8
ENDBRANCH   5   6
ENDBRANCH   4   5
ENDBRANCH   3   4
ENDBRANCH   2   3
TORSDOF 13
ENDMDL
MODEL      338
REMARK 921   NORMALIZED FREE ENERGY PREDICTED BY IDOCK:   -2.96 KCAL/MOL
REMARK 922        TOTAL FREE ENERGY PREDICTED BY IDOCK:   -6.95 KCAL/MOL
REMARK 923 INTER-LIGAND FREE ENERGY PREDICTED BY IDOCK:   -5.51 KCAL/MOL
REMARK 924 INTRA-LIGAND FREE ENERGY PREDICTED BY IDOCK:   -1.44 KCAL/MOL
REMARK 927      BINDING AFFINITY PREDICTED BY RF-SCORE:    0.00 PKD
ROOT
HETATM    1  C   UNL     1     -10.365  19.832  66.217  1.00  0.00    -0.626 C  
HETATM    2  C   UNL     1     -10.834  19.217  67.523  1.00  0.00    -0.524 C  
ENDROOT
BRANCH   2   3
HETATM    3  C   UNL     1     -10.361  17.775  67.653  1.00  0.00    -0.375 C  
BRANCH   3   4
HETATM    4  C   UNL     1      -9.827  17.248  66.323  1.00  0.00    -0.299 C  
BRANCH   4   5
HETATM    5  C   UNL     1      -8.466  16.599  66.538  1.00  0.00    -0.327 C  
BRANCH   5   6
HETATM    6  C   UNL     1      -7.649  17.268  67.602  1.00  0.00    -0.190 C  
HETATM    7  C   UNL     1      -6.676  16.631  68.272  1.00  0.00    -0.143 C  
BRANCH   7   8
HETATM    8  C   UNL     1      -6.308  15.192  68.064  1.00  0.00    -0.158 C  
BRANCH   8   9
HETATM    9  C   UNL     1      -7.166  14.273  68.882  1.00  0.00    -0.125 C  
HETATM   10  C   UNL     1      -7.015  12.940  68.926  1.00  0.00    -0.084 C  
BRANCH  10  11
HETATM   11  C   UNL     1      -5.972  12.221  68.124  1.00  0.00    -0.058 C  
BRANCH  11  12
HETATM   12  C   UNL     1      -6.515  11.620  66.838  1.00  0.00    -0.134 C  
BRANCH  12  13
HETATM   13  C   UNL     1      -8.019  11.395  66.973  1.00  0.00    -0.158 C  
BRANCH  13  14
HETATM   14  C   UNL     1      -8.437  10.126  66.244  1.00  0.00    -0.132 C  
BRANCH  14  15
HETATM   15  C   UNL     1      -9.949  10.068  66.051  1.00  0.00    -0.334 C  
BRANCH  15  16
HETATM   16  C   UNL     1     -10.412  11.216  65.159  1.00  0.00    -0.341 C  
BRANCH  16  17
HETATM   17  C   UNL     1     -11.380  12.142  65.888  1.00  0.00    -0.407 C  
HETATM   18  C   UNL     1     -11.076  13.592  65.601  1.00  0.00    -0.294 C  
HETATM   19  O   UNL     1     -10.179  14.005  64.883  1.00  0.00    -0.405 OA 
HETATM   20  O   UNL     1     -11.925  14.430  66.244  1.00  0.00    -0.396 OA 
ENDBRANCH  16  17
ENDBRANCH  15  16
ENDBRANCH  14  15
ENDBRANCH  13  14
ENDBRANCH  12  13
ENDBRANCH  11  12
ENDBRANCH  10  11
ENDBRANCH   8   9
ENDBRANCH   7   8
ENDBRANCH   5   6
ENDBRANCH   4   5
ENDBRANCH   3   4
ENDBRANCH   2   3
TORSDOF 13
ENDMDL
MODEL      339
REMARK 921   NORMALIZED FREE ENERGY PREDICTED BY IDOCK:   -2.95 KCAL/MOL
REMARK 922        TOTAL FREE ENERGY PREDICTED BY IDOCK:   -6.93 KCAL/MOL
REMARK 923 INTER-LIGAND FREE ENERGY PREDICTED BY IDOCK:   -4.86 KCAL/MOL
REMARK 924 INTRA-LIGAND FREE ENERGY PREDICTED BY IDOCK:   -2.07 KCAL/MOL
REMARK 927      BINDING AFFINITY PREDICTED BY RF-SCORE:    0.00 PKD
ROOT
HETATM    1  C   UNL     1     -10.527   9.220  67.176  1.00  0.00    -0.319 C  
HETATM    2  C   UNL     1     -10.609  10.736  67.135  1.00  0.00    -0.306 C  
ENDROOT
BRANCH   2   3
HETATM    3  C   UNL     1      -9.937  11.289  65.885  1.00  0.00    -0.277 C  
BRANCH   3   4
HETATM    4  C   UNL     1     -10.972  11.758  64.864  1.00  0.00    -0.358 C  
BRANCH   4   5
HETATM    5  C   UNL     1     -11.622  13.047  65.346  1.00  0.00    -0.374 C  
BRANCH   5   6
HETATM    6  C   UNL     1     -10.840  14.277  64.991  1.00  0.00    -0.414 C  
HETATM    7  C   UNL     1     -10.727  15.324  65.823  1.00  0.00    -0.357 C  
BRANCH   7   8
HETATM    8  C   UNL     1     -11.375  15.408  67.173  1.00  0.00    -0.203 C  
BRANCH   8   9
HETATM    9  C   UNL     1     -10.871  16.578  67.963  1.00  0.00    -0.337 C  
HETATM   10  C   UNL     1      -9.852  16.517  68.834  1.00  0.00    -0.260 C  
BRANCH  10  11
HETATM   11  C   UNL     1      -9.122  15.242  69.130  1.00  0.00    -0.236 C  
BRANCH  11  12
HETATM   12  C   UNL     1      -7.629  15.330  68.854  1.00  0.00    -0.152 C  
BRANCH  12  13
HETATM   13  C   UNL     1      -7.321  14.693  67.501  1.00  0.00    -0.220 C  
BRANCH  13  14
HETATM   14  C   UNL     1      -7.221  13.180  67.632  1.00  0.00    -0.160 C  
BRANCH  14  15
HETATM   15  C   UNL     1      -6.433  12.782  68.877  1.00  0.00    -0.091 C  
BRANCH  15  16
HETATM   16  C   UNL     1      -6.096  11.294  68.834  1.00  0.00    -0.046 C  
BRANCH  16  17
HETATM   17  C   UNL     1      -7.352  10.430  68.846  1.00  0.00    -0.094 C  
HETATM   18  C   UNL     1      -7.576   9.803  70.201  1.00  0.00    -0.171 C  
HETATM   19  O   UNL     1      -6.864   9.948  71.180  1.00  0.00    -0.337 OA 
HETATM   20  O   UNL     1      -8.688   9.028  70.228  1.00  0.00    -0.149 OA 
ENDBRANCH  16  17
ENDBRANCH  15  16
ENDBRANCH  14  15
ENDBRANCH  13  14
ENDBRANCH  12  13
ENDBRANCH  11  12
ENDBRANCH  10  11
ENDBRANCH   8   9
ENDBRANCH   7   8
ENDBRANCH   5   6
ENDBRANCH   4   5
ENDBRANCH   3   4
ENDBRANCH   2   3
TORSDOF 13
ENDMDL
MODEL      340
REMARK 921   NORMALIZED FREE ENERGY PREDICTED BY IDOCK:   -2.95 KCAL/MOL
REMARK 922        TOTAL FREE ENERGY PREDICTED BY IDOCK:   -6.93 KCAL/MOL
REMARK 923 INTER-LIGAND FREE ENERGY PREDICTED BY IDOCK:   -5.54 KCAL/MOL
REMARK 924 INTRA-LIGAND FREE ENERGY PREDICTED BY IDOCK:   -1.39 KCAL/MOL
REMARK 927      BINDING AFFINITY PREDICTED BY RF-SCORE:    0.00 PKD
ROOT
HETATM    1  C   UNL     1     -11.148   6.072  69.622  1.00  0.00    -0.474 C  
HETATM    2  C   UNL     1     -10.599   7.286  68.894  1.00  0.00    -0.207 C  
ENDROOT
BRANCH   2   3
HETATM    3  C   UNL     1      -9.512   7.971  69.712  1.00  0.00    -0.159 C  
BRANCH   3   4
HETATM    4  C   UNL     1      -8.208   7.178  69.672  1.00  0.00    -0.131 C  
BRANCH   4   5
HETATM    5  C   UNL     1      -7.785   6.959  68.226  1.00  0.00    -0.113 C  
BRANCH   5   6
HETATM    6  C   UNL     1      -6.376   7.385  67.946  1.00  0.00    -0.048 C  
HETATM    7  C   UNL     1      -6.081   8.527  67.305  1.00  0.00    -0.055 C  
BRANCH   7   8
HETATM    8  C   UNL     1      -7.104   9.488  66.775  1.00  0.00    -0.086 C  
BRANCH   8   9
HETATM    9  C   UNL     1      -7.106   9.529  65.276  1.00  0.00    -0.099 C  
HETATM   10  C   UNL     1      -8.209   9.688  64.527  1.00  0.00    -0.151 C  
BRANCH  10  11
HETATM   11  C   UNL     1      -9.577   9.813  65.127  1.00  0.00    -0.356 C  
BRANCH  11  12
HETATM   12  C   UNL     1      -9.926  11.237  65.530  1.00  0.00    -0.293 C  
BRANCH  12  13
HETATM   13  C   UNL     1     -10.042  12.109  64.282  1.00  0.00    -0.317 C  
BRANCH  13  14
HETATM   14  C   UNL     1     -11.145  11.592  63.370  1.00  0.00    -0.422 C  
BRANCH  14  15
HETATM   15  C   UNL     1     -12.483  12.254  63.686  1.00  0.00    -0.647 C  
BRANCH  15  16
HETATM   16  C   UNL     1     -12.259  13.650  64.259  1.00  0.00    -0.445 C  
BRANCH  16  17
HETATM   17  C   UNL     1     -12.745  13.752  65.701  1.00  0.00    -0.523 C  
HETATM   18  C   UNL     1     -11.739  14.462  66.573  1.00  0.00    -0.391 C  
HETATM   19  O   UNL     1     -10.665  14.908  66.204  1.00  0.00    -0.301 OA 
HETATM   20  O   UNL     1     -12.154  14.559  67.859  1.00  0.00    -0.325 OA 
ENDBRANCH  16  17
ENDBRANCH  15  16
ENDBRANCH  14  15
ENDBRANCH  13  14
ENDBRANCH  12  13
ENDBRANCH  11  12
ENDBRANCH  10  11
ENDBRANCH   8   9
ENDBRANCH   7   8
ENDBRANCH   5   6
ENDBRANCH   4   5
ENDBRANCH   3   4
ENDBRANCH   2   3
TORSDOF 13
ENDMDL
MODEL      341
REMARK 921   NORMALIZED FREE ENERGY PREDICTED BY IDOCK:   -2.95 KCAL/MOL
REMARK 922        TOTAL FREE ENERGY PREDICTED BY IDOCK:   -6.93 KCAL/MOL
REMARK 923 INTER-LIGAND FREE ENERGY PREDICTED BY IDOCK:   -5.10 KCAL/MOL
REMARK 924 INTRA-LIGAND FREE ENERGY PREDICTED BY IDOCK:   -1.83 KCAL/MOL
REMARK 927      BINDING AFFINITY PREDICTED BY RF-SCORE:    0.00 PKD
ROOT
HETATM    1  C   UNL     1     -12.135  12.254  63.609  1.00  0.00    -0.648 C  
HETATM    2  C   UNL     1     -12.398  13.621  64.216  1.00  0.00    -0.388 C  
ENDROOT
BRANCH   2   3
HETATM    3  C   UNL     1     -11.113  14.242  64.749  1.00  0.00    -0.398 C  
BRANCH   3   4
HETATM    4  C   UNL     1     -11.115  14.287  66.276  1.00  0.00    -0.323 C  
BRANCH   4   5
HETATM    5  C   UNL     1     -10.734  15.684  66.748  1.00  0.00    -0.300 C  
BRANCH   5   6
HETATM    6  C   UNL     1      -9.527  16.239  66.053  1.00  0.00    -0.369 C  
HETATM    7  C   UNL     1      -8.278  16.025  66.496  1.00  0.00    -0.334 C  
BRANCH   7   8
HETATM    8  C   UNL     1      -7.940  15.243  67.731  1.00  0.00    -0.159 C  
BRANCH   8   9
HETATM    9  C   UNL     1      -6.813  14.283  67.494  1.00  0.00    -0.158 C  
HETATM   10  C   UNL     1      -6.820  12.999  67.884  1.00  0.00    -0.130 C  
BRANCH  10  11
HETATM   11  C   UNL     1      -7.966  12.394  68.637  1.00  0.00    -0.041 C  
BRANCH  11  12
HETATM   12  C   UNL     1      -7.754  10.925  68.968  1.00  0.00    -0.135 C  
BRANCH  12  13
HETATM   13  C   UNL     1      -9.077  10.174  68.834  1.00  0.00    -0.165 C  
BRANCH  13  14
HETATM   14  C   UNL     1     -10.051  10.959  67.968  1.00  0.00    -0.197 C  
BRANCH  14  15
HETATM   15  C   UNL     1     -10.317  10.247  66.645  1.00  0.00    -0.283 C  
BRANCH  15  16
HETATM   16  C   UNL     1      -9.517  10.901  65.523  1.00  0.00    -0.249 C  
BRANCH  16  17
HETATM   17  C   UNL     1      -9.712  10.178  64.195  1.00  0.00    -0.301 C  
HETATM   18  C   UNL     1      -8.419   9.576  63.701  1.00  0.00    -0.196 C  
HETATM   19  O   UNL     1      -7.340   9.640  64.267  1.00  0.00    -0.111 OA 
HETATM   20  O   UNL     1      -8.574   8.932  62.519  1.00  0.00    -0.212 OA 
ENDBRANCH  16  17
ENDBRANCH  15  16
ENDBRANCH  14  15
ENDBRANCH  13  14
ENDBRANCH  12  13
ENDBRANCH  11  12
ENDBRANCH  10  11
ENDBRANCH   8   9
ENDBRANCH   7   8
ENDBRANCH   5   6
ENDBRANCH   4   5
ENDBRANCH   3   4
ENDBRANCH   2   3
TORSDOF 13
ENDMDL
MODEL      342
REMARK 921   NORMALIZED FREE ENERGY PREDICTED BY IDOCK:   -2.95 KCAL/MOL
REMARK 922        TOTAL FREE ENERGY PREDICTED BY IDOCK:   -6.93 KCAL/MOL
REMARK 923 INTER-LIGAND FREE ENERGY PREDICTED BY IDOCK:   -4.61 KCAL/MOL
REMARK 924 INTRA-LIGAND FREE ENERGY PREDICTED BY IDOCK:   -2.32 KCAL/MOL
REMARK 927      BINDING AFFINITY PREDICTED BY RF-SCORE:    0.00 PKD
ROOT
HETATM    1  C   UNL     1     -10.352   7.827  67.902  1.00  0.00    -0.276 C  
HETATM    2  C   UNL     1     -10.992   6.454  67.797  1.00  0.00    -0.425 C  
ENDROOT
BRANCH   2   3
HETATM    3  C   UNL     1     -10.365   5.640  66.673  1.00  0.00    -0.311 C  
BRANCH   3   4
HETATM    4  C   UNL     1      -9.646   4.407  67.218  1.00  0.00    -0.220 C  
BRANCH   4   5
HETATM    5  C   UNL     1      -8.224   4.360  66.674  1.00  0.00    -0.102 C  
BRANCH   5   6
HETATM    6  C   UNL     1      -7.703   2.967  66.491  1.00  0.00    -0.077 C  
HETATM    7  C   UNL     1      -6.974   2.341  67.428  1.00  0.00    -0.044 C  
BRANCH   7   8
HETATM    8  C   UNL     1      -6.574   2.952  68.738  1.00  0.00    -0.033 C  
BRANCH   8   9
HETATM    9  C   UNL     1      -7.593   2.696  69.808  1.00  0.00    -0.043 C  
HETATM   10  C   UNL     1      -8.188   3.659  70.529  1.00  0.00    -0.070 C  
BRANCH  10  11
HETATM   11  C   UNL     1      -7.865   5.112  70.353  1.00  0.00    -0.075 C  
BRANCH  11  12
HETATM   12  C   UNL     1      -9.008   6.032  70.750  1.00  0.00    -0.153 C  
BRANCH  12  13
HETATM   13  C   UNL     1     -10.285   5.213  70.931  1.00  0.00    -0.299 C  
BRANCH  13  14
HETATM   14  C   UNL     1     -11.386   6.068  71.541  1.00  0.00    -0.309 C  
BRANCH  14  15
HETATM   15  C   UNL     1     -10.837   6.988  72.629  1.00  0.00    -0.303 C  
BRANCH  15  16
HETATM   16  C   UNL     1     -11.585   8.318  72.622  1.00  0.00    -0.419 C  
BRANCH  16  17
HETATM   17  C   UNL     1     -11.004   9.287  71.598  1.00  0.00    -0.433 C  
HETATM   18  C   UNL     1     -12.092  10.057  70.889  1.00  0.00    -0.355 C  
HETATM   19  O   UNL     1     -13.290   9.943  71.086  1.00  0.00    -0.380 OA 
HETATM   20  O   UNL     1     -11.593  10.921  69.973  1.00  0.00    -0.284 OA 
ENDBRANCH  16  17
ENDBRANCH  15  16
ENDBRANCH  14  15
ENDBRANCH  13  14
ENDBRANCH  12  13
ENDBRANCH  11  12
ENDBRANCH  10  11
ENDBRANCH   8   9
ENDBRANCH   7   8
ENDBRANCH   5   6
ENDBRANCH   4   5
ENDBRANCH   3   4
ENDBRANCH   2   3
TORSDOF 13
ENDMDL
MODEL      343
REMARK 921   NORMALIZED FREE ENERGY PREDICTED BY IDOCK:   -2.94 KCAL/MOL
REMARK 922        TOTAL FREE ENERGY PREDICTED BY IDOCK:   -6.91 KCAL/MOL
REMARK 923 INTER-LIGAND FREE ENERGY PREDICTED BY IDOCK:   -5.72 KCAL/MOL
REMARK 924 INTRA-LIGAND FREE ENERGY PREDICTED BY IDOCK:   -1.19 KCAL/MOL
REMARK 927      BINDING AFFINITY PREDICTED BY RF-SCORE:    0.00 PKD
ROOT
HETATM    1  C   UNL     1     -11.613  10.254  69.157  1.00  0.00    -0.166 C  
HETATM    2  C   UNL     1     -11.807  10.744  70.581  1.00  0.00    -0.460 C  
ENDROOT
BRANCH   2   3
HETATM    3  C   UNL     1     -12.678  11.993  70.618  1.00  0.00    -0.163 C  
BRANCH   3   4
HETATM    4  C   UNL     1     -13.379  12.138  71.968  1.00  0.00    -0.470 C  
BRANCH   4   5
HETATM    5  C   UNL     1     -13.771  13.592  72.189  1.00  0.00    -0.649 C  
BRANCH   5   6
HETATM    6  C   UNL     1     -12.605  14.483  72.495  1.00  0.00    -0.388 C  
HETATM    7  C   UNL     1     -11.964  15.185  71.547  1.00  0.00    -0.421 C  
BRANCH   7   8
HETATM    8  C   UNL     1     -12.308  15.146  70.088  1.00  0.00    -0.385 C  
BRANCH   8   9
HETATM    9  C   UNL     1     -11.345  15.950  69.265  1.00  0.00    -0.355 C  
HETATM   10  C   UNL     1     -11.045  15.686  67.984  1.00  0.00    -0.335 C  
BRANCH  10  11
HETATM   11  C   UNL     1     -11.631  14.523  67.243  1.00  0.00    -0.405 C  
BRANCH  11  12
HETATM   12  C   UNL     1     -10.745  14.026  66.112  1.00  0.00    -0.289 C  
BRANCH  12  13
HETATM   13  C   UNL     1      -9.329  13.794  66.635  1.00  0.00    -0.277 C  
BRANCH  13  14
HETATM   14  C   UNL     1      -9.311  12.650  67.638  1.00  0.00    -0.190 C  
BRANCH  14  15
HETATM   15  C   UNL     1      -8.346  11.549  67.209  1.00  0.00    -0.154 C  
BRANCH  15  16
HETATM   16  C   UNL     1      -9.065  10.531  66.328  1.00  0.00    -0.184 C  
BRANCH  16  17
HETATM   17  C   UNL     1      -8.547   9.116  66.562  1.00  0.00    -0.136 C  
HETATM   18  C   UNL     1      -7.877   8.563  65.328  1.00  0.00    -0.106 C  
HETATM   19  O   UNL     1      -7.750   9.146  64.264  1.00  0.00    -0.111 OA 
HETATM   20  O   UNL     1      -7.414   7.304  65.518  1.00  0.00    -0.078 OA 
ENDBRANCH  16  17
ENDBRANCH  15  16
ENDBRANCH  14  15
ENDBRANCH  13  14
ENDBRANCH  12  13
ENDBRANCH  11  12
ENDBRANCH  10  11
ENDBRANCH   8   9
ENDBRANCH   7   8
ENDBRANCH   5   6
ENDBRANCH   4   5
ENDBRANCH   3   4
ENDBRANCH   2   3
TORSDOF 13
ENDMDL
MODEL      344
REMARK 921   NORMALIZED FREE ENERGY PREDICTED BY IDOCK:   -2.93 KCAL/MOL
REMARK 922        TOTAL FREE ENERGY PREDICTED BY IDOCK:   -6.91 KCAL/MOL
REMARK 923 INTER-LIGAND FREE ENERGY PREDICTED BY IDOCK:   -4.90 KCAL/MOL
REMARK 924 INTRA-LIGAND FREE ENERGY PREDICTED BY IDOCK:   -2.01 KCAL/MOL
REMARK 927      BINDING AFFINITY PREDICTED BY RF-SCORE:    0.00 PKD
ROOT
HETATM    1  C   UNL     1      -6.354  14.511  70.267  1.00  0.00    -0.170 C  
HETATM    2  C   UNL     1      -7.100  14.494  68.945  1.00  0.00    -0.118 C  
ENDROOT
BRANCH   2   3
HETATM    3  C   UNL     1      -7.275  13.071  68.431  1.00  0.00    -0.110 C  
BRANCH   3   4
HETATM    4  C   UNL     1      -6.866  12.048  69.489  1.00  0.00     0.021 C  
BRANCH   4   5
HETATM    5  C   UNL     1      -7.548  10.717  69.205  1.00  0.00    -0.131 C  
BRANCH   5   6
HETATM    6  C   UNL     1      -7.149  10.111  67.893  1.00  0.00    -0.085 C  
HETATM    7  C   UNL     1      -7.996   9.385  67.146  1.00  0.00    -0.102 C  
BRANCH   7   8
HETATM    8  C   UNL     1      -9.411   9.072  67.534  1.00  0.00    -0.159 C  
BRANCH   8   9
HETATM    9  C   UNL     1     -10.398   9.860  66.727  1.00  0.00    -0.285 C  
HETATM   10  C   UNL     1     -11.131  10.874  67.213  1.00  0.00    -0.350 C  
BRANCH  10  11
HETATM   11  C   UNL     1     -11.055  11.307  68.646  1.00  0.00    -0.286 C  
BRANCH  11  12
HETATM   12  C   UNL     1     -10.942  12.814  68.810  1.00  0.00    -0.289 C  
BRANCH  12  13
HETATM   13  C   UNL     1     -11.927  13.289  69.875  1.00  0.00    -0.400 C  
BRANCH  13  14
HETATM   14  C   UNL     1     -12.168  14.786  69.751  1.00  0.00    -0.337 C  
BRANCH  14  15
HETATM   15  C   UNL     1     -10.910  15.582  70.089  1.00  0.00    -0.346 C  
BRANCH  15  16
HETATM   16  C   UNL     1     -10.703  16.699  69.071  1.00  0.00    -0.343 C  
BRANCH  16  17
HETATM   17  C   UNL     1      -9.876  16.230  67.878  1.00  0.00    -0.237 C  
HETATM   18  C   UNL     1      -9.796  17.294  66.811  1.00  0.00    -0.294 C  
HETATM   19  O   UNL     1     -10.314  18.397  66.863  1.00  0.00    -0.356 OA 
HETATM   20  O   UNL     1      -9.067  16.892  65.742  1.00  0.00    -0.523 OA 
ENDBRANCH  16  17
ENDBRANCH  15  16
ENDBRANCH  14  15
ENDBRANCH  13  14
ENDBRANCH  12  13
ENDBRANCH  11  12
ENDBRANCH  10  11
ENDBRANCH   8   9
ENDBRANCH   7   8
ENDBRANCH   5   6
ENDBRANCH   4   5
ENDBRANCH   3   4
ENDBRANCH   2   3
TORSDOF 13
ENDMDL
MODEL      345
REMARK 921   NORMALIZED FREE ENERGY PREDICTED BY IDOCK:   -2.93 KCAL/MOL
REMARK 922        TOTAL FREE ENERGY PREDICTED BY IDOCK:   -6.90 KCAL/MOL
REMARK 923 INTER-LIGAND FREE ENERGY PREDICTED BY IDOCK:   -5.55 KCAL/MOL
REMARK 924 INTRA-LIGAND FREE ENERGY PREDICTED BY IDOCK:   -1.35 KCAL/MOL
REMARK 927      BINDING AFFINITY PREDICTED BY RF-SCORE:    0.00 PKD
ROOT
HETATM    1  C   UNL     1      -5.263   7.638  69.322  1.00  0.00    -0.015 C  
HETATM    2  C   UNL     1      -5.708   8.461  68.127  1.00  0.00    -0.035 C  
ENDROOT
BRANCH   2   3
HETATM    3  C   UNL     1      -6.160   9.851  68.555  1.00  0.00    -0.045 C  
BRANCH   3   4
HETATM    4  C   UNL     1      -6.855   9.811  69.915  1.00  0.00    -0.085 C  
BRANCH   4   5
HETATM    5  C   UNL     1      -8.328   9.473  69.728  1.00  0.00    -0.170 C  
BRANCH   5   6
HETATM    6  C   UNL     1      -8.771   8.282  70.524  1.00  0.00    -0.140 C  
HETATM    7  C   UNL     1     -10.057   7.908  70.607  1.00  0.00    -0.197 C  
BRANCH   7   8
HETATM    8  C   UNL     1     -11.194   8.633  69.949  1.00  0.00    -0.045 C  
BRANCH   8   9
HETATM    9  C   UNL     1     -12.017   9.398  70.942  1.00  0.00    -0.351 C  
HETATM   10  C   UNL     1     -12.467  10.647  70.746  1.00  0.00    -0.480 C  
BRANCH  10  11
HETATM   11  C   UNL     1     -12.161  11.427  69.503  1.00  0.00    -0.370 C  
BRANCH  11  12
HETATM   12  C   UNL     1     -12.168  12.931  69.722  1.00  0.00    -0.227 C  
BRANCH  12  13
HETATM   13  C   UNL     1     -11.307  13.608  68.659  1.00  0.00    -0.321 C  
BRANCH  13  14
HETATM   14  C   UNL     1     -10.147  12.708  68.258  1.00  0.00    -0.233 C  
BRANCH  14  15
HETATM   15  C   UNL     1     -10.015  12.615  66.740  1.00  0.00    -0.237 C  
BRANCH  15  16
HETATM   16  C   UNL     1      -9.606  13.966  66.163  1.00  0.00    -0.249 C  
BRANCH  16  17
HETATM   17  C   UNL     1     -10.639  14.494  65.173  1.00  0.00    -0.429 C  
HETATM   18  C   UNL     1     -10.577  15.997  65.060  1.00  0.00    -0.316 C  
HETATM   19  O   UNL     1      -9.811  16.727  65.668  1.00  0.00    -0.544 OA 
HETATM   20  O   UNL     1     -11.492  16.483  64.187  1.00  0.00    -1.059 OA 
ENDBRANCH  16  17
ENDBRANCH  15  16
ENDBRANCH  14  15
ENDBRANCH  13  14
ENDBRANCH  12  13
ENDBRANCH  11  12
ENDBRANCH  10  11
ENDBRANCH   8   9
ENDBRANCH   7   8
ENDBRANCH   5   6
ENDBRANCH   4   5
ENDBRANCH   3   4
ENDBRANCH   2   3
TORSDOF 13
ENDMDL
MODEL      346
REMARK 921   NORMALIZED FREE ENERGY PREDICTED BY IDOCK:   -2.93 KCAL/MOL
REMARK 922        TOTAL FREE ENERGY PREDICTED BY IDOCK:   -6.90 KCAL/MOL
REMARK 923 INTER-LIGAND FREE ENERGY PREDICTED BY IDOCK:   -5.48 KCAL/MOL
REMARK 924 INTRA-LIGAND FREE ENERGY PREDICTED BY IDOCK:   -1.42 KCAL/MOL
REMARK 927      BINDING AFFINITY PREDICTED BY RF-SCORE:    0.00 PKD
ROOT
HETATM    1  C   UNL     1      -8.933   7.925  66.140  1.00  0.00    -0.214 C  
HETATM    2  C   UNL     1      -9.774   8.615  67.199  1.00  0.00    -0.248 C  
ENDROOT
BRANCH   2   3
HETATM    3  C   UNL     1     -10.186  10.010  66.750  1.00  0.00    -0.295 C  
BRANCH   3   4
HETATM    4  C   UNL     1     -10.398  10.064  65.239  1.00  0.00    -0.058 C  
BRANCH   4   5
HETATM    5  C   UNL     1      -9.796  11.346  64.681  1.00  0.00    -0.302 C  
BRANCH   5   6
HETATM    6  C   UNL     1     -10.820  12.301  64.146  1.00  0.00    -0.412 C  
HETATM    7  C   UNL     1     -11.482  13.165  64.932  1.00  0.00    -0.337 C  
BRANCH   7   8
HETATM    8  C   UNL     1     -11.304  13.264  66.418  1.00  0.00    -0.341 C  
BRANCH   8   9
HETATM    9  C   UNL     1     -11.694  14.615  66.939  1.00  0.00    -0.366 C  
HETATM   10  C   UNL     1     -11.696  14.951  68.238  1.00  0.00    -0.342 C  
BRANCH  10  11
HETATM   11  C   UNL     1     -11.328  13.981  69.321  1.00  0.00    -0.318 C  
BRANCH  11  12
HETATM   12  C   UNL     1     -12.522  13.218  69.870  1.00  0.00    -0.117 C  
BRANCH  12  13
HETATM   13  C   UNL     1     -12.037  12.116  70.811  1.00  0.00    -0.279 C  
BRANCH  13  14
HETATM   14  C   UNL     1     -11.790  10.827  70.041  1.00  0.00    -0.424 C  
BRANCH  14  15
HETATM   15  C   UNL     1     -12.122   9.602  70.887  1.00  0.00    -0.383 C  
BRANCH  15  16
HETATM   16  C   UNL     1     -11.004   8.568  70.780  1.00  0.00    -0.282 C  
BRANCH  16  17
HETATM   17  C   UNL     1      -9.797   8.953  71.629  1.00  0.00    -0.387 C  
HETATM   18  C   UNL     1      -8.563   8.192  71.208  1.00  0.00    -0.137 C  
HETATM   19  O   UNL     1      -8.505   7.369  70.309  1.00  0.00    -0.133 OA 
HETATM   20  O   UNL     1      -7.481   8.519  71.954  1.00  0.00    -0.104 OA 
ENDBRANCH  16  17
ENDBRANCH  15  16
ENDBRANCH  14  15
ENDBRANCH  13  14
ENDBRANCH  12  13
ENDBRANCH  11  12
ENDBRANCH  10  11
ENDBRANCH   8   9
ENDBRANCH   7   8
ENDBRANCH   5   6
ENDBRANCH   4   5
ENDBRANCH   3   4
ENDBRANCH   2   3
TORSDOF 13
ENDMDL
MODEL      347
REMARK 921   NORMALIZED FREE ENERGY PREDICTED BY IDOCK:   -2.92 KCAL/MOL
REMARK 922        TOTAL FREE ENERGY PREDICTED BY IDOCK:   -6.88 KCAL/MOL
REMARK 923 INTER-LIGAND FREE ENERGY PREDICTED BY IDOCK:   -5.20 KCAL/MOL
REMARK 924 INTRA-LIGAND FREE ENERGY PREDICTED BY IDOCK:   -1.68 KCAL/MOL
REMARK 927      BINDING AFFINITY PREDICTED BY RF-SCORE:    0.00 PKD
ROOT
HETATM    1  C   UNL     1      -7.070  16.265  69.270  1.00  0.00    -0.222 C  
HETATM    2  C   UNL     1      -5.693  16.901  69.214  1.00  0.00    -0.163 C  
ENDROOT
BRANCH   2   3
HETATM    3  C   UNL     1      -5.423  17.508  67.843  1.00  0.00    -0.131 C  
BRANCH   3   4
HETATM    4  C   UNL     1      -6.519  17.132  66.848  1.00  0.00    -0.239 C  
BRANCH   4   5
HETATM    5  C   UNL     1      -7.016  18.384  66.136  1.00  0.00    -0.299 C  
BRANCH   5   6
HETATM    6  C   UNL     1      -7.319  19.518  67.068  1.00  0.00    -0.237 C  
HETATM    7  C   UNL     1      -8.489  19.626  67.717  1.00  0.00    -0.358 C  
BRANCH   7   8
HETATM    8  C   UNL     1      -9.628  18.661  67.575  1.00  0.00    -0.317 C  
BRANCH   8   9
HETATM    9  C   UNL     1     -10.379  18.870  66.294  1.00  0.00    -0.512 C  
HETATM   10  C   UNL     1     -10.740  17.881  65.461  1.00  0.00     0.020 C  
BRANCH  10  11
HETATM   11  C   UNL     1     -10.395  16.445  65.720  1.00  0.00    -0.388 C  
BRANCH  11  12
HETATM   12  C   UNL     1     -10.950  15.498  64.668  1.00  0.00    -0.341 C  
BRANCH  12  13
HETATM   13  C   UNL     1     -12.069  14.656  65.275  1.00  0.00    -0.276 C  
BRANCH  13  14
HETATM   14  C   UNL     1     -11.492  13.527  66.116  1.00  0.00    -0.348 C  
BRANCH  14  15
HETATM   15  C   UNL     1     -11.379  12.236  65.310  1.00  0.00    -0.384 C  
BRANCH  15  16
HETATM   16  C   UNL     1     -10.497  11.231  66.045  1.00  0.00    -0.310 C  
BRANCH  16  17
HETATM   17  C   UNL     1      -9.210  11.873  66.552  1.00  0.00    -0.216 C  
HETATM   18  C   UNL     1      -8.978  11.566  68.011  1.00  0.00    -0.170 C  
HETATM   19  O   UNL     1      -9.706  10.893  68.722  1.00  0.00    -0.179 OA 
HETATM   20  O   UNL     1      -7.840  12.132  68.479  1.00  0.00    -0.134 OA 
ENDBRANCH  16  17
ENDBRANCH  15  16
ENDBRANCH  14  15
ENDBRANCH  13  14
ENDBRANCH  12  13
ENDBRANCH  11  12
ENDBRANCH  10  11
ENDBRANCH   8   9
ENDBRANCH   7   8
ENDBRANCH   5   6
ENDBRANCH   4   5
ENDBRANCH   3   4
ENDBRANCH   2   3
TORSDOF 13
ENDMDL
MODEL      348
REMARK 921   NORMALIZED FREE ENERGY PREDICTED BY IDOCK:   -2.91 KCAL/MOL
REMARK 922        TOTAL FREE ENERGY PREDICTED BY IDOCK:   -6.86 KCAL/MOL
REMARK 923 INTER-LIGAND FREE ENERGY PREDICTED BY IDOCK:   -4.90 KCAL/MOL
REMARK 924 INTRA-LIGAND FREE ENERGY PREDICTED BY IDOCK:   -1.96 KCAL/MOL
REMARK 927      BINDING AFFINITY PREDICTED BY RF-SCORE:    0.00 PKD
ROOT
HETATM    1  C   UNL     1      -9.128   9.414  68.899  1.00  0.00    -0.140 C  
HETATM    2  C   UNL     1      -8.884   9.291  67.405  1.00  0.00    -0.124 C  
ENDROOT
BRANCH   2   3
HETATM    3  C   UNL     1      -9.711  10.306  66.628  1.00  0.00    -0.233 C  
BRANCH   3   4
HETATM    4  C   UNL     1      -9.829  11.623  67.392  1.00  0.00    -0.197 C  
BRANCH   4   5
HETATM    5  C   UNL     1     -10.878  12.507  66.731  1.00  0.00    -0.281 C  
BRANCH   5   6
HETATM    6  C   UNL     1     -11.523  11.873  65.535  1.00  0.00    -0.311 C  
HETATM    7  C   UNL     1     -12.399  12.527  64.756  1.00  0.00    -0.544 C  
BRANCH   7   8
HETATM    8  C   UNL     1     -12.856  13.936  64.995  1.00  0.00    -0.309 C  
BRANCH   8   9
HETATM    9  C   UNL     1     -12.207  14.900  64.046  1.00  0.00    -0.151 C  
HETATM   10  C   UNL     1     -11.255  15.779  64.397  1.00  0.00    -0.249 C  
BRANCH  10  11
HETATM   11  C   UNL     1     -10.756  15.905  65.805  1.00  0.00    -0.325 C  
BRANCH  11  12
HETATM   12  C   UNL     1      -9.732  17.014  65.980  1.00  0.00    -0.243 C  
BRANCH  12  13
HETATM   13  C   UNL     1      -8.326  16.420  65.968  1.00  0.00    -0.139 C  
BRANCH  13  14
HETATM   14  C   UNL     1      -8.186  15.357  67.048  1.00  0.00    -0.270 C  
BRANCH  14  15
HETATM   15  C   UNL     1      -7.608  15.943  68.333  1.00  0.00    -0.132 C  
BRANCH  15  16
HETATM   16  C   UNL     1      -8.619  15.823  69.469  1.00  0.00    -0.144 C  
BRANCH  16  17
HETATM   17  C   UNL     1      -9.738  14.845  69.128  1.00  0.00    -0.184 C  
HETATM   18  C   UNL     1     -11.005  15.175  69.878  1.00  0.00    -0.274 C  
HETATM   19  O   UNL     1     -11.150  16.098  70.663  1.00  0.00    -0.349 OA 
HETATM   20  O   UNL     1     -12.010  14.313  69.589  1.00  0.00    -0.297 OA 
ENDBRANCH  16  17
ENDBRANCH  15  16
ENDBRANCH  14  15
ENDBRANCH  13  14
ENDBRANCH  12  13
ENDBRANCH  11  12
ENDBRANCH  10  11
ENDBRANCH   8   9
ENDBRANCH   7   8
ENDBRANCH   5   6
ENDBRANCH   4   5
ENDBRANCH   3   4
ENDBRANCH   2   3
TORSDOF 13
ENDMDL
MODEL      349
REMARK 921   NORMALIZED FREE ENERGY PREDICTED BY IDOCK:   -2.90 KCAL/MOL
REMARK 922        TOTAL FREE ENERGY PREDICTED BY IDOCK:   -6.86 KCAL/MOL
REMARK 923 INTER-LIGAND FREE ENERGY PREDICTED BY IDOCK:   -5.46 KCAL/MOL
REMARK 924 INTRA-LIGAND FREE ENERGY PREDICTED BY IDOCK:   -1.39 KCAL/MOL
REMARK 927      BINDING AFFINITY PREDICTED BY RF-SCORE:    0.00 PKD
ROOT
HETATM    1  C   UNL     1      -7.498  12.407  68.388  1.00  0.00    -0.123 C  
HETATM    2  C   UNL     1      -7.865  13.494  67.394  1.00  0.00    -0.157 C  
ENDROOT
BRANCH   2   3
HETATM    3  C   UNL     1      -9.272  13.287  66.848  1.00  0.00    -0.242 C  
BRANCH   3   4
HETATM    4  C   UNL     1      -9.595  11.801  66.704  1.00  0.00    -0.219 C  
BRANCH   4   5
HETATM    5  C   UNL     1     -10.920  11.495  67.391  1.00  0.00    -0.317 C  
BRANCH   5   6
HETATM    6  C   UNL     1     -11.367  12.576  68.329  1.00  0.00    -0.331 C  
HETATM    7  C   UNL     1     -11.873  12.312  69.544  1.00  0.00    -0.380 C  
BRANCH   7   8
HETATM    8  C   UNL     1     -12.076  10.931  70.095  1.00  0.00    -0.431 C  
BRANCH   8   9
HETATM    9  C   UNL     1     -12.821  10.953  71.396  1.00  0.00    -0.554 C  
HETATM   10  C   UNL     1     -13.177   9.855  72.079  1.00  0.00    -0.555 C  
BRANCH  10  11
HETATM   11  C   UNL     1     -12.885   8.470  71.586  1.00  0.00    -0.366 C  
BRANCH  11  12
HETATM   12  C   UNL     1     -11.647   7.858  72.220  1.00  0.00    -0.406 C  
BRANCH  12  13
HETATM   13  C   UNL     1     -10.571   7.658  71.155  1.00  0.00    -0.235 C  
BRANCH  13  14
HETATM   14  C   UNL     1     -11.070   6.729  70.059  1.00  0.00    -0.366 C  
BRANCH  14  15
HETATM   15  C   UNL     1     -10.149   5.524  69.889  1.00  0.00    -0.305 C  
BRANCH  15  16
HETATM   16  C   UNL     1      -9.431   5.220  71.201  1.00  0.00    -0.206 C  
BRANCH  16  17
HETATM   17  C   UNL     1      -7.961   4.884  70.974  1.00  0.00    -0.091 C  
HETATM   18  C   UNL     1      -7.062   6.000  71.448  1.00  0.00    -0.078 C  
HETATM   19  O   UNL     1      -7.431   7.048  71.952  1.00  0.00    -0.085 OA 
HETATM   20  O   UNL     1      -5.751   5.719  71.252  1.00  0.00    -0.019 OA 
ENDBRANCH  16  17
ENDBRANCH  15  16
ENDBRANCH  14  15
ENDBRANCH  13  14
ENDBRANCH  12  13
ENDBRANCH  11  12
ENDBRANCH  10  11
ENDBRANCH   8   9
ENDBRANCH   7   8
ENDBRANCH   5   6
ENDBRANCH   4   5
ENDBRANCH   3   4
ENDBRANCH   2   3
TORSDOF 13
ENDMDL
MODEL      350
REMARK 921   NORMALIZED FREE ENERGY PREDICTED BY IDOCK:   -2.90 KCAL/MOL
REMARK 922        TOTAL FREE ENERGY PREDICTED BY IDOCK:   -6.85 KCAL/MOL
REMARK 923 INTER-LIGAND FREE ENERGY PREDICTED BY IDOCK:   -4.67 KCAL/MOL
REMARK 924 INTRA-LIGAND FREE ENERGY PREDICTED BY IDOCK:   -2.18 KCAL/MOL
REMARK 927      BINDING AFFINITY PREDICTED BY RF-SCORE:    0.00 PKD
ROOT
HETATM    1  C   UNL     1      -5.913  13.154  67.691  1.00  0.00    -0.136 C  
HETATM    2  C   UNL     1      -5.631  11.726  67.258  1.00  0.00    -0.115 C  
ENDROOT
BRANCH   2   3
HETATM    3  C   UNL     1      -6.803  11.146  66.477  1.00  0.00    -0.126 C  
BRANCH   3   4
HETATM    4  C   UNL     1      -7.042   9.683  66.844  1.00  0.00    -0.086 C  
BRANCH   4   5
HETATM    5  C   UNL     1      -8.060   9.075  65.889  1.00  0.00    -0.108 C  
BRANCH   5   6
HETATM    6  C   UNL     1      -7.976   9.627  64.498  1.00  0.00    -0.140 C  
HETATM    7  C   UNL     1      -8.926  10.421  63.978  1.00  0.00    -0.249 C  
BRANCH   7   8
HETATM    8  C   UNL     1     -10.178  10.825  64.698  1.00  0.00    -0.419 C  
BRANCH   8   9
HETATM    9  C   UNL     1     -10.444  12.296  64.574  1.00  0.00    -0.339 C  
HETATM   10  C   UNL     1     -10.421  13.156  65.603  1.00  0.00    -0.290 C  
BRANCH  10  11
HETATM   11  C   UNL     1     -10.152  12.719  67.012  1.00  0.00    -0.240 C  
BRANCH  11  12
HETATM   12  C   UNL     1     -11.402  12.261  67.745  1.00  0.00    -0.362 C  
BRANCH  12  13
HETATM   13  C   UNL     1     -11.200  10.840  68.266  1.00  0.00    -0.358 C  
BRANCH  13  14
HETATM   14  C   UNL     1      -9.805  10.680  68.853  1.00  0.00    -0.210 C  
BRANCH  14  15
HETATM   15  C   UNL     1      -9.843   9.921  70.176  1.00  0.00    -0.272 C  
BRANCH  15  16
HETATM   16  C   UNL     1     -11.150   9.143  70.301  1.00  0.00    -0.272 C  
BRANCH  16  17
HETATM   17  C   UNL     1     -10.906   7.683  70.665  1.00  0.00    -0.245 C  
HETATM   18  C   UNL     1     -10.836   6.813  69.434  1.00  0.00    -0.271 C  
HETATM   19  O   UNL     1     -10.955   7.197  68.282  1.00  0.00    -0.137 OA 
HETATM   20  O   UNL     1     -10.622   5.510  69.739  1.00  0.00    -0.297 OA 
ENDBRANCH  16  17
ENDBRANCH  15  16
ENDBRANCH  14  15
ENDBRANCH  13  14
ENDBRANCH  12  13
ENDBRANCH  11  12
ENDBRANCH  10  11
ENDBRANCH   8   9
ENDBRANCH   7   8
ENDBRANCH   5   6
ENDBRANCH   4   5
ENDBRANCH   3   4
ENDBRANCH   2   3
TORSDOF 13
ENDMDL
MODEL      351
REMARK 921   NORMALIZED FREE ENERGY PREDICTED BY IDOCK:   -2.90 KCAL/MOL
REMARK 922        TOTAL FREE ENERGY PREDICTED BY IDOCK:   -6.84 KCAL/MOL
REMARK 923 INTER-LIGAND FREE ENERGY PREDICTED BY IDOCK:   -4.59 KCAL/MOL
REMARK 924 INTRA-LIGAND FREE ENERGY PREDICTED BY IDOCK:   -2.26 KCAL/MOL
REMARK 927      BINDING AFFINITY PREDICTED BY RF-SCORE:    0.00 PKD
ROOT
HETATM    1  C   UNL     1      -9.287  10.232  69.317  1.00  0.00    -0.221 C  
HETATM    2  C   UNL     1      -9.375   8.742  69.596  1.00  0.00    -0.158 C  
ENDROOT
BRANCH   2   3
HETATM    3  C   UNL     1      -8.171   8.004  69.023  1.00  0.00    -0.128 C  
BRANCH   3   4
HETATM    4  C   UNL     1      -8.244   6.509  69.329  1.00  0.00    -0.123 C  
BRANCH   4   5
HETATM    5  C   UNL     1      -6.851   5.983  69.646  1.00  0.00    -0.065 C  
BRANCH   5   6
HETATM    6  C   UNL     1      -6.679   4.527  69.332  1.00  0.00    -0.045 C  
HETATM    7  C   UNL     1      -6.721   3.575  70.278  1.00  0.00    -0.033 C  
BRANCH   7   8
HETATM    8  C   UNL     1      -6.913   3.844  71.741  1.00  0.00    -0.027 C  
BRANCH   8   9
HETATM    9  C   UNL     1      -8.299   3.496  72.195  1.00  0.00    -0.082 C  
HETATM   10  C   UNL     1      -9.168   4.379  72.711  1.00  0.00    -0.145 C  
BRANCH  10  11
HETATM   11  C   UNL     1      -8.822   5.823  72.915  1.00  0.00    -0.124 C  
BRANCH  11  12
HETATM   12  C   UNL     1      -9.997   6.759  72.679  1.00  0.00    -0.186 C  
BRANCH  12  13
HETATM   13  C   UNL     1     -11.079   6.031  71.884  1.00  0.00    -0.331 C  
BRANCH  13  14
HETATM   14  C   UNL     1     -12.114   7.018  71.364  1.00  0.00    -0.396 C  
BRANCH  14  15
HETATM   15  C   UNL     1     -12.120   8.303  72.187  1.00  0.00    -0.425 C  
BRANCH  15  16
HETATM   16  C   UNL     1     -12.503   9.491  71.308  1.00  0.00    -0.432 C  
BRANCH  16  17
HETATM   17  C   UNL     1     -13.331  10.516  72.075  1.00  0.00    -0.420 C  
HETATM   18  C   UNL     1     -13.054  11.919  71.592  1.00  0.00    -0.328 C  
HETATM   19  O   UNL     1     -12.275  12.228  70.706  1.00  0.00    -0.378 OA 
HETATM   20  O   UNL     1     -13.780  12.844  72.265  1.00  0.00    -0.541 OA 
ENDBRANCH  16  17
ENDBRANCH  15  16
ENDBRANCH  14  15
ENDBRANCH  13  14
ENDBRANCH  12  13
ENDBRANCH  11  12
ENDBRANCH  10  11
ENDBRANCH   8   9
ENDBRANCH   7   8
ENDBRANCH   5   6
ENDBRANCH   4   5
ENDBRANCH   3   4
ENDBRANCH   2   3
TORSDOF 13
ENDMDL
MODEL      352
REMARK 921   NORMALIZED FREE ENERGY PREDICTED BY IDOCK:   -2.89 KCAL/MOL
REMARK 922        TOTAL FREE ENERGY PREDICTED BY IDOCK:   -6.82 KCAL/MOL
REMARK 923 INTER-LIGAND FREE ENERGY PREDICTED BY IDOCK:   -5.42 KCAL/MOL
REMARK 924 INTRA-LIGAND FREE ENERGY PREDICTED BY IDOCK:   -1.40 KCAL/MOL
REMARK 927      BINDING AFFINITY PREDICTED BY RF-SCORE:    0.00 PKD
ROOT
HETATM    1  C   UNL     1     -12.080  14.632  64.522  1.00  0.00    -0.490 C  
HETATM    2  C   UNL     1     -12.600  14.197  65.881  1.00  0.00    -0.447 C  
ENDROOT
BRANCH   2   3
HETATM    3  C   UNL     1     -12.031  12.842  66.279  1.00  0.00    -0.460 C  
BRANCH   3   4
HETATM    4  C   UNL     1     -11.435  12.884  67.684  1.00  0.00    -0.383 C  
BRANCH   4   5
HETATM    5  C   UNL     1     -11.559  11.513  68.335  1.00  0.00    -0.375 C  
BRANCH   5   6
HETATM    6  C   UNL     1     -11.145  10.387  67.435  1.00  0.00    -0.297 C  
HETATM    7  C   UNL     1      -9.952   9.781  67.538  1.00  0.00    -0.230 C  
BRANCH   7   8
HETATM    8  C   UNL     1      -8.892  10.164  68.529  1.00  0.00    -0.127 C  
BRANCH   8   9
HETATM    9  C   UNL     1      -7.552  10.329  67.876  1.00  0.00    -0.089 C  
HETATM   10  C   UNL     1      -7.030  11.511  67.512  1.00  0.00    -0.102 C  
BRANCH  10  11
HETATM   11  C   UNL     1      -7.763  12.805  67.699  1.00  0.00    -0.162 C  
BRANCH  11  12
HETATM   12  C   UNL     1      -6.849  14.020  67.664  1.00  0.00    -0.195 C  
BRANCH  12  13
HETATM   13  C   UNL     1      -6.464  14.413  69.088  1.00  0.00    -0.107 C  
BRANCH  13  14
HETATM   14  C   UNL     1      -6.964  15.813  69.411  1.00  0.00    -0.202 C  
BRANCH  14  15
HETATM   15  C   UNL     1      -7.508  16.509  68.167  1.00  0.00    -0.161 C  
BRANCH  15  16
HETATM   16  C   UNL     1      -7.296  18.016  68.270  1.00  0.00    -0.259 C  
BRANCH  16  17
HETATM   17  C   UNL     1      -6.570  18.569  67.049  1.00  0.00    -0.203 C  
HETATM   18  C   UNL     1      -7.540  18.971  65.965  1.00  0.00    -0.248 C  
HETATM   19  O   UNL     1      -8.755  18.879  66.026  1.00  0.00    -0.466 OA 
HETATM   20  O   UNL     1      -6.911  19.462  64.870  1.00  0.00    -0.418 OA 
ENDBRANCH  16  17
ENDBRANCH  15  16
ENDBRANCH  14  15
ENDBRANCH  13  14
ENDBRANCH  12  13
ENDBRANCH  11  12
ENDBRANCH  10  11
ENDBRANCH   8   9
ENDBRANCH   7   8
ENDBRANCH   5   6
ENDBRANCH   4   5
ENDBRANCH   3   4
ENDBRANCH   2   3
TORSDOF 13
ENDMDL
MODEL      353
REMARK 921   NORMALIZED FREE ENERGY PREDICTED BY IDOCK:   -2.88 KCAL/MOL
REMARK 922        TOTAL FREE ENERGY PREDICTED BY IDOCK:   -6.82 KCAL/MOL
REMARK 923 INTER-LIGAND FREE ENERGY PREDICTED BY IDOCK:   -5.15 KCAL/MOL
REMARK 924 INTRA-LIGAND FREE ENERGY PREDICTED BY IDOCK:   -1.67 KCAL/MOL
REMARK 927      BINDING AFFINITY PREDICTED BY RF-SCORE:    0.00 PKD
ROOT
HETATM    1  C   UNL     1     -13.426   8.712  71.882  1.00  0.00    -0.433 C  
HETATM    2  C   UNL     1     -11.927   8.906  72.022  1.00  0.00    -0.439 C  
ENDROOT
BRANCH   2   3
HETATM    3  C   UNL     1     -11.164   7.708  71.470  1.00  0.00    -0.277 C  
BRANCH   3   4
HETATM    4  C   UNL     1     -11.058   7.775  69.948  1.00  0.00    -0.142 C  
BRANCH   4   5
HETATM    5  C   UNL     1     -11.409   6.420  69.349  1.00  0.00    -0.443 C  
BRANCH   5   6
HETATM    6  C   UNL     1     -10.263   5.454  69.349  1.00  0.00    -0.334 C  
HETATM    7  C   UNL     1      -9.729   4.968  68.217  1.00  0.00    -0.200 C  
BRANCH   7   8
HETATM    8  C   UNL     1     -10.220   5.301  66.839  1.00  0.00    -0.279 C  
BRANCH   8   9
HETATM    9  C   UNL     1      -9.099   5.708  65.931  1.00  0.00    -0.158 C  
HETATM   10  C   UNL     1      -8.702   6.976  65.744  1.00  0.00    -0.116 C  
BRANCH  10  11
HETATM   11  C   UNL     1      -9.372   8.136  66.416  1.00  0.00    -0.269 C  
BRANCH  11  12
HETATM   12  C   UNL     1      -8.668   8.580  67.688  1.00  0.00    -0.136 C  
BRANCH  12  13
HETATM   13  C   UNL     1      -8.285  10.053  67.575  1.00  0.00    -0.114 C  
BRANCH  13  14
HETATM   14  C   UNL     1      -9.483  10.884  67.139  1.00  0.00    -0.178 C  
BRANCH  14  15
HETATM   15  C   UNL     1     -10.481  11.062  68.279  1.00  0.00    -0.212 C  
BRANCH  15  16
HETATM   16  C   UNL     1     -11.269  12.355  68.094  1.00  0.00    -0.313 C  
BRANCH  16  17
HETATM   17  C   UNL     1     -10.565  13.543  68.741  1.00  0.00    -0.237 C  
HETATM   18  C   UNL     1     -11.487  14.287  69.677  1.00  0.00    -0.282 C  
HETATM   19  O   UNL     1     -12.650  14.001  69.908  1.00  0.00    -0.304 OA 
HETATM   20  O   UNL     1     -10.877  15.349  70.258  1.00  0.00    -0.285 OA 
ENDBRANCH  16  17
ENDBRANCH  15  16
ENDBRANCH  14  15
ENDBRANCH  13  14
ENDBRANCH  12  13
ENDBRANCH  11  12
ENDBRANCH  10  11
ENDBRANCH   8   9
ENDBRANCH   7   8
ENDBRANCH   5   6
ENDBRANCH   4   5
ENDBRANCH   3   4
ENDBRANCH   2   3
TORSDOF 13
ENDMDL
MODEL      354
REMARK 921   NORMALIZED FREE ENERGY PREDICTED BY IDOCK:   -2.88 KCAL/MOL
REMARK 922        TOTAL FREE ENERGY PREDICTED BY IDOCK:   -6.82 KCAL/MOL
REMARK 923 INTER-LIGAND FREE ENERGY PREDICTED BY IDOCK:   -4.40 KCAL/MOL
REMARK 924 INTRA-LIGAND FREE ENERGY PREDICTED BY IDOCK:   -2.42 KCAL/MOL
REMARK 927      BINDING AFFINITY PREDICTED BY RF-SCORE:    0.00 PKD
ROOT
HETATM    1  C   UNL     1      -9.836   8.098  67.235  1.00  0.00    -0.259 C  
HETATM    2  C   UNL     1     -11.006   7.129  67.254  1.00  0.00    -0.333 C  
ENDROOT
BRANCH   2   3
HETATM    3  C   UNL     1     -10.580   5.765  67.783  1.00  0.00    -0.310 C  
BRANCH   3   4
HETATM    4  C   UNL     1     -10.774   5.675  69.295  1.00  0.00    -0.350 C  
BRANCH   4   5
HETATM    5  C   UNL     1      -9.603   4.926  69.918  1.00  0.00    -0.252 C  
BRANCH   5   6
HETATM    6  C   UNL     1      -8.276   5.302  69.331  1.00  0.00    -0.095 C  
HETATM    7  C   UNL     1      -7.193   5.540  70.088  1.00  0.00    -0.067 C  
BRANCH   7   8
HETATM    8  C   UNL     1      -7.181   5.488  71.587  1.00  0.00    -0.085 C  
BRANCH   8   9
HETATM    9  C   UNL     1      -6.611   4.198  72.096  1.00  0.00    -0.022 C  
HETATM   10  C   UNL     1      -7.099   3.519  73.146  1.00  0.00    -0.046 C  
BRANCH  10  11
HETATM   11  C   UNL     1      -8.266   4.009  73.948  1.00  0.00    -0.092 C  
BRANCH  11  12
HETATM   12  C   UNL     1      -9.604   3.523  73.415  1.00  0.00    -0.140 C  
BRANCH  12  13
HETATM   13  C   UNL     1     -10.732   4.342  74.038  1.00  0.00    -0.334 C  
BRANCH  13  14
HETATM   14  C   UNL     1     -11.197   5.428  73.078  1.00  0.00    -0.370 C  
BRANCH  14  15
HETATM   15  C   UNL     1     -10.251   6.625  73.092  1.00  0.00    -0.238 C  
BRANCH  15  16
HETATM   16  C   UNL     1     -10.919   7.833  72.442  1.00  0.00    -0.368 C  
BRANCH  16  17
HETATM   17  C   UNL     1      -9.906   8.721  71.727  1.00  0.00    -0.391 C  
HETATM   18  C   UNL     1     -10.568   9.573  70.672  1.00  0.00    -0.308 C  
HETATM   19  O   UNL     1     -11.758   9.575  70.400  1.00  0.00    -0.247 OA 
HETATM   20  O   UNL     1      -9.681  10.367  70.024  1.00  0.00    -0.091 OA 
ENDBRANCH  16  17
ENDBRANCH  15  16
ENDBRANCH  14  15
ENDBRANCH  13  14
ENDBRANCH  12  13
ENDBRANCH  11  12
ENDBRANCH  10  11
ENDBRANCH   8   9
ENDBRANCH   7   8
ENDBRANCH   5   6
ENDBRANCH   4   5
ENDBRANCH   3   4
ENDBRANCH   2   3
TORSDOF 13
ENDMDL
MODEL      355
REMARK 921   NORMALIZED FREE ENERGY PREDICTED BY IDOCK:   -2.88 KCAL/MOL
REMARK 922        TOTAL FREE ENERGY PREDICTED BY IDOCK:   -6.81 KCAL/MOL
REMARK 923 INTER-LIGAND FREE ENERGY PREDICTED BY IDOCK:   -5.59 KCAL/MOL
REMARK 924 INTRA-LIGAND FREE ENERGY PREDICTED BY IDOCK:   -1.22 KCAL/MOL
REMARK 927      BINDING AFFINITY PREDICTED BY RF-SCORE:    0.00 PKD
ROOT
HETATM    1  C   UNL     1      -7.032   4.934  66.068  1.00  0.00    -0.066 C  
HETATM    2  C   UNL     1      -8.380   4.260  65.885  1.00  0.00    -0.109 C  
ENDROOT
BRANCH   2   3
HETATM    3  C   UNL     1      -9.477   5.016  66.623  1.00  0.00    -0.148 C  
BRANCH   3   4
HETATM    4  C   UNL     1      -9.683   4.455  68.029  1.00  0.00    -0.182 C  
BRANCH   4   5
HETATM    5  C   UNL     1      -9.547   5.574  69.053  1.00  0.00    -0.180 C  
BRANCH   5   6
HETATM    6  C   UNL     1      -8.857   6.791  68.515  1.00  0.00    -0.123 C  
HETATM    7  C   UNL     1      -9.299   8.036  68.753  1.00  0.00    -0.147 C  
BRANCH   7   8
HETATM    8  C   UNL     1     -10.531   8.359  69.547  1.00  0.00    -0.225 C  
BRANCH   8   9
HETATM    9  C   UNL     1     -10.316   9.530  70.459  1.00  0.00    -0.350 C  
HETATM   10  C   UNL     1     -10.920  10.719  70.314  1.00  0.00    -0.160 C  
BRANCH  10  11
HETATM   11  C   UNL     1     -11.865  11.010  69.187  1.00  0.00    -0.407 C  
BRANCH  11  12
HETATM   12  C   UNL     1     -11.285  11.955  68.148  1.00  0.00    -0.316 C  
BRANCH  12  13
HETATM   13  C   UNL     1     -10.931  13.287  68.807  1.00  0.00    -0.294 C  
BRANCH  13  14
HETATM   14  C   UNL     1     -12.012  14.322  68.532  1.00  0.00    -0.352 C  
BRANCH  14  15
HETATM   15  C   UNL     1     -12.236  15.226  69.740  1.00  0.00    -0.326 C  
BRANCH  15  16
HETATM   16  C   UNL     1     -13.019  14.482  70.818  1.00  0.00    -0.403 C  
BRANCH  16  17
HETATM   17  C   UNL     1     -13.492  15.421  71.922  1.00  0.00    -0.571 C  
HETATM   18  C   UNL     1     -12.471  15.528  73.029  1.00  0.00    -0.442 C  
HETATM   19  O   UNL     1     -11.397  14.951  73.067  1.00  0.00    -0.106 OA 
HETATM   20  O   UNL     1     -12.877  16.356  74.021  1.00  0.00    -0.684 OA 
ENDBRANCH  16  17
ENDBRANCH  15  16
ENDBRANCH  14  15
ENDBRANCH  13  14
ENDBRANCH  12  13
ENDBRANCH  11  12
ENDBRANCH  10  11
ENDBRANCH   8   9
ENDBRANCH   7   8
ENDBRANCH   5   6
ENDBRANCH   4   5
ENDBRANCH   3   4
ENDBRANCH   2   3
TORSDOF 13
ENDMDL
MODEL      356
REMARK 921   NORMALIZED FREE ENERGY PREDICTED BY IDOCK:   -2.88 KCAL/MOL
REMARK 922        TOTAL FREE ENERGY PREDICTED BY IDOCK:   -6.81 KCAL/MOL
REMARK 923 INTER-LIGAND FREE ENERGY PREDICTED BY IDOCK:   -5.15 KCAL/MOL
REMARK 924 INTRA-LIGAND FREE ENERGY PREDICTED BY IDOCK:   -1.66 KCAL/MOL
REMARK 927      BINDING AFFINITY PREDICTED BY RF-SCORE:    0.00 PKD
ROOT
HETATM    1  C   UNL     1     -10.798  13.951  64.524  1.00  0.00    -0.381 C  
HETATM    2  C   UNL     1     -10.842  15.435  64.839  1.00  0.00    -0.445 C  
ENDROOT
BRANCH   2   3
HETATM    3  C   UNL     1     -10.884  15.676  66.343  1.00  0.00    -0.252 C  
BRANCH   3   4
HETATM    4  C   UNL     1      -9.627  16.400  66.821  1.00  0.00    -0.263 C  
BRANCH   4   5
HETATM    5  C   UNL     1      -8.909  15.549  67.859  1.00  0.00    -0.171 C  
BRANCH   5   6
HETATM    6  C   UNL     1      -8.104  14.434  67.262  1.00  0.00    -0.209 C  
HETATM    7  C   UNL     1      -8.330  13.143  67.556  1.00  0.00    -0.185 C  
BRANCH   7   8
HETATM    8  C   UNL     1      -9.375  12.665  68.520  1.00  0.00    -0.082 C  
BRANCH   8   9
HETATM    9  C   UNL     1     -10.690  12.421  67.842  1.00  0.00    -0.245 C  
HETATM   10  C   UNL     1     -11.434  11.317  68.014  1.00  0.00    -0.369 C  
BRANCH  10  11
HETATM   11  C   UNL     1     -11.001  10.185  68.896  1.00  0.00    -0.261 C  
BRANCH  11  12
HETATM   12  C   UNL     1     -11.523  10.301  70.319  1.00  0.00    -0.395 C  
BRANCH  12  13
HETATM   13  C   UNL     1     -10.629   9.496  71.259  1.00  0.00    -0.358 C  
BRANCH  13  14
HETATM   14  C   UNL     1      -9.670   8.621  70.466  1.00  0.00    -0.210 C  
BRANCH  14  15
HETATM   15  C   UNL     1      -9.333   7.339  71.222  1.00  0.00    -0.155 C  
BRANCH  15  16
HETATM   16  C   UNL     1     -10.429   7.020  72.235  1.00  0.00    -0.234 C  
BRANCH  16  17
HETATM   17  C   UNL     1     -10.929   5.587  72.093  1.00  0.00    -0.291 C  
HETATM   18  C   UNL     1     -10.667   4.785  73.345  1.00  0.00    -0.257 C  
HETATM   19  O   UNL     1     -10.126   5.200  74.357  1.00  0.00    -0.199 OA 
HETATM   20  O   UNL     1     -11.103   3.507  73.234  1.00  0.00    -0.192 OA 
ENDBRANCH  16  17
ENDBRANCH  15  16
ENDBRANCH  14  15
ENDBRANCH  13  14
ENDBRANCH  12  13
ENDBRANCH  11  12
ENDBRANCH  10  11
ENDBRANCH   8   9
ENDBRANCH   7   8
ENDBRANCH   5   6
ENDBRANCH   4   5
ENDBRANCH   3   4
ENDBRANCH   2   3
TORSDOF 13
ENDMDL
MODEL      357
REMARK 921   NORMALIZED FREE ENERGY PREDICTED BY IDOCK:   -2.87 KCAL/MOL
REMARK 922        TOTAL FREE ENERGY PREDICTED BY IDOCK:   -6.80 KCAL/MOL
REMARK 923 INTER-LIGAND FREE ENERGY PREDICTED BY IDOCK:   -5.06 KCAL/MOL
REMARK 924 INTRA-LIGAND FREE ENERGY PREDICTED BY IDOCK:   -1.74 KCAL/MOL
REMARK 927      BINDING AFFINITY PREDICTED BY RF-SCORE:    0.00 PKD
ROOT
HETATM    1  C   UNL     1      -7.461   4.279  65.630  1.00  0.00    -0.081 C  
HETATM    2  C   UNL     1      -8.486   5.324  65.224  1.00  0.00    -0.147 C  
ENDROOT
BRANCH   2   3
HETATM    3  C   UNL     1      -8.018   6.725  65.595  1.00  0.00    -0.116 C  
BRANCH   3   4
HETATM    4  C   UNL     1      -9.202   7.640  65.900  1.00  0.00    -0.053 C  
BRANCH   4   5
HETATM    5  C   UNL     1      -8.762   9.095  65.812  1.00  0.00    -0.192 C  
BRANCH   5   6
HETATM    6  C   UNL     1      -9.887  10.041  65.518  1.00  0.00    -0.373 C  
HETATM    7  C   UNL     1     -10.296  10.972  66.395  1.00  0.00    -0.302 C  
BRANCH   7   8
HETATM    8  C   UNL     1      -9.708  11.161  67.763  1.00  0.00    -0.183 C  
BRANCH   8   9
HETATM    9  C   UNL     1      -9.122  12.530  67.934  1.00  0.00    -0.199 C  
HETATM   10  C   UNL     1      -9.805  13.592  68.388  1.00  0.00    -0.225 C  
BRANCH  10  11
HETATM   11  C   UNL     1     -11.258  13.519  68.750  1.00  0.00    -0.311 C  
BRANCH  11  12
HETATM   12  C   UNL     1     -12.148  14.324  67.817  1.00  0.00    -0.316 C  
BRANCH  12  13
HETATM   13  C   UNL     1     -12.495  13.485  66.589  1.00  0.00    -0.263 C  
BRANCH  13  14
HETATM   14  C   UNL     1     -12.379  14.319  65.322  1.00  0.00    -0.427 C  
BRANCH  14  15
HETATM   15  C   UNL     1     -10.920  14.541  64.935  1.00  0.00    -0.421 C  
BRANCH  15  16
HETATM   16  C   UNL     1     -10.569  16.023  65.026  1.00  0.00    -0.342 C  
BRANCH  16  17
HETATM   17  C   UNL     1      -9.484  16.284  66.065  1.00  0.00    -0.369 C  
HETATM   18  C   UNL     1      -9.924  17.316  67.074  1.00  0.00    -0.289 C  
HETATM   19  O   UNL     1     -11.001  17.888  67.085  1.00  0.00    -0.207 OA 
HETATM   20  O   UNL     1      -8.969  17.562  68.003  1.00  0.00    -0.245 OA 
ENDBRANCH  16  17
ENDBRANCH  15  16
ENDBRANCH  14  15
ENDBRANCH  13  14
ENDBRANCH  12  13
ENDBRANCH  11  12
ENDBRANCH  10  11
ENDBRANCH   8   9
ENDBRANCH   7   8
ENDBRANCH   5   6
ENDBRANCH   4   5
ENDBRANCH   3   4
ENDBRANCH   2   3
TORSDOF 13
ENDMDL
MODEL      358
REMARK 921   NORMALIZED FREE ENERGY PREDICTED BY IDOCK:   -2.87 KCAL/MOL
REMARK 922        TOTAL FREE ENERGY PREDICTED BY IDOCK:   -6.80 KCAL/MOL
REMARK 923 INTER-LIGAND FREE ENERGY PREDICTED BY IDOCK:   -4.80 KCAL/MOL
REMARK 924 INTRA-LIGAND FREE ENERGY PREDICTED BY IDOCK:   -2.00 KCAL/MOL
REMARK 927      BINDING AFFINITY PREDICTED BY RF-SCORE:    0.00 PKD
ROOT
HETATM    1  C   UNL     1     -11.757  12.540  65.528  1.00  0.00    -0.457 C  
HETATM    2  C   UNL     1     -10.304  12.962  65.402  1.00  0.00    -0.310 C  
ENDROOT
BRANCH   2   3
HETATM    3  C   UNL     1      -9.775  13.510  66.721  1.00  0.00    -0.271 C  
BRANCH   3   4
HETATM    4  C   UNL     1      -9.039  12.431  67.512  1.00  0.00    -0.185 C  
BRANCH   4   5
HETATM    5  C   UNL     1      -8.591  11.321  66.571  1.00  0.00    -0.170 C  
BRANCH   5   6
HETATM    6  C   UNL     1      -7.952  10.163  67.277  1.00  0.00    -0.110 C  
HETATM    7  C   UNL     1      -8.378   8.899  67.122  1.00  0.00    -0.103 C  
BRANCH   7   8
HETATM    8  C   UNL     1      -9.539   8.497  66.261  1.00  0.00    -0.306 C  
BRANCH   8   9
HETATM    9  C   UNL     1     -10.674   7.951  67.075  1.00  0.00    -0.289 C  
HETATM   10  C   UNL     1     -11.010   6.652  67.124  1.00  0.00    -0.478 C  
BRANCH  10  11
HETATM   11  C   UNL     1     -10.289   5.604  66.331  1.00  0.00    -0.241 C  
BRANCH  11  12
HETATM   12  C   UNL     1      -9.639   4.539  67.199  1.00  0.00    -0.209 C  
BRANCH  12  13
HETATM   13  C   UNL     1      -8.317   5.066  67.753  1.00  0.00    -0.105 C  
BRANCH  13  14
HETATM   14  C   UNL     1      -8.112   4.593  69.184  1.00  0.00    -0.073 C  
BRANCH  14  15
HETATM   15  C   UNL     1      -9.415   4.086  69.795  1.00  0.00    -0.265 C  
BRANCH  15  16
HETATM   16  C   UNL     1      -9.773   4.905  71.031  1.00  0.00    -0.252 C  
BRANCH  16  17
HETATM   17  C   UNL     1     -10.942   5.847  70.764  1.00  0.00    -0.343 C  
HETATM   18  C   UNL     1     -10.487   7.285  70.702  1.00  0.00    -0.214 C  
HETATM   19  O   UNL     1      -9.340   7.677  70.842  1.00  0.00    -0.156 OA 
HETATM   20  O   UNL     1     -11.514   8.137  70.469  1.00  0.00    -0.259 OA 
ENDBRANCH  16  17
ENDBRANCH  15  16
ENDBRANCH  14  15
ENDBRANCH  13  14
ENDBRANCH  12  13
ENDBRANCH  11  12
ENDBRANCH  10  11
ENDBRANCH   8   9
ENDBRANCH   7   8
ENDBRANCH   5   6
ENDBRANCH   4   5
ENDBRANCH   3   4
ENDBRANCH   2   3
TORSDOF 13
ENDMDL
MODEL      359
REMARK 921   NORMALIZED FREE ENERGY PREDICTED BY IDOCK:   -2.87 KCAL/MOL
REMARK 922        TOTAL FREE ENERGY PREDICTED BY IDOCK:   -6.80 KCAL/MOL
REMARK 923 INTER-LIGAND FREE ENERGY PREDICTED BY IDOCK:   -5.25 KCAL/MOL
REMARK 924 INTRA-LIGAND FREE ENERGY PREDICTED BY IDOCK:   -1.54 KCAL/MOL
REMARK 927      BINDING AFFINITY PREDICTED BY RF-SCORE:    0.00 PKD
ROOT
HETATM    1  C   UNL     1     -10.648   3.695  73.171  1.00  0.00    -0.269 C  
HETATM    2  C   UNL     1     -10.422   4.814  72.169  1.00  0.00    -0.243 C  
ENDROOT
BRANCH   2   3
HETATM    3  C   UNL     1      -9.650   5.966  72.799  1.00  0.00    -0.163 C  
BRANCH   3   4
HETATM    4  C   UNL     1     -10.598   7.017  73.372  1.00  0.00    -0.399 C  
BRANCH   4   5
HETATM    5  C   UNL     1     -11.648   7.382  72.332  1.00  0.00    -0.327 C  
BRANCH   5   6
HETATM    6  C   UNL     1     -11.419   8.721  71.698  1.00  0.00    -0.386 C  
HETATM    7  C   UNL     1     -10.965   8.856  70.442  1.00  0.00    -0.275 C  
BRANCH   7   8
HETATM    8  C   UNL     1     -10.611   7.708  69.542  1.00  0.00    -0.227 C  
BRANCH   8   9
HETATM    9  C   UNL     1      -9.174   7.755  69.117  1.00  0.00    -0.144 C  
HETATM   10  C   UNL     1      -8.768   7.854  67.841  1.00  0.00    -0.124 C  
BRANCH  10  11
HETATM   11  C   UNL     1      -9.729   7.900  66.692  1.00  0.00    -0.305 C  
BRANCH  11  12
HETATM   12  C   UNL     1     -10.248   9.299  66.402  1.00  0.00    -0.298 C  
BRANCH  12  13
HETATM   13  C   UNL     1      -9.141  10.320  66.655  1.00  0.00    -0.163 C  
BRANCH  13  14
HETATM   14  C   UNL     1      -9.501  11.663  66.037  1.00  0.00    -0.246 C  
BRANCH  14  15
HETATM   15  C   UNL     1      -9.504  12.774  67.083  1.00  0.00    -0.223 C  
BRANCH  15  16
HETATM   16  C   UNL     1     -10.625  12.546  68.092  1.00  0.00    -0.239 C  
BRANCH  16  17
HETATM   17  C   UNL     1     -11.015  13.837  68.803  1.00  0.00    -0.289 C  
HETATM   18  C   UNL     1     -11.843  13.559  70.034  1.00  0.00    -0.301 C  
HETATM   19  O   UNL     1     -12.175  12.456  70.436  1.00  0.00    -0.346 OA 
HETATM   20  O   UNL     1     -12.201  14.697  70.677  1.00  0.00    -0.283 OA 
ENDBRANCH  16  17
ENDBRANCH  15  16
ENDBRANCH  14  15
ENDBRANCH  13  14
ENDBRANCH  12  13
ENDBRANCH  11  12
ENDBRANCH  10  11
ENDBRANCH   8   9
ENDBRANCH   7   8
ENDBRANCH   5   6
ENDBRANCH   4   5
ENDBRANCH   3   4
ENDBRANCH   2   3
TORSDOF 13
ENDMDL
MODEL      360
REMARK 921   NORMALIZED FREE ENERGY PREDICTED BY IDOCK:   -2.87 KCAL/MOL
REMARK 922        TOTAL FREE ENERGY PREDICTED BY IDOCK:   -6.79 KCAL/MOL
REMARK 923 INTER-LIGAND FREE ENERGY PREDICTED BY IDOCK:   -5.43 KCAL/MOL
REMARK 924 INTRA-LIGAND FREE ENERGY PREDICTED BY IDOCK:   -1.37 KCAL/MOL
REMARK 927      BINDING AFFINITY PREDICTED BY RF-SCORE:    0.00 PKD
ROOT
HETATM    1  C   UNL     1      -9.515   9.352  67.388  1.00  0.00    -0.163 C  
HETATM    2  C   UNL     1      -9.347   9.528  65.889  1.00  0.00    -0.285 C  
ENDROOT
BRANCH   2   3
HETATM    3  C   UNL     1     -10.202  10.678  65.372  1.00  0.00    -0.341 C  
BRANCH   3   4
HETATM    4  C   UNL     1     -11.072  11.262  66.483  1.00  0.00    -0.280 C  
BRANCH   4   5
HETATM    5  C   UNL     1     -11.966  12.355  65.913  1.00  0.00    -0.434 C  
BRANCH   5   6
HETATM    6  C   UNL     1     -11.799  12.550  64.436  1.00  0.00    -0.455 C  
HETATM    7  C   UNL     1     -12.022  13.729  63.834  1.00  0.00    -0.414 C  
BRANCH   7   8
HETATM    8  C   UNL     1     -12.482  14.968  64.544  1.00  0.00    -0.161 C  
BRANCH   8   9
HETATM    9  C   UNL     1     -11.497  16.090  64.404  1.00  0.00    -0.246 C  
HETATM   10  C   UNL     1     -10.491  16.321  65.262  1.00  0.00    -0.324 C  
BRANCH  10  11
HETATM   11  C   UNL     1     -10.266  15.482  66.483  1.00  0.00    -0.291 C  
BRANCH  11  12
HETATM   12  C   UNL     1      -9.126  15.986  67.353  1.00  0.00    -0.207 C  
BRANCH  12  13
HETATM   13  C   UNL     1      -7.830  15.281  66.959  1.00  0.00    -0.224 C  
BRANCH  13  14
HETATM   14  C   UNL     1      -6.623  16.076  67.435  1.00  0.00    -0.224 C  
BRANCH  14  15
HETATM   15  C   UNL     1      -6.100  17.001  66.339  1.00  0.00    -0.106 C  
BRANCH  15  16
HETATM   16  C   UNL     1      -5.830  18.391  66.906  1.00  0.00    -0.166 C  
BRANCH  16  17
HETATM   17  C   UNL     1      -6.107  18.453  68.404  1.00  0.00    -0.193 C  
HETATM   18  C   UNL     1      -6.106  19.877  68.906  1.00  0.00    -0.275 C  
HETATM   19  O   UNL     1      -5.913  20.872  68.227  1.00  0.00    -0.305 OA 
HETATM   20  O   UNL     1      -6.348  19.950  70.237  1.00  0.00    -0.331 OA 
ENDBRANCH  16  17
ENDBRANCH  15  16
ENDBRANCH  14  15
ENDBRANCH  13  14
ENDBRANCH  12  13
ENDBRANCH  11  12
ENDBRANCH  10  11
ENDBRANCH   8   9
ENDBRANCH   7   8
ENDBRANCH   5   6
ENDBRANCH   4   5
ENDBRANCH   3   4
ENDBRANCH   2   3
TORSDOF 13
ENDMDL
MODEL      361
REMARK 921   NORMALIZED FREE ENERGY PREDICTED BY IDOCK:   -2.85 KCAL/MOL
REMARK 922        TOTAL FREE ENERGY PREDICTED BY IDOCK:   -6.77 KCAL/MOL
REMARK 923 INTER-LIGAND FREE ENERGY PREDICTED BY IDOCK:   -4.80 KCAL/MOL
REMARK 924 INTRA-LIGAND FREE ENERGY PREDICTED BY IDOCK:   -1.97 KCAL/MOL
REMARK 927      BINDING AFFINITY PREDICTED BY RF-SCORE:    0.00 PKD
ROOT
HETATM    1  C   UNL     1     -11.130  11.105  67.567  1.00  0.00    -0.353 C  
HETATM    2  C   UNL     1     -11.583  11.678  68.899  1.00  0.00    -0.377 C  
ENDROOT
BRANCH   2   3
HETATM    3  C   UNL     1     -11.897  13.164  68.779  1.00  0.00    -0.361 C  
BRANCH   3   4
HETATM    4  C   UNL     1     -12.387  13.733  70.109  1.00  0.00    -0.390 C  
BRANCH   4   5
HETATM    5  C   UNL     1     -12.052  15.216  70.186  1.00  0.00    -0.384 C  
BRANCH   5   6
HETATM    6  C   UNL     1     -10.585  15.502  70.079  1.00  0.00    -0.337 C  
HETATM    7  C   UNL     1     -10.081  16.366  69.182  1.00  0.00    -0.278 C  
BRANCH   7   8
HETATM    8  C   UNL     1     -10.903  17.117  68.178  1.00  0.00    -0.316 C  
BRANCH   8   9
HETATM    9  C   UNL     1     -10.110  17.461  66.952  1.00  0.00    -0.314 C  
HETATM   10  C   UNL     1      -9.903  16.619  65.928  1.00  0.00    -0.301 C  
BRANCH  10  11
HETATM   11  C   UNL     1     -10.429  15.215  65.921  1.00  0.00    -0.350 C  
BRANCH  11  12
HETATM   12  C   UNL     1      -9.330  14.165  65.899  1.00  0.00    -0.036 C  
BRANCH  12  13
HETATM   13  C   UNL     1      -8.663  14.093  67.271  1.00  0.00    -0.229 C  
BRANCH  13  14
HETATM   14  C   UNL     1      -7.166  13.867  67.126  1.00  0.00     0.215 C  
BRANCH  14  15
HETATM   15  C   UNL     1      -6.716  12.619  67.880  1.00  0.00    -0.109 C  
BRANCH  15  16
HETATM   16  C   UNL     1      -6.622  12.910  69.374  1.00  0.00    -0.062 C  
BRANCH  16  17
HETATM   17  C   UNL     1      -5.987  14.270  69.646  1.00  0.00    -0.112 C  
HETATM   18  C   UNL     1      -5.698  14.460  71.115  1.00  0.00    -0.181 C  
HETATM   19  O   UNL     1      -5.930  13.650  71.997  1.00  0.00    -0.344 OA 
HETATM   20  O   UNL     1      -5.136  15.665  71.374  1.00  0.00    -0.175 OA 
ENDBRANCH  16  17
ENDBRANCH  15  16
ENDBRANCH  14  15
ENDBRANCH  13  14
ENDBRANCH  12  13
ENDBRANCH  11  12
ENDBRANCH  10  11
ENDBRANCH   8   9
ENDBRANCH   7   8
ENDBRANCH   5   6
ENDBRANCH   4   5
ENDBRANCH   3   4
ENDBRANCH   2   3
TORSDOF 13
ENDMDL
MODEL      362
REMARK 921   NORMALIZED FREE ENERGY PREDICTED BY IDOCK:   -2.85 KCAL/MOL
REMARK 922        TOTAL FREE ENERGY PREDICTED BY IDOCK:   -6.76 KCAL/MOL
REMARK 923 INTER-LIGAND FREE ENERGY PREDICTED BY IDOCK:   -5.26 KCAL/MOL
REMARK 924 INTRA-LIGAND FREE ENERGY PREDICTED BY IDOCK:   -1.51 KCAL/MOL
REMARK 927      BINDING AFFINITY PREDICTED BY RF-SCORE:    0.00 PKD
ROOT
HETATM    1  C   UNL     1     -10.699   7.397  69.429  1.00  0.00    -0.220 C  
HETATM    2  C   UNL     1      -9.929   8.103  68.327  1.00  0.00    -0.212 C  
ENDROOT
BRANCH   2   3
HETATM    3  C   UNL     1     -10.200   9.601  68.341  1.00  0.00    -0.214 C  
BRANCH   3   4
HETATM    4  C   UNL     1      -9.061  10.362  69.016  1.00  0.00    -0.193 C  
BRANCH   4   5
HETATM    5  C   UNL     1      -8.326  11.207  67.985  1.00  0.00    -0.134 C  
BRANCH   5   6
HETATM    6  C   UNL     1      -8.016  12.594  68.462  1.00  0.00    -0.093 C  
HETATM    7  C   UNL     1      -8.628  13.681  67.966  1.00  0.00    -0.175 C  
BRANCH   7   8
HETATM    8  C   UNL     1      -9.657  13.649  66.876  1.00  0.00    -0.262 C  
BRANCH   8   9
HETATM    9  C   UNL     1     -10.887  12.897  67.291  1.00  0.00    -0.277 C  
HETATM   10  C   UNL     1     -12.113  13.125  66.795  1.00  0.00    -0.389 C  
BRANCH  10  11
HETATM   11  C   UNL     1     -12.385  14.193  65.780  1.00  0.00    -0.481 C  
BRANCH  11  12
HETATM   12  C   UNL     1     -11.861  13.849  64.395  1.00  0.00    -0.456 C  
BRANCH  12  13
HETATM   13  C   UNL     1     -12.432  12.504  63.950  1.00  0.00    -0.540 C  
BRANCH  13  14
HETATM   14  C   UNL     1     -11.342  11.637  63.339  1.00  0.00    -0.380 C  
BRANCH  14  15
HETATM   15  C   UNL     1     -10.525  10.928  64.415  1.00  0.00    -0.403 C  
BRANCH  15  16
HETATM   16  C   UNL     1      -9.387  10.137  63.779  1.00  0.00    -0.336 C  
BRANCH  16  17
HETATM   17  C   UNL     1      -8.775   9.141  64.759  1.00  0.00    -0.208 C  
HETATM   18  C   UNL     1      -7.280   9.321  64.865  1.00  0.00    -0.102 C  
HETATM   19  O   UNL     1      -6.616  10.146  64.259  1.00  0.00    -0.128 OA 
HETATM   20  O   UNL     1      -6.719   8.442  65.730  1.00  0.00    -0.052 OA 
ENDBRANCH  16  17
ENDBRANCH  15  16
ENDBRANCH  14  15
ENDBRANCH  13  14
ENDBRANCH  12  13
ENDBRANCH  11  12
ENDBRANCH  10  11
ENDBRANCH   8   9
ENDBRANCH   7   8
ENDBRANCH   5   6
ENDBRANCH   4   5
ENDBRANCH   3   4
ENDBRANCH   2   3
TORSDOF 13
ENDMDL
MODEL      363
REMARK 921   NORMALIZED FREE ENERGY PREDICTED BY IDOCK:   -2.85 KCAL/MOL
REMARK 922        TOTAL FREE ENERGY PREDICTED BY IDOCK:   -6.75 KCAL/MOL
REMARK 923 INTER-LIGAND FREE ENERGY PREDICTED BY IDOCK:   -4.66 KCAL/MOL
REMARK 924 INTRA-LIGAND FREE ENERGY PREDICTED BY IDOCK:   -2.09 KCAL/MOL
REMARK 927      BINDING AFFINITY PREDICTED BY RF-SCORE:    0.00 PKD
ROOT
HETATM    1  C   UNL     1      -6.016  13.084  67.634  1.00  0.00    -0.145 C  
HETATM    2  C   UNL     1      -5.886  11.648  67.157  1.00  0.00    -0.122 C  
ENDROOT
BRANCH   2   3
HETATM    3  C   UNL     1      -7.145  11.195  66.430  1.00  0.00    -0.091 C  
BRANCH   3   4
HETATM    4  C   UNL     1      -7.517   9.763  66.811  1.00  0.00    -0.095 C  
BRANCH   4   5
HETATM    5  C   UNL     1      -8.652   9.274  65.921  1.00  0.00    -0.163 C  
BRANCH   5   6
HETATM    6  C   UNL     1      -8.545   9.751  64.504  1.00  0.00    -0.199 C  
HETATM    7  C   UNL     1      -9.390  10.654  63.981  1.00  0.00    -0.303 C  
BRANCH   7   8
HETATM    8  C   UNL     1     -10.540  11.267  64.725  1.00  0.00    -0.376 C  
BRANCH   8   9
HETATM    9  C   UNL     1     -10.473  12.765  64.720  1.00  0.00    -0.357 C  
HETATM   10  C   UNL     1     -10.248  13.514  65.811  1.00  0.00    -0.305 C  
BRANCH  10  11
HETATM   11  C   UNL     1     -10.068  12.916  67.174  1.00  0.00    -0.243 C  
BRANCH  11  12
HETATM   12  C   UNL     1     -11.374  12.765  67.938  1.00  0.00    -0.339 C  
BRANCH  12  13
HETATM   13  C   UNL     1     -11.534  11.318  68.397  1.00  0.00    -0.377 C  
BRANCH  13  14
HETATM   14  C   UNL     1     -10.268  10.833  69.088  1.00  0.00    -0.229 C  
BRANCH  14  15
HETATM   15  C   UNL     1     -10.592  10.026  70.341  1.00  0.00    -0.343 C  
BRANCH  15  16
HETATM   16  C   UNL     1      -9.791   8.728  70.355  1.00  0.00    -0.212 C  
BRANCH  16  17
HETATM   17  C   UNL     1      -9.187   8.452  71.728  1.00  0.00    -0.287 C  
HETATM   18  C   UNL     1      -7.761   8.940  71.811  1.00  0.00     0.034 C  
HETATM   19  O   UNL     1      -7.142   9.488  70.914  1.00  0.00    -0.199 OA 
HETATM   20  O   UNL     1      -7.208   8.699  73.024  1.00  0.00    -0.311 OA 
ENDBRANCH  16  17
ENDBRANCH  15  16
ENDBRANCH  14  15
ENDBRANCH  13  14
ENDBRANCH  12  13
ENDBRANCH  11  12
ENDBRANCH  10  11
ENDBRANCH   8   9
ENDBRANCH   7   8
ENDBRANCH   5   6
ENDBRANCH   4   5
ENDBRANCH   3   4
ENDBRANCH   2   3
TORSDOF 13
ENDMDL
MODEL      364
REMARK 921   NORMALIZED FREE ENERGY PREDICTED BY IDOCK:   -2.83 KCAL/MOL
REMARK 922        TOTAL FREE ENERGY PREDICTED BY IDOCK:   -6.73 KCAL/MOL
REMARK 923 INTER-LIGAND FREE ENERGY PREDICTED BY IDOCK:   -4.63 KCAL/MOL
REMARK 924 INTRA-LIGAND FREE ENERGY PREDICTED BY IDOCK:   -2.11 KCAL/MOL
REMARK 927      BINDING AFFINITY PREDICTED BY RF-SCORE:    0.00 PKD
ROOT
HETATM    1  C   UNL     1      -6.992  17.448  66.841  1.00  0.00    -0.227 C  
HETATM    2  C   UNL     1      -7.598  17.479  68.233  1.00  0.00    -0.240 C  
ENDROOT
BRANCH   2   3
HETATM    3  C   UNL     1      -7.141  16.283  69.058  1.00  0.00    -0.196 C  
BRANCH   3   4
HETATM    4  C   UNL     1      -8.315  15.366  69.397  1.00  0.00    -0.250 C  
BRANCH   4   5
HETATM    5  C   UNL     1      -9.615  16.156  69.344  1.00  0.00    -0.208 C  
BRANCH   5   6
HETATM    6  C   UNL     1     -10.782  15.349  68.859  1.00  0.00    -0.244 C  
HETATM    7  C   UNL     1     -10.960  15.043  67.564  1.00  0.00    -0.307 C  
BRANCH   7   8
HETATM    8  C   UNL     1     -10.047  15.483  66.458  1.00  0.00    -0.290 C  
BRANCH   8   9
HETATM    9  C   UNL     1     -10.751  16.366  65.471  1.00  0.00    -0.300 C  
HETATM   10  C   UNL     1     -11.419  15.915  64.398  1.00  0.00    -0.268 C  
BRANCH  10  11
HETATM   11  C   UNL     1     -11.504  14.458  64.056  1.00  0.00     0.050 C  
BRANCH  11  12
HETATM   12  C   UNL     1     -12.654  13.747  64.751  1.00  0.00    -0.330 C  
BRANCH  12  13
HETATM   13  C   UNL     1     -12.534  12.241  64.528  1.00  0.00    -0.464 C  
BRANCH  13  14
HETATM   14  C   UNL     1     -11.154  11.748  64.940  1.00  0.00    -0.345 C  
BRANCH  14  15
HETATM   15  C   UNL     1     -10.998  11.737  66.457  1.00  0.00    -0.342 C  
BRANCH  15  16
HETATM   16  C   UNL     1      -9.678  11.079  66.847  1.00  0.00    -0.215 C  
BRANCH  16  17
HETATM   17  C   UNL     1      -8.536  12.088  66.892  1.00  0.00    -0.172 C  
HETATM   18  C   UNL     1      -7.405  11.603  67.766  1.00  0.00    -0.106 C  
HETATM   19  O   UNL     1      -7.377  10.545  68.372  1.00  0.00    -0.081 OA 
HETATM   20  O   UNL     1      -6.382  12.490  67.818  1.00  0.00    -0.090 OA 
ENDBRANCH  16  17
ENDBRANCH  15  16
ENDBRANCH  14  15
ENDBRANCH  13  14
ENDBRANCH  12  13
ENDBRANCH  11  12
ENDBRANCH  10  11
ENDBRANCH   8   9
ENDBRANCH   7   8
ENDBRANCH   5   6
ENDBRANCH   4   5
ENDBRANCH   3   4
ENDBRANCH   2   3
TORSDOF 13
ENDMDL
MODEL      365
REMARK 921   NORMALIZED FREE ENERGY PREDICTED BY IDOCK:   -2.83 KCAL/MOL
REMARK 922        TOTAL FREE ENERGY PREDICTED BY IDOCK:   -6.72 KCAL/MOL
REMARK 923 INTER-LIGAND FREE ENERGY PREDICTED BY IDOCK:   -4.88 KCAL/MOL
REMARK 924 INTRA-LIGAND FREE ENERGY PREDICTED BY IDOCK:   -1.84 KCAL/MOL
REMARK 927      BINDING AFFINITY PREDICTED BY RF-SCORE:    0.00 PKD
ROOT
HETATM    1  C   UNL     1      -6.916  19.337  65.787  1.00  0.00    -0.307 C  
HETATM    2  C   UNL     1      -6.647  18.815  67.187  1.00  0.00    -0.202 C  
ENDROOT
BRANCH   2   3
HETATM    3  C   UNL     1      -5.417  17.918  67.213  1.00  0.00    -0.143 C  
BRANCH   3   4
HETATM    4  C   UNL     1      -5.551  16.827  68.272  1.00  0.00    -0.115 C  
BRANCH   4   5
HETATM    5  C   UNL     1      -6.922  16.914  68.928  1.00  0.00    -0.213 C  
BRANCH   5   6
HETATM    6  C   UNL     1      -7.500  15.576  69.281  1.00  0.00    -0.212 C  
HETATM    7  C   UNL     1      -8.172  14.824  68.395  1.00  0.00    -0.154 C  
BRANCH   7   8
HETATM    8  C   UNL     1      -8.449  15.230  66.978  1.00  0.00    -0.258 C  
BRANCH   8   9
HETATM    9  C   UNL     1      -9.481  16.315  66.899  1.00  0.00    -0.245 C  
HETATM   10  C   UNL     1     -10.806  16.098  66.912  1.00  0.00    -0.175 C  
BRANCH  10  11
HETATM   11  C   UNL     1     -11.395  14.721  66.978  1.00  0.00    -0.358 C  
BRANCH  11  12
HETATM   12  C   UNL     1     -11.784  14.304  68.387  1.00  0.00    -0.373 C  
BRANCH  12  13
HETATM   13  C   UNL     1     -11.474  12.822  68.586  1.00  0.00    -0.341 C  
BRANCH  13  14
HETATM   14  C   UNL     1     -11.755  12.041  67.311  1.00  0.00    -0.339 C  
BRANCH  14  15
HETATM   15  C   UNL     1     -10.673  10.996  67.050  1.00  0.00    -0.319 C  
BRANCH  15  16
HETATM   16  C   UNL     1      -9.609  11.561  66.114  1.00  0.00    -0.248 C  
BRANCH  16  17
HETATM   17  C   UNL     1      -8.667  10.474  65.608  1.00  0.00    -0.191 C  
HETATM   18  C   UNL     1      -9.056  10.008  64.226  1.00  0.00    -0.255 C  
HETATM   19  O   UNL     1      -9.996  10.427  63.571  1.00  0.00    -0.277 OA 
HETATM   20  O   UNL     1      -8.231   9.039  63.762  1.00  0.00    -0.156 OA 
ENDBRANCH  16  17
ENDBRANCH  15  16
ENDBRANCH  14  15
ENDBRANCH  13  14
ENDBRANCH  12  13
ENDBRANCH  11  12
ENDBRANCH  10  11
ENDBRANCH   8   9
ENDBRANCH   7   8
ENDBRANCH   5   6
ENDBRANCH   4   5
ENDBRANCH   3   4
ENDBRANCH   2   3
TORSDOF 13
ENDMDL
MODEL      366
REMARK 921   NORMALIZED FREE ENERGY PREDICTED BY IDOCK:   -2.83 KCAL/MOL
REMARK 922        TOTAL FREE ENERGY PREDICTED BY IDOCK:   -6.72 KCAL/MOL
REMARK 923 INTER-LIGAND FREE ENERGY PREDICTED BY IDOCK:   -4.51 KCAL/MOL
REMARK 924 INTRA-LIGAND FREE ENERGY PREDICTED BY IDOCK:   -2.21 KCAL/MOL
REMARK 927      BINDING AFFINITY PREDICTED BY RF-SCORE:    0.00 PKD
ROOT
HETATM    1  C   UNL     1      -6.357  12.096  69.654  1.00  0.00    -0.115 C  
HETATM    2  C   UNL     1      -7.398  11.536  68.701  1.00  0.00    -0.106 C  
ENDROOT
BRANCH   2   3
HETATM    3  C   UNL     1      -8.087  12.650  67.924  1.00  0.00    -0.165 C  
BRANCH   3   4
HETATM    4  C   UNL     1      -9.607  12.534  68.021  1.00  0.00    -0.212 C  
BRANCH   4   5
HETATM    5  C   UNL     1     -10.256  13.752  67.378  1.00  0.00    -0.252 C  
BRANCH   5   6
HETATM    6  C   UNL     1     -11.750  13.655  67.293  1.00  0.00    -0.416 C  
HETATM    7  C   UNL     1     -12.415  13.766  66.132  1.00  0.00    -0.466 C  
BRANCH   7   8
HETATM    8  C   UNL     1     -11.765  14.023  64.805  1.00  0.00    -0.403 C  
BRANCH   8   9
HETATM    9  C   UNL     1     -12.288  13.107  63.740  1.00  0.00    -0.459 C  
HETATM   10  C   UNL     1     -11.682  11.973  63.355  1.00  0.00    -0.519 C  
BRANCH  10  11
HETATM   11  C   UNL     1     -10.381  11.517  63.943  1.00  0.00    -0.422 C  
BRANCH  11  12
HETATM   12  C   UNL     1     -10.555  10.657  65.185  1.00  0.00    -0.190 C  
BRANCH  12  13
HETATM   13  C   UNL     1      -9.347   9.736  65.344  1.00  0.00    -0.311 C  
BRANCH  13  14
HETATM   14  C   UNL     1      -8.098  10.389  64.768  1.00  0.00    -0.124 C  
BRANCH  14  15
HETATM   15  C   UNL     1      -6.847   9.578  65.094  1.00  0.00    -0.092 C  
BRANCH  15  16
HETATM   16  C   UNL     1      -7.171   8.499  66.123  1.00  0.00    -0.081 C  
BRANCH  16  17
HETATM   17  C   UNL     1      -6.097   8.407  67.201  1.00  0.00    -0.055 C  
HETATM   18  C   UNL     1      -6.174   7.096  67.945  1.00  0.00    -0.042 C  
HETATM   19  O   UNL     1      -6.979   6.204  67.736  1.00  0.00    -0.067 OA 
HETATM   20  O   UNL     1      -5.227   6.999  68.910  1.00  0.00    -0.013 OA 
ENDBRANCH  16  17
ENDBRANCH  15  16
ENDBRANCH  14  15
ENDBRANCH  13  14
ENDBRANCH  12  13
ENDBRANCH  11  12
ENDBRANCH  10  11
ENDBRANCH   8   9
ENDBRANCH   7   8
ENDBRANCH   5   6
ENDBRANCH   4   5
ENDBRANCH   3   4
ENDBRANCH   2   3
TORSDOF 13
ENDMDL
MODEL      367
REMARK 921   NORMALIZED FREE ENERGY PREDICTED BY IDOCK:   -2.83 KCAL/MOL
REMARK 922        TOTAL FREE ENERGY PREDICTED BY IDOCK:   -6.72 KCAL/MOL
REMARK 923 INTER-LIGAND FREE ENERGY PREDICTED BY IDOCK:   -5.23 KCAL/MOL
REMARK 924 INTRA-LIGAND FREE ENERGY PREDICTED BY IDOCK:   -1.49 KCAL/MOL
REMARK 927      BINDING AFFINITY PREDICTED BY RF-SCORE:    0.00 PKD
ROOT
HETATM    1  C   UNL     1     -12.650  11.002  70.987  1.00  0.00    -0.512 C  
HETATM    2  C   UNL     1     -12.077   9.679  71.465  1.00  0.00    -0.482 C  
ENDROOT
BRANCH   2   3
HETATM    3  C   UNL     1     -13.161   8.800  72.074  1.00  0.00    -0.438 C  
BRANCH   3   4
HETATM    4  C   UNL     1     -12.734   7.334  72.098  1.00  0.00    -0.135 C  
BRANCH   4   5
HETATM    5  C   UNL     1     -11.497   7.175  72.971  1.00  0.00    -0.121 C  
BRANCH   5   6
HETATM    6  C   UNL     1     -10.786   5.872  72.765  1.00  0.00    -0.274 C  
HETATM    7  C   UNL     1      -9.941   5.665  71.742  1.00  0.00    -0.222 C  
BRANCH   7   8
HETATM    8  C   UNL     1      -9.629   6.681  70.683  1.00  0.00    -0.177 C  
BRANCH   8   9
HETATM    9  C   UNL     1     -10.276   6.340  69.375  1.00  0.00    -0.238 C  
HETATM   10  C   UNL     1     -10.208   7.108  68.276  1.00  0.00    -0.210 C  
BRANCH  10  11
HETATM   11  C   UNL     1      -9.488   8.423  68.258  1.00  0.00    -0.147 C  
BRANCH  11  12
HETATM   12  C   UNL     1     -10.426   9.618  68.194  1.00  0.00    -0.266 C  
BRANCH  12  13
HETATM   13  C   UNL     1      -9.611  10.904  68.084  1.00  0.00    -0.169 C  
BRANCH  13  14
HETATM   14  C   UNL     1     -10.287  11.886  67.138  1.00  0.00    -0.235 C  
BRANCH  14  15
HETATM   15  C   UNL     1      -9.558  13.226  67.114  1.00  0.00    -0.240 C  
BRANCH  15  16
HETATM   16  C   UNL     1     -10.558  14.367  66.953  1.00  0.00    -0.278 C  
BRANCH  16  17
HETATM   17  C   UNL     1     -10.452  15.375  68.092  1.00  0.00    -0.247 C  
HETATM   18  C   UNL     1     -11.606  15.242  69.055  1.00  0.00    -0.343 C  
HETATM   19  O   UNL     1     -12.522  14.441  68.964  1.00  0.00    -0.166 OA 
HETATM   20  O   UNL     1     -11.529  16.133  70.073  1.00  0.00    -0.330 OA 
ENDBRANCH  16  17
ENDBRANCH  15  16
ENDBRANCH  14  15
ENDBRANCH  13  14
ENDBRANCH  12  13
ENDBRANCH  11  12
ENDBRANCH  10  11
ENDBRANCH   8   9
ENDBRANCH   7   8
ENDBRANCH   5   6
ENDBRANCH   4   5
ENDBRANCH   3   4
ENDBRANCH   2   3
TORSDOF 13
ENDMDL
MODEL      368
REMARK 921   NORMALIZED FREE ENERGY PREDICTED BY IDOCK:   -2.82 KCAL/MOL
REMARK 922        TOTAL FREE ENERGY PREDICTED BY IDOCK:   -6.71 KCAL/MOL
REMARK 923 INTER-LIGAND FREE ENERGY PREDICTED BY IDOCK:   -5.08 KCAL/MOL
REMARK 924 INTRA-LIGAND FREE ENERGY PREDICTED BY IDOCK:   -1.63 KCAL/MOL
REMARK 927      BINDING AFFINITY PREDICTED BY RF-SCORE:    0.00 PKD
ROOT
HETATM    1  C   UNL     1     -10.738  12.673  63.935  1.00  0.00    -0.465 C  
HETATM    2  C   UNL     1     -10.945  11.923  65.240  1.00  0.00    -0.354 C  
ENDROOT
BRANCH   2   3
HETATM    3  C   UNL     1      -9.659  11.246  65.694  1.00  0.00    -0.260 C  
BRANCH   3   4
HETATM    4  C   UNL     1      -9.509   9.864  65.060  1.00  0.00    -0.343 C  
BRANCH   4   5
HETATM    5  C   UNL     1      -9.906   8.792  66.066  1.00  0.00    -0.234 C  
BRANCH   5   6
HETATM    6  C   UNL     1      -9.756   9.230  67.492  1.00  0.00    -0.201 C  
HETATM    7  C   UNL     1      -8.866   8.673  68.329  1.00  0.00    -0.142 C  
BRANCH   7   8
HETATM    8  C   UNL     1      -7.946   7.547  67.958  1.00  0.00    -0.123 C  
BRANCH   8   9
HETATM    9  C   UNL     1      -8.332   6.266  68.634  1.00  0.00    -0.112 C  
HETATM   10  C   UNL     1      -7.639   5.704  69.637  1.00  0.00    -0.075 C  
BRANCH  10  11
HETATM   11  C   UNL     1      -6.371   6.298  70.171  1.00  0.00    -0.039 C  
BRANCH  11  12
HETATM   12  C   UNL     1      -6.445   6.635  71.651  1.00  0.00    -0.046 C  
BRANCH  12  13
HETATM   13  C   UNL     1      -7.906   6.734  72.082  1.00  0.00    -0.095 C  
BRANCH  13  14
HETATM   14  C   UNL     1      -8.382   8.178  72.032  1.00  0.00    -0.199 C  
BRANCH  14  15
HETATM   15  C   UNL     1      -9.785   8.322  72.613  1.00  0.00    -0.357 C  
BRANCH  15  16
HETATM   16  C   UNL     1     -10.692   9.055  71.629  1.00  0.00    -0.441 C  
BRANCH  16  17
HETATM   17  C   UNL     1     -12.064   8.399  71.529  1.00  0.00    -0.342 C  
HETATM   18  C   UNL     1     -13.172   9.401  71.746  1.00  0.00    -0.411 C  
HETATM   19  O   UNL     1     -13.022  10.590  71.974  1.00  0.00    -0.458 OA 
HETATM   20  O   UNL     1     -14.399   8.833  71.664  1.00  0.00    -0.381 OA 
ENDBRANCH  16  17
ENDBRANCH  15  16
ENDBRANCH  14  15
ENDBRANCH  13  14
ENDBRANCH  12  13
ENDBRANCH  11  12
ENDBRANCH  10  11
ENDBRANCH   8   9
ENDBRANCH   7   8
ENDBRANCH   5   6
ENDBRANCH   4   5
ENDBRANCH   3   4
ENDBRANCH   2   3
TORSDOF 13
ENDMDL
MODEL      369
REMARK 921   NORMALIZED FREE ENERGY PREDICTED BY IDOCK:   -2.81 KCAL/MOL
REMARK 922        TOTAL FREE ENERGY PREDICTED BY IDOCK:   -6.70 KCAL/MOL
REMARK 923 INTER-LIGAND FREE ENERGY PREDICTED BY IDOCK:   -5.03 KCAL/MOL
REMARK 924 INTRA-LIGAND FREE ENERGY PREDICTED BY IDOCK:   -1.67 KCAL/MOL
REMARK 927      BINDING AFFINITY PREDICTED BY RF-SCORE:    0.00 PKD
ROOT
HETATM    1  C   UNL     1     -10.600  19.643  66.166  1.00  0.00    -0.584 C  
HETATM    2  C   UNL     1      -9.118  19.643  66.499  1.00  0.00    -0.436 C  
ENDROOT
BRANCH   2   3
HETATM    3  C   UNL     1      -8.891  19.492  67.997  1.00  0.00    -0.368 C  
BRANCH   3   4
HETATM    4  C   UNL     1      -7.992  18.295  68.302  1.00  0.00    -0.312 C  
BRANCH   4   5
HETATM    5  C   UNL     1      -8.811  17.012  68.247  1.00  0.00    -0.242 C  
BRANCH   5   6
HETATM    6  C   UNL     1     -10.146  17.128  68.918  1.00  0.00    -0.322 C  
HETATM    7  C   UNL     1     -11.242  16.506  68.457  1.00  0.00    -0.296 C  
BRANCH   7   8
HETATM    8  C   UNL     1     -11.275  15.655  67.222  1.00  0.00    -0.184 C  
BRANCH   8   9
HETATM    9  C   UNL     1     -11.747  14.262  67.516  1.00  0.00    -0.415 C  
HETATM   10  C   UNL     1     -10.930  13.221  67.741  1.00  0.00    -0.278 C  
BRANCH  10  11
HETATM   11  C   UNL     1      -9.437  13.344  67.691  1.00  0.00    -0.216 C  
BRANCH  11  12
HETATM   12  C   UNL     1      -8.791  12.387  66.702  1.00  0.00    -0.156 C  
BRANCH  12  13
HETATM   13  C   UNL     1      -9.837  11.898  65.704  1.00  0.00    -0.266 C  
BRANCH  13  14
HETATM   14  C   UNL     1      -9.755  10.387  65.541  1.00  0.00    -0.307 C  
BRANCH  14  15
HETATM   15  C   UNL     1      -9.469   9.699  66.873  1.00  0.00    -0.198 C  
BRANCH  15  16
HETATM   16  C   UNL     1      -8.310   8.719  66.722  1.00  0.00    -0.108 C  
BRANCH  16  17
HETATM   17  C   UNL     1      -8.590   7.673  65.649  1.00  0.00    -0.142 C  
HETATM   18  C   UNL     1      -7.312   7.078  65.111  1.00  0.00    -0.081 C  
HETATM   19  O   UNL     1      -6.183   7.373  65.468  1.00  0.00    -0.037 OA 
HETATM   20  O   UNL     1      -7.543   6.148  64.153  1.00  0.00    -0.081 OA 
ENDBRANCH  16  17
ENDBRANCH  15  16
ENDBRANCH  14  15
ENDBRANCH  13  14
ENDBRANCH  12  13
ENDBRANCH  11  12
ENDBRANCH  10  11
ENDBRANCH   8   9
ENDBRANCH   7   8
ENDBRANCH   5   6
ENDBRANCH   4   5
ENDBRANCH   3   4
ENDBRANCH   2   3
TORSDOF 13
ENDMDL
MODEL      370
REMARK 921   NORMALIZED FREE ENERGY PREDICTED BY IDOCK:   -2.81 KCAL/MOL
REMARK 922        TOTAL FREE ENERGY PREDICTED BY IDOCK:   -6.69 KCAL/MOL
REMARK 923 INTER-LIGAND FREE ENERGY PREDICTED BY IDOCK:   -4.90 KCAL/MOL
REMARK 924 INTRA-LIGAND FREE ENERGY PREDICTED BY IDOCK:   -1.79 KCAL/MOL
REMARK 927      BINDING AFFINITY PREDICTED BY RF-SCORE:    0.00 PKD
ROOT
HETATM    1  C   UNL     1     -11.888  11.951  63.585  1.00  0.00    -0.573 C  
HETATM    2  C   UNL     1     -12.215  13.179  64.417  1.00  0.00    -0.462 C  
ENDROOT
BRANCH   2   3
HETATM    3  C   UNL     1     -10.995  13.656  65.195  1.00  0.00    -0.334 C  
BRANCH   3   4
HETATM    4  C   UNL     1     -11.109  13.295  66.675  1.00  0.00    -0.311 C  
BRANCH   4   5
HETATM    5  C   UNL     1     -11.345  14.557  67.493  1.00  0.00    -0.355 C  
BRANCH   5   6
HETATM    6  C   UNL     1     -10.780  15.792  66.860  1.00  0.00    -0.299 C  
HETATM    7  C   UNL     1      -9.691  16.415  67.338  1.00  0.00    -0.238 C  
BRANCH   7   8
HETATM    8  C   UNL     1      -8.934  15.978  68.558  1.00  0.00    -0.200 C  
BRANCH   8   9
HETATM    9  C   UNL     1      -7.483  15.744  68.260  1.00  0.00    -0.117 C  
HETATM   10  C   UNL     1      -7.002  14.631  67.683  1.00  0.00    -0.205 C  
BRANCH  10  11
HETATM   11  C   UNL     1      -7.880  13.480  67.299  1.00  0.00    -0.106 C  
BRANCH  11  12
HETATM   12  C   UNL     1      -7.280  12.127  67.648  1.00  0.00    -0.123 C  
BRANCH  12  13
HETATM   13  C   UNL     1      -7.485  11.160  66.485  1.00  0.00    -0.131 C  
BRANCH  13  14
HETATM   14  C   UNL     1      -8.371   9.997  66.907  1.00  0.00    -0.125 C  
BRANCH  14  15
HETATM   15  C   UNL     1      -9.796  10.168  66.390  1.00  0.00    -0.279 C  
BRANCH  15  16
HETATM   16  C   UNL     1     -10.762   9.326  67.218  1.00  0.00    -0.244 C  
BRANCH  16  17
HETATM   17  C   UNL     1     -10.659   9.647  68.705  1.00  0.00    -0.242 C  
HETATM   18  C   UNL     1     -10.238   8.437  69.502  1.00  0.00    -0.207 C  
HETATM   19  O   UNL     1     -10.003   7.330  69.047  1.00  0.00    -0.169 OA 
HETATM   20  O   UNL     1     -10.144   8.704  70.827  1.00  0.00    -0.184 OA 
ENDBRANCH  16  17
ENDBRANCH  15  16
ENDBRANCH  14  15
ENDBRANCH  13  14
ENDBRANCH  12  13
ENDBRANCH  11  12
ENDBRANCH  10  11
ENDBRANCH   8   9
ENDBRANCH   7   8
ENDBRANCH   5   6
ENDBRANCH   4   5
ENDBRANCH   3   4
ENDBRANCH   2   3
TORSDOF 13
ENDMDL
MODEL      371
REMARK 921   NORMALIZED FREE ENERGY PREDICTED BY IDOCK:   -2.81 KCAL/MOL
REMARK 922        TOTAL FREE ENERGY PREDICTED BY IDOCK:   -6.69 KCAL/MOL
REMARK 923 INTER-LIGAND FREE ENERGY PREDICTED BY IDOCK:   -5.02 KCAL/MOL
REMARK 924 INTRA-LIGAND FREE ENERGY PREDICTED BY IDOCK:   -1.67 KCAL/MOL
REMARK 927      BINDING AFFINITY PREDICTED BY RF-SCORE:    0.00 PKD
ROOT
HETATM    1  C   UNL     1      -9.597   9.953  65.136  1.00  0.00    -0.367 C  
HETATM    2  C   UNL     1      -9.751   9.454  66.561  1.00  0.00    -0.299 C  
ENDROOT
BRANCH   2   3
HETATM    3  C   UNL     1      -9.872   7.936  66.601  1.00  0.00    -0.311 C  
BRANCH   3   4
HETATM    4  C   UNL     1      -8.647   7.301  67.256  1.00  0.00    -0.121 C  
BRANCH   4   5
HETATM    5  C   UNL     1      -9.075   6.503  68.480  1.00  0.00    -0.127 C  
BRANCH   5   6
HETATM    6  C   UNL     1      -8.180   6.705  69.665  1.00  0.00    -0.127 C  
HETATM    7  C   UNL     1      -7.711   5.683  70.398  1.00  0.00    -0.094 C  
BRANCH   7   8
HETATM    8  C   UNL     1      -8.038   4.241  70.145  1.00  0.00    -0.060 C  
BRANCH   8   9
HETATM    9  C   UNL     1      -9.458   3.920  70.502  1.00  0.00    -0.251 C  
HETATM   10  C   UNL     1      -9.872   3.600  71.738  1.00  0.00    -0.235 C  
BRANCH  10  11
HETATM   11  C   UNL     1      -8.931   3.503  72.901  1.00  0.00    -0.109 C  
BRANCH  11  12
HETATM   12  C   UNL     1      -9.134   4.604  73.929  1.00  0.00    -0.111 C  
BRANCH  12  13
HETATM   13  C   UNL     1     -10.542   5.180  73.791  1.00  0.00    -0.331 C  
BRANCH  13  14
HETATM   14  C   UNL     1     -10.530   6.682  74.034  1.00  0.00    -0.309 C  
BRANCH  14  15
HETATM   15  C   UNL     1      -9.600   7.395  73.057  1.00  0.00    -0.242 C  
BRANCH  15  16
HETATM   16  C   UNL     1     -10.397   8.345  72.168  1.00  0.00    -0.397 C  
BRANCH  16  17
HETATM   17  C   UNL     1     -11.899   8.156  72.343  1.00  0.00    -0.448 C  
HETATM   18  C   UNL     1     -12.465   7.234  71.291  1.00  0.00    -0.366 C  
HETATM   19  O   UNL     1     -11.830   6.693  70.401  1.00  0.00    -0.396 OA 
HETATM   20  O   UNL     1     -13.801   7.057  71.431  1.00  0.00    -0.317 OA 
ENDBRANCH  16  17
ENDBRANCH  15  16
ENDBRANCH  14  15
ENDBRANCH  13  14
ENDBRANCH  12  13
ENDBRANCH  11  12
ENDBRANCH  10  11
ENDBRANCH   8   9
ENDBRANCH   7   8
ENDBRANCH   5   6
ENDBRANCH   4   5
ENDBRANCH   3   4
ENDBRANCH   2   3
TORSDOF 13
ENDMDL
MODEL      372
REMARK 921   NORMALIZED FREE ENERGY PREDICTED BY IDOCK:   -2.79 KCAL/MOL
REMARK 922        TOTAL FREE ENERGY PREDICTED BY IDOCK:   -6.66 KCAL/MOL
REMARK 923 INTER-LIGAND FREE ENERGY PREDICTED BY IDOCK:   -5.10 KCAL/MOL
REMARK 924 INTRA-LIGAND FREE ENERGY PREDICTED BY IDOCK:   -1.56 KCAL/MOL
REMARK 927      BINDING AFFINITY PREDICTED BY RF-SCORE:    0.00 PKD
ROOT
HETATM    1  C   UNL     1      -6.932   4.972  65.972  1.00  0.00    -0.066 C  
HETATM    2  C   UNL     1      -8.314   4.378  65.767  1.00  0.00    -0.113 C  
ENDROOT
BRANCH   2   3
HETATM    3  C   UNL     1      -9.398   5.433  65.945  1.00  0.00    -0.155 C  
BRANCH   3   4
HETATM    4  C   UNL     1      -9.665   5.706  67.424  1.00  0.00    -0.138 C  
BRANCH   4   5
HETATM    5  C   UNL     1      -9.524   7.196  67.704  1.00  0.00    -0.141 C  
BRANCH   5   6
HETATM    6  C   UNL     1      -9.401   8.026  66.463  1.00  0.00    -0.261 C  
HETATM    7  C   UNL     1     -10.002   9.219  66.329  1.00  0.00    -0.357 C  
BRANCH   7   8
HETATM    8  C   UNL     1     -10.879   9.846  67.372  1.00  0.00    -0.293 C  
BRANCH   8   9
HETATM    9  C   UNL     1     -10.405  11.218  67.748  1.00  0.00    -0.208 C  
HETATM   10  C   UNL     1     -10.914  12.355  67.249  1.00  0.00    -0.302 C  
BRANCH  10  11
HETATM   11  C   UNL     1     -12.008  12.365  66.225  1.00  0.00    -0.369 C  
BRANCH  11  12
HETATM   12  C   UNL     1     -11.501  12.593  64.810  1.00  0.00    -0.364 C  
BRANCH  12  13
HETATM   13  C   UNL     1     -10.473  13.722  64.809  1.00  0.00    -0.448 C  
BRANCH  13  14
HETATM   14  C   UNL     1     -11.165  15.074  64.717  1.00  0.00    -0.393 C  
BRANCH  14  15
HETATM   15  C   UNL     1     -10.443  16.127  65.553  1.00  0.00    -0.407 C  
BRANCH  15  16
HETATM   16  C   UNL     1     -10.744  15.921  67.035  1.00  0.00    -0.292 C  
BRANCH  16  17
HETATM   17  C   UNL     1      -9.777  16.699  67.920  1.00  0.00    -0.244 C  
HETATM   18  C   UNL     1      -8.665  15.815  68.431  1.00  0.00    -0.177 C  
HETATM   19  O   UNL     1      -8.529  14.628  68.186  1.00  0.00    -0.144 OA 
HETATM   20  O   UNL     1      -7.798  16.490  69.223  1.00  0.00    -0.229 OA 
ENDBRANCH  16  17
ENDBRANCH  15  16
ENDBRANCH  14  15
ENDBRANCH  13  14
ENDBRANCH  12  13
ENDBRANCH  11  12
ENDBRANCH  10  11
ENDBRANCH   8   9
ENDBRANCH   7   8
ENDBRANCH   5   6
ENDBRANCH   4   5
ENDBRANCH   3   4
ENDBRANCH   2   3
TORSDOF 13
ENDMDL
MODEL      373
REMARK 921   NORMALIZED FREE ENERGY PREDICTED BY IDOCK:   -2.77 KCAL/MOL
REMARK 922        TOTAL FREE ENERGY PREDICTED BY IDOCK:   -6.62 KCAL/MOL
REMARK 923 INTER-LIGAND FREE ENERGY PREDICTED BY IDOCK:   -3.96 KCAL/MOL
REMARK 924 INTRA-LIGAND FREE ENERGY PREDICTED BY IDOCK:   -2.66 KCAL/MOL
REMARK 927      BINDING AFFINITY PREDICTED BY RF-SCORE:    0.00 PKD
ROOT
HETATM    1  C   UNL     1     -10.938  11.655  66.474  1.00  0.00    -0.349 C  
HETATM    2  C   UNL     1     -11.266  11.063  67.834  1.00  0.00    -0.375 C  
ENDROOT
BRANCH   2   3
HETATM    3  C   UNL     1     -10.977   9.568  67.866  1.00  0.00    -0.172 C  
BRANCH   3   4
HETATM    4  C   UNL     1     -10.175   9.134  66.641  1.00  0.00    -0.328 C  
BRANCH   4   5
HETATM    5  C   UNL     1      -9.188   8.043  67.035  1.00  0.00    -0.181 C  
BRANCH   5   6
HETATM    6  C   UNL     1      -8.878   7.090  65.920  1.00  0.00    -0.126 C  
HETATM    7  C   UNL     1      -7.911   7.324  65.018  1.00  0.00    -0.129 C  
BRANCH   7   8
HETATM    8  C   UNL     1      -7.055   8.556  64.997  1.00  0.00    -0.079 C  
BRANCH   8   9
HETATM    9  C   UNL     1      -6.067   8.568  66.124  1.00  0.00    -0.052 C  
HETATM   10  C   UNL     1      -5.852   9.622  66.928  1.00  0.00    -0.051 C  
BRANCH  10  11
HETATM   11  C   UNL     1      -6.573  10.925  66.756  1.00  0.00    -0.116 C  
BRANCH  11  12
HETATM   12  C   UNL     1      -7.426  11.300  67.957  1.00  0.00    -0.095 C  
BRANCH  12  13
HETATM   13  C   UNL     1      -6.958  10.518  69.182  1.00  0.00    -0.080 C  
BRANCH  13  14
HETATM   14  C   UNL     1      -8.149   9.963  69.949  1.00  0.00    -0.200 C  
BRANCH  14  15
HETATM   15  C   UNL     1      -7.947   8.493  70.303  1.00  0.00    -0.103 C  
BRANCH  15  16
HETATM   16  C   UNL     1      -9.184   7.944  71.008  1.00  0.00    -0.164 C  
BRANCH  16  17
HETATM   17  C   UNL     1     -10.090   9.063  71.510  1.00  0.00    -0.409 C  
HETATM   18  C   UNL     1     -11.547   8.700  71.362  1.00  0.00    -0.293 C  
HETATM   19  O   UNL     1     -11.979   7.655  70.904  1.00  0.00    -0.291 OA 
HETATM   20  O   UNL     1     -12.367   9.685  71.801  1.00  0.00    -0.368 OA 
ENDBRANCH  16  17
ENDBRANCH  15  16
ENDBRANCH  14  15
ENDBRANCH  13  14
ENDBRANCH  12  13
ENDBRANCH  11  12
ENDBRANCH  10  11
ENDBRANCH   8   9
ENDBRANCH   7   8
ENDBRANCH   5   6
ENDBRANCH   4   5
ENDBRANCH   3   4
ENDBRANCH   2   3
TORSDOF 13
ENDMDL
MODEL      374
REMARK 921   NORMALIZED FREE ENERGY PREDICTED BY IDOCK:   -2.75 KCAL/MOL
REMARK 922        TOTAL FREE ENERGY PREDICTED BY IDOCK:   -6.59 KCAL/MOL
REMARK 923 INTER-LIGAND FREE ENERGY PREDICTED BY IDOCK:   -5.04 KCAL/MOL
REMARK 924 INTRA-LIGAND FREE ENERGY PREDICTED BY IDOCK:   -1.55 KCAL/MOL
REMARK 927      BINDING AFFINITY PREDICTED BY RF-SCORE:    0.00 PKD
ROOT
HETATM    1  C   UNL     1     -10.826   5.821  69.621  1.00  0.00    -0.418 C  
HETATM    2  C   UNL     1     -10.777   7.329  69.448  1.00  0.00    -0.236 C  
ENDROOT
BRANCH   2   3
HETATM    3  C   UNL     1     -10.605   8.030  70.789  1.00  0.00    -0.228 C  
BRANCH   3   4
HETATM    4  C   UNL     1      -9.139   8.043  71.221  1.00  0.00    -0.168 C  
BRANCH   4   5
HETATM    5  C   UNL     1      -8.245   8.158  69.994  1.00  0.00    -0.120 C  
BRANCH   5   6
HETATM    6  C   UNL     1      -7.225   9.252  70.101  1.00  0.00    -0.083 C  
HETATM    7  C   UNL     1      -7.471  10.510  69.703  1.00  0.00    -0.145 C  
BRANCH   7   8
HETATM    8  C   UNL     1      -8.761  10.966  69.088  1.00  0.00    -0.055 C  
BRANCH   8   9
HETATM    9  C   UNL     1      -8.729  10.872  67.592  1.00  0.00    -0.127 C  
HETATM   10  C   UNL     1      -9.801  10.601  66.830  1.00  0.00    -0.228 C  
BRANCH  10  11
HETATM   11  C   UNL     1     -11.155  10.330  67.413  1.00  0.00    -0.261 C  
BRANCH  11  12
HETATM   12  C   UNL     1     -11.877  11.592  67.858  1.00  0.00    -0.255 C  
BRANCH  12  13
HETATM   13  C   UNL     1     -11.691  12.685  66.808  1.00  0.00    -0.460 C  
BRANCH  13  14
HETATM   14  C   UNL     1     -11.778  14.062  67.450  1.00  0.00    -0.421 C  
BRANCH  14  15
HETATM   15  C   UNL     1     -10.430  14.777  67.419  1.00  0.00    -0.256 C  
BRANCH  15  16
HETATM   16  C   UNL     1     -10.561  16.177  68.011  1.00  0.00    -0.304 C  
BRANCH  16  17
HETATM   17  C   UNL     1      -9.232  16.923  67.994  1.00  0.00    -0.235 C  
HETATM   18  C   UNL     1      -9.126  17.835  66.796  1.00  0.00    -0.262 C  
HETATM   19  O   UNL     1      -9.977  17.980  65.934  1.00  0.00    -0.541 OA 
HETATM   20  O   UNL     1      -7.949  18.504  66.764  1.00  0.00    -0.236 OA 
ENDBRANCH  16  17
ENDBRANCH  15  16
ENDBRANCH  14  15
ENDBRANCH  13  14
ENDBRANCH  12  13
ENDBRANCH  11  12
ENDBRANCH  10  11
ENDBRANCH   8   9
ENDBRANCH   7   8
ENDBRANCH   5   6
ENDBRANCH   4   5
ENDBRANCH   3   4
ENDBRANCH   2   3
TORSDOF 13
ENDMDL
MODEL      375
REMARK 921   NORMALIZED FREE ENERGY PREDICTED BY IDOCK:   -2.75 KCAL/MOL
REMARK 922        TOTAL FREE ENERGY PREDICTED BY IDOCK:   -6.59 KCAL/MOL
REMARK 923 INTER-LIGAND FREE ENERGY PREDICTED BY IDOCK:   -4.85 KCAL/MOL
REMARK 924 INTRA-LIGAND FREE ENERGY PREDICTED BY IDOCK:   -1.74 KCAL/MOL
REMARK 927      BINDING AFFINITY PREDICTED BY RF-SCORE:    0.00 PKD
ROOT
HETATM    1  C   UNL     1     -11.999  12.283  63.397  1.00  0.00    -0.588 C  
HETATM    2  C   UNL     1     -12.868  12.724  64.562  1.00  0.00    -0.323 C  
ENDROOT
BRANCH   2   3
HETATM    3  C   UNL     1     -12.048  13.469  65.607  1.00  0.00    -0.467 C  
BRANCH   3   4
HETATM    4  C   UNL     1     -11.913  12.649  66.889  1.00  0.00    -0.345 C  
BRANCH   4   5
HETATM    5  C   UNL     1     -11.844  13.583  68.090  1.00  0.00    -0.400 C  
BRANCH   5   6
HETATM    6  C   UNL     1     -11.547  15.005  67.722  1.00  0.00    -0.336 C  
HETATM    7  C   UNL     1     -10.359  15.581  67.965  1.00  0.00    -0.247 C  
BRANCH   7   8
HETATM    8  C   UNL     1      -9.211  14.896  68.646  1.00  0.00    -0.193 C  
BRANCH   8   9
HETATM    9  C   UNL     1      -8.203  14.383  67.661  1.00  0.00    -0.185 C  
HETATM   10  C   UNL     1      -7.812  13.102  67.581  1.00  0.00    -0.169 C  
BRANCH  10  11
HETATM   11  C   UNL     1      -8.333  12.042  68.505  1.00  0.00    -0.104 C  
BRANCH  11  12
HETATM   12  C   UNL     1      -7.240  11.143  69.060  1.00  0.00    -0.118 C  
BRANCH  12  13
HETATM   13  C   UNL     1      -7.344   9.758  68.425  1.00  0.00    -0.078 C  
BRANCH  13  14
HETATM   14  C   UNL     1      -7.411   8.682  69.500  1.00  0.00    -0.072 C  
BRANCH  14  15
HETATM   15  C   UNL     1      -8.776   8.661  70.181  1.00  0.00    -0.144 C  
BRANCH  15  16
HETATM   16  C   UNL     1      -9.887   8.614  69.137  1.00  0.00    -0.185 C  
BRANCH  16  17
HETATM   17  C   UNL     1     -10.176   7.187  68.683  1.00  0.00    -0.186 C  
HETATM   18  C   UNL     1     -10.245   7.091  67.179  1.00  0.00    -0.248 C  
HETATM   19  O   UNL     1     -10.094   8.016  66.397  1.00  0.00    -0.227 OA 
HETATM   20  O   UNL     1     -10.504   5.829  66.758  1.00  0.00    -0.234 OA 
ENDBRANCH  16  17
ENDBRANCH  15  16
ENDBRANCH  14  15
ENDBRANCH  13  14
ENDBRANCH  12  13
ENDBRANCH  11  12
ENDBRANCH  10  11
ENDBRANCH   8   9
ENDBRANCH   7   8
ENDBRANCH   5   6
ENDBRANCH   4   5
ENDBRANCH   3   4
ENDBRANCH   2   3
TORSDOF 13
ENDMDL
MODEL      376
REMARK 921   NORMALIZED FREE ENERGY PREDICTED BY IDOCK:   -2.75 KCAL/MOL
REMARK 922        TOTAL FREE ENERGY PREDICTED BY IDOCK:   -6.59 KCAL/MOL
REMARK 923 INTER-LIGAND FREE ENERGY PREDICTED BY IDOCK:   -5.45 KCAL/MOL
REMARK 924 INTRA-LIGAND FREE ENERGY PREDICTED BY IDOCK:   -1.14 KCAL/MOL
REMARK 927      BINDING AFFINITY PREDICTED BY RF-SCORE:    0.00 PKD
ROOT
HETATM    1  C   UNL     1     -10.645  19.831  65.956  1.00  0.00    -0.573 C  
HETATM    2  C   UNL     1     -10.886  19.428  67.400  1.00  0.00    -0.555 C  
ENDROOT
BRANCH   2   3
HETATM    3  C   UNL     1      -9.920  18.332  67.833  1.00  0.00    -0.359 C  
BRANCH   3   4
HETATM    4  C   UNL     1     -10.060  17.093  66.951  1.00  0.00    -0.298 C  
BRANCH   4   5
HETATM    5  C   UNL     1      -8.740  16.814  66.244  1.00  0.00    -0.342 C  
BRANCH   5   6
HETATM    6  C   UNL     1      -7.683  17.837  66.533  1.00  0.00    -0.298 C  
HETATM    7  C   UNL     1      -6.509  17.521  67.103  1.00  0.00    -0.190 C  
BRANCH   7   8
HETATM    8  C   UNL     1      -6.126  16.138  67.539  1.00  0.00    -0.190 C  
BRANCH   8   9
HETATM    9  C   UNL     1      -6.910  15.694  68.738  1.00  0.00    -0.118 C  
HETATM   10  C   UNL     1      -6.867  14.454  69.250  1.00  0.00    -0.129 C  
BRANCH  10  11
HETATM   11  C   UNL     1      -6.037  13.362  68.646  1.00  0.00    -0.086 C  
BRANCH  11  12
HETATM   12  C   UNL     1      -6.726  12.658  67.488  1.00  0.00    -0.156 C  
BRANCH  12  13
HETATM   13  C   UNL     1      -8.196  12.428  67.830  1.00  0.00    -0.163 C  
BRANCH  13  14
HETATM   14  C   UNL     1      -8.743  11.234  67.062  1.00  0.00    -0.152 C  
BRANCH  14  15
HETATM   15  C   UNL     1     -10.130  10.840  67.561  1.00  0.00    -0.218 C  
BRANCH  15  16
HETATM   16  C   UNL     1     -10.616  11.835  68.611  1.00  0.00    -0.250 C  
BRANCH  16  17
HETATM   17  C   UNL     1     -12.032  11.517  69.078  1.00  0.00    -0.377 C  
HETATM   18  C   UNL     1     -12.024  10.660  70.320  1.00  0.00    -0.339 C  
HETATM   19  O   UNL     1     -11.030  10.256  70.901  1.00  0.00    -0.281 OA 
HETATM   20  O   UNL     1     -13.275  10.365  70.747  1.00  0.00    -0.375 OA 
ENDBRANCH  16  17
ENDBRANCH  15  16
ENDBRANCH  14  15
ENDBRANCH  13  14
ENDBRANCH  12  13
ENDBRANCH  11  12
ENDBRANCH  10  11
ENDBRANCH   8   9
ENDBRANCH   7   8
ENDBRANCH   5   6
ENDBRANCH   4   5
ENDBRANCH   3   4
ENDBRANCH   2   3
TORSDOF 13
ENDMDL
MODEL      377
REMARK 921   NORMALIZED FREE ENERGY PREDICTED BY IDOCK:   -2.75 KCAL/MOL
REMARK 922        TOTAL FREE ENERGY PREDICTED BY IDOCK:   -6.58 KCAL/MOL
REMARK 923 INTER-LIGAND FREE ENERGY PREDICTED BY IDOCK:   -5.05 KCAL/MOL
REMARK 924 INTRA-LIGAND FREE ENERGY PREDICTED BY IDOCK:   -1.53 KCAL/MOL
REMARK 927      BINDING AFFINITY PREDICTED BY RF-SCORE:    0.00 PKD
ROOT
HETATM    1  C   UNL     1      -7.217   2.699  64.622  1.00  0.00    -0.054 C  
HETATM    2  C   UNL     1      -8.537   3.446  64.553  1.00  0.00    -0.093 C  
ENDROOT
BRANCH   2   3
HETATM    3  C   UNL     1      -8.380   4.884  65.029  1.00  0.00    -0.136 C  
BRANCH   3   4
HETATM    4  C   UNL     1      -9.470   5.257  66.032  1.00  0.00    -0.169 C  
BRANCH   4   5
HETATM    5  C   UNL     1      -9.346   6.729  66.401  1.00  0.00    -0.175 C  
BRANCH   5   6
HETATM    6  C   UNL     1     -10.322   7.163  67.453  1.00  0.00    -0.324 C  
HETATM    7  C   UNL     1     -10.034   7.127  68.763  1.00  0.00    -0.163 C  
BRANCH   7   8
HETATM    8  C   UNL     1      -8.737   6.633  69.332  1.00  0.00    -0.135 C  
BRANCH   8   9
HETATM    9  C   UNL     1      -7.794   7.759  69.634  1.00  0.00    -0.107 C  
HETATM   10  C   UNL     1      -7.364   8.073  70.865  1.00  0.00    -0.058 C  
BRANCH  10  11
HETATM   11  C   UNL     1      -7.814   7.332  72.088  1.00  0.00    -0.092 C  
BRANCH  11  12
HETATM   12  C   UNL     1      -8.648   8.184  73.031  1.00  0.00    -0.284 C  
BRANCH  12  13
HETATM   13  C   UNL     1      -9.921   8.638  72.321  1.00  0.00    -0.361 C  
BRANCH  13  14
HETATM   14  C   UNL     1     -11.091   7.739  72.694  1.00  0.00    -0.433 C  
BRANCH  14  15
HETATM   15  C   UNL     1     -12.188   7.786  71.635  1.00  0.00    -0.341 C  
BRANCH  15  16
HETATM   16  C   UNL     1     -12.245   9.170  70.995  1.00  0.00    -0.302 C  
BRANCH  16  17
HETATM   17  C   UNL     1     -13.085  10.139  71.820  1.00  0.00    -0.568 C  
HETATM   18  C   UNL     1     -12.796  11.573  71.447  1.00  0.00    -0.384 C  
HETATM   19  O   UNL     1     -12.000  11.943  70.601  1.00  0.00    -0.342 OA 
HETATM   20  O   UNL     1     -13.533  12.448  72.174  1.00  0.00    -0.525 OA 
ENDBRANCH  16  17
ENDBRANCH  15  16
ENDBRANCH  14  15
ENDBRANCH  13  14
ENDBRANCH  12  13
ENDBRANCH  11  12
ENDBRANCH  10  11
ENDBRANCH   8   9
ENDBRANCH   7   8
ENDBRANCH   5   6
ENDBRANCH   4   5
ENDBRANCH   3   4
ENDBRANCH   2   3
TORSDOF 13
ENDMDL
MODEL      378
REMARK 921   NORMALIZED FREE ENERGY PREDICTED BY IDOCK:   -2.75 KCAL/MOL
REMARK 922        TOTAL FREE ENERGY PREDICTED BY IDOCK:   -6.58 KCAL/MOL
REMARK 923 INTER-LIGAND FREE ENERGY PREDICTED BY IDOCK:   -5.54 KCAL/MOL
REMARK 924 INTRA-LIGAND FREE ENERGY PREDICTED BY IDOCK:   -1.04 KCAL/MOL
REMARK 927      BINDING AFFINITY PREDICTED BY RF-SCORE:    0.00 PKD
ROOT
HETATM    1  C   UNL     1      -8.805   1.949  64.191  1.00  0.00    -0.099 C  
HETATM    2  C   UNL     1      -9.680   3.080  64.701  1.00  0.00    -0.106 C  
ENDROOT
BRANCH   2   3
HETATM    3  C   UNL     1      -9.084   3.715  65.951  1.00  0.00    -0.153 C  
BRANCH   3   4
HETATM    4  C   UNL     1      -9.957   4.861  66.458  1.00  0.00    -0.256 C  
BRANCH   4   5
HETATM    5  C   UNL     1      -9.075   6.012  66.922  1.00  0.00    -0.126 C  
BRANCH   5   6
HETATM    6  C   UNL     1      -9.612   7.361  66.551  1.00  0.00    -0.228 C  
HETATM    7  C   UNL     1     -10.196   8.176  67.443  1.00  0.00    -0.327 C  
BRANCH   7   8
HETATM    8  C   UNL     1     -10.406   7.835  68.889  1.00  0.00    -0.224 C  
BRANCH   8   9
HETATM    9  C   UNL     1      -9.707   8.801  69.797  1.00  0.00    -0.179 C  
HETATM   10  C   UNL     1     -10.337   9.656  70.618  1.00  0.00    -0.365 C  
BRANCH  10  11
HETATM   11  C   UNL     1     -11.831   9.752  70.687  1.00  0.00    -0.360 C  
BRANCH  11  12
HETATM   12  C   UNL     1     -12.342  11.183  70.652  1.00  0.00    -0.482 C  
BRANCH  12  13
HETATM   13  C   UNL     1     -11.986  11.821  69.311  1.00  0.00    -0.354 C  
BRANCH  13  14
HETATM   14  C   UNL     1     -11.387  13.204  69.520  1.00  0.00    -0.227 C  
BRANCH  14  15
HETATM   15  C   UNL     1     -11.814  14.168  68.416  1.00  0.00    -0.388 C  
BRANCH  15  16
HETATM   16  C   UNL     1     -10.605  14.586  67.584  1.00  0.00    -0.251 C  
BRANCH  16  17
HETATM   17  C   UNL     1     -10.198  13.501  66.594  1.00  0.00    -0.275 C  
HETATM   18  C   UNL     1     -10.598  13.863  65.184  1.00  0.00    -0.379 C  
HETATM   19  O   UNL     1     -11.174  14.884  64.847  1.00  0.00    -0.378 OA 
HETATM   20  O   UNL     1     -10.247  12.907  64.291  1.00  0.00    -0.378 OA 
ENDBRANCH  16  17
ENDBRANCH  15  16
ENDBRANCH  14  15
ENDBRANCH  13  14
ENDBRANCH  12  13
ENDBRANCH  11  12
ENDBRANCH  10  11
ENDBRANCH   8   9
ENDBRANCH   7   8
ENDBRANCH   5   6
ENDBRANCH   4   5
ENDBRANCH   3   4
ENDBRANCH   2   3
TORSDOF 13
ENDMDL
MODEL      379
REMARK 921   NORMALIZED FREE ENERGY PREDICTED BY IDOCK:   -2.74 KCAL/MOL
REMARK 922        TOTAL FREE ENERGY PREDICTED BY IDOCK:   -6.57 KCAL/MOL
REMARK 923 INTER-LIGAND FREE ENERGY PREDICTED BY IDOCK:   -4.79 KCAL/MOL
REMARK 924 INTRA-LIGAND FREE ENERGY PREDICTED BY IDOCK:   -1.78 KCAL/MOL
REMARK 927      BINDING AFFINITY PREDICTED BY RF-SCORE:    0.00 PKD
ROOT
HETATM    1  C   UNL     1     -10.595  12.713  64.262  1.00  0.00    -0.408 C  
HETATM    2  C   UNL     1     -10.754  12.126  65.654  1.00  0.00    -0.312 C  
ENDROOT
BRANCH   2   3
HETATM    3  C   UNL     1      -9.426  11.601  66.183  1.00  0.00    -0.240 C  
BRANCH   3   4
HETATM    4  C   UNL     1      -9.139  10.195  65.659  1.00  0.00    -0.216 C  
BRANCH   4   5
HETATM    5  C   UNL     1     -10.071   9.197  66.334  1.00  0.00    -0.345 C  
BRANCH   5   6
HETATM    6  C   UNL     1      -9.437   8.478  67.487  1.00  0.00    -0.182 C  
HETATM    7  C   UNL     1      -8.988   7.217  67.391  1.00  0.00    -0.122 C  
BRANCH   7   8
HETATM    8  C   UNL     1      -9.084   6.376  66.153  1.00  0.00    -0.150 C  
BRANCH   8   9
HETATM    9  C   UNL     1     -10.203   5.381  66.239  1.00  0.00    -0.234 C  
HETATM   10  C   UNL     1     -10.027   4.053  66.320  1.00  0.00    -0.125 C  
BRANCH  10  11
HETATM   11  C   UNL     1      -8.669   3.419  66.302  1.00  0.00    -0.126 C  
BRANCH  11  12
HETATM   12  C   UNL     1      -8.388   2.569  67.531  1.00  0.00    -0.094 C  
BRANCH  12  13
HETATM   13  C   UNL     1      -9.393   2.910  68.629  1.00  0.00    -0.239 C  
BRANCH  13  14
HETATM   14  C   UNL     1      -8.821   3.963  69.568  1.00  0.00    -0.144 C  
BRANCH  14  15
HETATM   15  C   UNL     1      -9.855   4.411  70.596  1.00  0.00    -0.280 C  
BRANCH  15  16
HETATM   16  C   UNL     1      -9.945   5.934  70.626  1.00  0.00    -0.242 C  
BRANCH  16  17
HETATM   17  C   UNL     1     -11.330   6.426  70.220  1.00  0.00    -0.468 C  
HETATM   18  C   UNL     1     -12.169   6.768  71.427  1.00  0.00    -0.363 C  
HETATM   19  O   UNL     1     -11.814   6.675  72.591  1.00  0.00    -0.162 OA 
HETATM   20  O   UNL     1     -13.405   7.204  71.085  1.00  0.00    -0.331 OA 
ENDBRANCH  16  17
ENDBRANCH  15  16
ENDBRANCH  14  15
ENDBRANCH  13  14
ENDBRANCH  12  13
ENDBRANCH  11  12
ENDBRANCH  10  11
ENDBRANCH   8   9
ENDBRANCH   7   8
ENDBRANCH   5   6
ENDBRANCH   4   5
ENDBRANCH   3   4
ENDBRANCH   2   3
TORSDOF 13
ENDMDL
MODEL      380
REMARK 921   NORMALIZED FREE ENERGY PREDICTED BY IDOCK:   -2.74 KCAL/MOL
REMARK 922        TOTAL FREE ENERGY PREDICTED BY IDOCK:   -6.56 KCAL/MOL
REMARK 923 INTER-LIGAND FREE ENERGY PREDICTED BY IDOCK:   -5.27 KCAL/MOL
REMARK 924 INTRA-LIGAND FREE ENERGY PREDICTED BY IDOCK:   -1.29 KCAL/MOL
REMARK 927      BINDING AFFINITY PREDICTED BY RF-SCORE:    0.00 PKD
ROOT
HETATM    1  C   UNL     1      -5.389  12.569  70.671  1.00  0.00    -0.157 C  
HETATM    2  C   UNL     1      -5.849  11.124  70.592  1.00  0.00    -0.103 C  
ENDROOT
BRANCH   2   3
HETATM    3  C   UNL     1      -6.384  10.793  69.205  1.00  0.00    -0.055 C  
BRANCH   3   4
HETATM    4  C   UNL     1      -7.667  11.566  68.908  1.00  0.00    -0.088 C  
BRANCH   4   5
HETATM    5  C   UNL     1      -8.461  10.846  67.826  1.00  0.00    -0.124 C  
BRANCH   5   6
HETATM    6  C   UNL     1      -9.717  10.206  68.335  1.00  0.00    -0.157 C  
HETATM    7  C   UNL     1     -10.939  10.658  68.014  1.00  0.00    -0.336 C  
BRANCH   7   8
HETATM    8  C   UNL     1     -11.197  11.854  67.145  1.00  0.00    -0.377 C  
BRANCH   8   9
HETATM    9  C   UNL     1     -12.068  12.864  67.830  1.00  0.00    -0.218 C  
HETATM   10  C   UNL     1     -11.606  13.960  68.452  1.00  0.00    -0.368 C  
BRANCH  10  11
HETATM   11  C   UNL     1     -10.143  14.272  68.551  1.00  0.00    -0.246 C  
BRANCH  11  12
HETATM   12  C   UNL     1      -9.526  14.674  67.222  1.00  0.00    -0.221 C  
BRANCH  12  13
HETATM   13  C   UNL     1      -9.049  16.123  67.296  1.00  0.00    -0.215 C  
BRANCH  13  14
HETATM   14  C   UNL     1     -10.192  17.079  66.989  1.00  0.00    -0.303 C  
BRANCH  14  15
HETATM   15  C   UNL     1     -10.060  18.376  67.782  1.00  0.00    -0.377 C  
BRANCH  15  16
HETATM   16  C   UNL     1     -10.053  19.573  66.836  1.00  0.00    -0.511 C  
BRANCH  16  17
HETATM   17  C   UNL     1      -8.872  20.500  67.108  1.00  0.00    -0.399 C  
HETATM   18  C   UNL     1      -7.652  20.081  66.324  1.00  0.00    -0.303 C  
HETATM   19  O   UNL     1      -7.584  19.130  65.564  1.00  0.00    -0.452 OA 
HETATM   20  O   UNL     1      -6.592  20.893  66.557  1.00  0.00    -0.265 OA 
ENDBRANCH  16  17
ENDBRANCH  15  16
ENDBRANCH  14  15
ENDBRANCH  13  14
ENDBRANCH  12  13
ENDBRANCH  11  12
ENDBRANCH  10  11
ENDBRANCH   8   9
ENDBRANCH   7   8
ENDBRANCH   5   6
ENDBRANCH   4   5
ENDBRANCH   3   4
ENDBRANCH   2   3
TORSDOF 13
ENDMDL
MODEL      381
REMARK 921   NORMALIZED FREE ENERGY PREDICTED BY IDOCK:   -2.73 KCAL/MOL
REMARK 922        TOTAL FREE ENERGY PREDICTED BY IDOCK:   -6.55 KCAL/MOL
REMARK 923 INTER-LIGAND FREE ENERGY PREDICTED BY IDOCK:   -4.53 KCAL/MOL
REMARK 924 INTRA-LIGAND FREE ENERGY PREDICTED BY IDOCK:   -2.02 KCAL/MOL
REMARK 927      BINDING AFFINITY PREDICTED BY RF-SCORE:    0.00 PKD
ROOT
HETATM    1  C   UNL     1     -12.504  13.257  65.170  1.00  0.00    -0.525 C  
HETATM    2  C   UNL     1     -11.177  13.978  65.012  1.00  0.00    -0.352 C  
ENDROOT
BRANCH   2   3
HETATM    3  C   UNL     1     -10.982  15.016  66.109  1.00  0.00    -0.334 C  
BRANCH   3   4
HETATM    4  C   UNL     1     -10.277  14.412  67.322  1.00  0.00    -0.252 C  
BRANCH   4   5
HETATM    5  C   UNL     1      -9.409  13.241  66.879  1.00  0.00    -0.244 C  
BRANCH   5   6
HETATM    6  C   UNL     1      -9.046  12.313  67.999  1.00  0.00    -0.191 C  
HETATM    7  C   UNL     1      -9.377  11.012  67.994  1.00  0.00    -0.163 C  
BRANCH   7   8
HETATM    8  C   UNL     1     -10.160  10.342  66.904  1.00  0.00    -0.269 C  
BRANCH   8   9
HETATM    9  C   UNL     1     -10.548   8.942  67.274  1.00  0.00    -0.304 C  
HETATM   10  C   UNL     1      -9.896   7.844  66.861  1.00  0.00    -0.309 C  
BRANCH  10  11
HETATM   11  C   UNL     1      -8.710   7.909  65.946  1.00  0.00    -0.180 C  
BRANCH  11  12
HETATM   12  C   UNL     1      -7.462   7.278  66.540  1.00  0.00    -0.088 C  
BRANCH  12  13
HETATM   13  C   UNL     1      -6.936   8.153  67.676  1.00  0.00    -0.078 C  
BRANCH  13  14
HETATM   14  C   UNL     1      -6.679   7.315  68.920  1.00  0.00    -0.060 C  
BRANCH  14  15
HETATM   15  C   UNL     1      -7.836   6.360  69.196  1.00  0.00    -0.109 C  
BRANCH  15  16
HETATM   16  C   UNL     1      -8.482   6.687  70.538  1.00  0.00    -0.138 C  
BRANCH  16  17
HETATM   17  C   UNL     1      -9.839   7.359  70.363  1.00  0.00    -0.183 C  
HETATM   18  C   UNL     1      -9.811   8.790  70.841  1.00  0.00    -0.222 C  
HETATM   19  O   UNL     1      -8.844   9.365  71.312  1.00  0.00    -0.287 OA 
HETATM   20  O   UNL     1     -11.011   9.402  70.696  1.00  0.00    -0.244 OA 
ENDBRANCH  16  17
ENDBRANCH  15  16
ENDBRANCH  14  15
ENDBRANCH  13  14
ENDBRANCH  12  13
ENDBRANCH  11  12
ENDBRANCH  10  11
ENDBRANCH   8   9
ENDBRANCH   7   8
ENDBRANCH   5   6
ENDBRANCH   4   5
ENDBRANCH   3   4
ENDBRANCH   2   3
TORSDOF 13
ENDMDL
MODEL      382
REMARK 921   NORMALIZED FREE ENERGY PREDICTED BY IDOCK:   -2.73 KCAL/MOL
REMARK 922        TOTAL FREE ENERGY PREDICTED BY IDOCK:   -6.55 KCAL/MOL
REMARK 923 INTER-LIGAND FREE ENERGY PREDICTED BY IDOCK:   -4.93 KCAL/MOL
REMARK 924 INTRA-LIGAND FREE ENERGY PREDICTED BY IDOCK:   -1.62 KCAL/MOL
REMARK 927      BINDING AFFINITY PREDICTED BY RF-SCORE:    0.00 PKD
ROOT
HETATM    1  C   UNL     1     -12.046  10.644  70.088  1.00  0.00    -0.414 C  
HETATM    2  C   UNL     1     -13.145  10.341  71.091  1.00  0.00    -0.481 C  
ENDROOT
BRANCH   2   3
HETATM    3  C   UNL     1     -12.698   9.286  72.094  1.00  0.00    -0.465 C  
BRANCH   3   4
HETATM    4  C   UNL     1     -12.570   7.915  71.432  1.00  0.00    -0.319 C  
BRANCH   4   5
HETATM    5  C   UNL     1     -11.251   7.271  71.838  1.00  0.00    -0.281 C  
BRANCH   5   6
HETATM    6  C   UNL     1     -10.310   8.219  72.519  1.00  0.00    -0.401 C  
HETATM    7  C   UNL     1      -9.162   8.625  71.955  1.00  0.00    -0.345 C  
BRANCH   7   8
HETATM    8  C   UNL     1      -8.671   8.171  70.612  1.00  0.00    -0.136 C  
BRANCH   8   9
HETATM    9  C   UNL     1      -8.906   9.205  69.552  1.00  0.00    -0.149 C  
HETATM   10  C   UNL     1      -8.085  10.239  69.312  1.00  0.00    -0.156 C  
BRANCH  10  11
HETATM   11  C   UNL     1      -6.842  10.482  70.113  1.00  0.00    -0.145 C  
BRANCH  11  12
HETATM   12  C   UNL     1      -6.024  11.659  69.607  1.00  0.00    -0.106 C  
BRANCH  12  13
HETATM   13  C   UNL     1      -6.207  11.798  68.097  1.00  0.00    -0.050 C  
BRANCH  13  14
HETATM   14  C   UNL     1      -6.285  13.265  67.701  1.00  0.00    -0.153 C  
BRANCH  14  15
HETATM   15  C   UNL     1      -6.579  14.152  68.908  1.00  0.00    -0.099 C  
BRANCH  15  16
HETATM   16  C   UNL     1      -7.708  15.126  68.584  1.00  0.00    -0.126 C  
BRANCH  16  17
HETATM   17  C   UNL     1      -8.235  14.928  67.167  1.00  0.00    -0.244 C  
HETATM   18  C   UNL     1      -9.010  16.134  66.695  1.00  0.00    -0.255 C  
HETATM   19  O   UNL     1      -9.208  17.151  67.338  1.00  0.00    -0.229 OA 
HETATM   20  O   UNL     1      -9.489  15.974  65.437  1.00  0.00    -0.378 OA 
ENDBRANCH  16  17
ENDBRANCH  15  16
ENDBRANCH  14  15
ENDBRANCH  13  14
ENDBRANCH  12  13
ENDBRANCH  11  12
ENDBRANCH  10  11
ENDBRANCH   8   9
ENDBRANCH   7   8
ENDBRANCH   5   6
ENDBRANCH   4   5
ENDBRANCH   3   4
ENDBRANCH   2   3
TORSDOF 13
ENDMDL
MODEL      383
REMARK 921   NORMALIZED FREE ENERGY PREDICTED BY IDOCK:   -2.73 KCAL/MOL
REMARK 922        TOTAL FREE ENERGY PREDICTED BY IDOCK:   -6.55 KCAL/MOL
REMARK 923 INTER-LIGAND FREE ENERGY PREDICTED BY IDOCK:   -4.92 KCAL/MOL
REMARK 924 INTRA-LIGAND FREE ENERGY PREDICTED BY IDOCK:   -1.63 KCAL/MOL
REMARK 927      BINDING AFFINITY PREDICTED BY RF-SCORE:    0.00 PKD
ROOT
HETATM    1  C   UNL     1      -5.300  12.569  70.897  1.00  0.00    -0.166 C  
HETATM    2  C   UNL     1      -5.126  11.060  70.886  1.00  0.00    -0.103 C  
ENDROOT
BRANCH   2   3
HETATM    3  C   UNL     1      -5.395  10.486  69.501  1.00  0.00    -0.038 C  
BRANCH   3   4
HETATM    4  C   UNL     1      -6.850  10.701  69.088  1.00  0.00    -0.079 C  
BRANCH   4   5
HETATM    5  C   UNL     1      -7.164   9.859  67.859  1.00  0.00    -0.087 C  
BRANCH   5   6
HETATM    6  C   UNL     1      -8.181   8.788  68.116  1.00  0.00    -0.114 C  
HETATM    7  C   UNL     1      -9.409   8.813  67.575  1.00  0.00    -0.161 C  
BRANCH   7   8
HETATM    8  C   UNL     1      -9.918   9.908  66.684  1.00  0.00    -0.277 C  
BRANCH   8   9
HETATM    9  C   UNL     1     -11.272  10.391  67.113  1.00  0.00    -0.086 C  
HETATM   10  C   UNL     1     -11.474  11.382  67.995  1.00  0.00    -0.377 C  
BRANCH  10  11
HETATM   11  C   UNL     1     -10.347  12.097  68.676  1.00  0.00    -0.211 C  
BRANCH  11  12
HETATM   12  C   UNL     1      -9.592  13.039  67.752  1.00  0.00    -0.208 C  
BRANCH  12  13
HETATM   13  C   UNL     1      -9.683  14.465  68.290  1.00  0.00    -0.222 C  
BRANCH  13  14
HETATM   14  C   UNL     1     -11.047  15.066  67.984  1.00  0.00    -0.304 C  
BRANCH  14  15
HETATM   15  C   UNL     1     -11.581  15.866  69.169  1.00  0.00    -0.382 C  
BRANCH  15  16
HETATM   16  C   UNL     1     -11.028  15.306  70.476  1.00  0.00    -0.318 C  
BRANCH  16  17
HETATM   17  C   UNL     1     -12.043  15.411  71.609  1.00  0.00    -0.449 C  
HETATM   18  C   UNL     1     -12.764  14.103  71.825  1.00  0.00    -0.337 C  
HETATM   19  O   UNL     1     -12.582  13.075  71.193  1.00  0.00    -0.371 OA 
HETATM   20  O   UNL     1     -13.672  14.179  72.827  1.00  0.00    -0.628 OA 
ENDBRANCH  16  17
ENDBRANCH  15  16
ENDBRANCH  14  15
ENDBRANCH  13  14
ENDBRANCH  12  13
ENDBRANCH  11  12
ENDBRANCH  10  11
ENDBRANCH   8   9
ENDBRANCH   7   8
ENDBRANCH   5   6
ENDBRANCH   4   5
ENDBRANCH   3   4
ENDBRANCH   2   3
TORSDOF 13
ENDMDL
MODEL      384
REMARK 921   NORMALIZED FREE ENERGY PREDICTED BY IDOCK:   -2.72 KCAL/MOL
REMARK 922        TOTAL FREE ENERGY PREDICTED BY IDOCK:   -6.53 KCAL/MOL
REMARK 923 INTER-LIGAND FREE ENERGY PREDICTED BY IDOCK:   -4.85 KCAL/MOL
REMARK 924 INTRA-LIGAND FREE ENERGY PREDICTED BY IDOCK:   -1.68 KCAL/MOL
REMARK 927      BINDING AFFINITY PREDICTED BY RF-SCORE:    0.00 PKD
ROOT
HETATM    1  C   UNL     1      -9.781   4.468  67.510  1.00  0.00    -0.213 C  
HETATM    2  C   UNL     1     -10.109   5.819  68.120  1.00  0.00    -0.204 C  
ENDROOT
BRANCH   2   3
HETATM    3  C   UNL     1      -9.882   6.944  67.119  1.00  0.00    -0.214 C  
BRANCH   3   4
HETATM    4  C   UNL     1      -8.843   7.939  67.632  1.00  0.00    -0.128 C  
BRANCH   4   5
HETATM    5  C   UNL     1      -8.256   7.437  68.944  1.00  0.00    -0.129 C  
BRANCH   5   6
HETATM    6  C   UNL     1      -7.915   8.537  69.904  1.00  0.00    -0.106 C  
HETATM    7  C   UNL     1      -8.775   8.973  70.837  1.00  0.00    -0.280 C  
BRANCH   7   8
HETATM    8  C   UNL     1     -10.168   8.445  71.017  1.00  0.00    -0.245 C  
BRANCH   8   9
HETATM    9  C   UNL     1     -11.158   9.548  71.243  1.00  0.00    -0.449 C  
HETATM   10  C   UNL     1     -11.859  10.145  70.267  1.00  0.00    -0.342 C  
BRANCH  10  11
HETATM   11  C   UNL     1     -11.697   9.781  68.822  1.00  0.00     0.420 C  
BRANCH  11  12
HETATM   12  C   UNL     1     -10.920  10.818  68.027  1.00  0.00    -0.336 C  
BRANCH  12  13
HETATM   13  C   UNL     1     -11.878  11.881  67.496  1.00  0.00    -0.249 C  
BRANCH  13  14
HETATM   14  C   UNL     1     -11.365  12.457  66.185  1.00  0.00    -0.398 C  
BRANCH  14  15
HETATM   15  C   UNL     1     -11.504  13.976  66.152  1.00  0.00    -0.350 C  
BRANCH  15  16
HETATM   16  C   UNL     1     -10.127  14.631  66.094  1.00  0.00    -0.316 C  
BRANCH  16  17
HETATM   17  C   UNL     1     -10.202  16.057  65.559  1.00  0.00    -0.389 C  
HETATM   18  C   UNL     1     -10.063  17.069  66.669  1.00  0.00    -0.306 C  
HETATM   19  O   UNL     1      -9.908  16.814  67.852  1.00  0.00    -0.247 OA 
HETATM   20  O   UNL     1     -10.130  18.343  66.211  1.00  0.00    -0.371 OA 
ENDBRANCH  16  17
ENDBRANCH  15  16
ENDBRANCH  14  15
ENDBRANCH  13  14
ENDBRANCH  12  13
ENDBRANCH  11  12
ENDBRANCH  10  11
ENDBRANCH   8   9
ENDBRANCH   7   8
ENDBRANCH   5   6
ENDBRANCH   4   5
ENDBRANCH   3   4
ENDBRANCH   2   3
TORSDOF 13
ENDMDL
MODEL      385
REMARK 921   NORMALIZED FREE ENERGY PREDICTED BY IDOCK:   -2.72 KCAL/MOL
REMARK 922        TOTAL FREE ENERGY PREDICTED BY IDOCK:   -6.53 KCAL/MOL
REMARK 923 INTER-LIGAND FREE ENERGY PREDICTED BY IDOCK:   -5.42 KCAL/MOL
REMARK 924 INTRA-LIGAND FREE ENERGY PREDICTED BY IDOCK:   -1.10 KCAL/MOL
REMARK 927      BINDING AFFINITY PREDICTED BY RF-SCORE:    0.00 PKD
ROOT
HETATM    1  C   UNL     1      -8.977   2.021  63.728  1.00  0.00    -0.092 C  
HETATM    2  C   UNL     1      -9.839   3.148  64.270  1.00  0.00    -0.158 C  
ENDROOT
BRANCH   2   3
HETATM    3  C   UNL     1      -9.125   3.896  65.389  1.00  0.00    -0.143 C  
BRANCH   3   4
HETATM    4  C   UNL     1     -10.082   4.829  66.127  1.00  0.00    -0.288 C  
BRANCH   4   5
HETATM    5  C   UNL     1      -9.301   5.694  67.106  1.00  0.00    -0.115 C  
BRANCH   5   6
HETATM    6  C   UNL     1      -9.995   6.977  67.451  1.00  0.00    -0.217 C  
HETATM    7  C   UNL     1     -10.774   7.108  68.537  1.00  0.00    -0.191 C  
BRANCH   7   8
HETATM    8  C   UNL     1     -11.064   6.001  69.508  1.00  0.00    -0.468 C  
BRANCH   8   9
HETATM    9  C   UNL     1     -10.491   6.284  70.864  1.00  0.00    -0.274 C  
HETATM   10  C   UNL     1     -11.196   6.782  71.892  1.00  0.00    -0.294 C  
BRANCH  10  11
HETATM   11  C   UNL     1     -12.647   7.139  71.775  1.00  0.00    -0.381 C  
BRANCH  11  12
HETATM   12  C   UNL     1     -12.914   8.624  71.956  1.00  0.00    -0.419 C  
BRANCH  12  13
HETATM   13  C   UNL     1     -12.119   9.418  70.922  1.00  0.00    -0.327 C  
BRANCH  13  14
HETATM   14  C   UNL     1     -12.094  10.895  71.287  1.00  0.00    -0.322 C  
BRANCH  14  15
HETATM   15  C   UNL     1     -12.633  11.758  70.150  1.00  0.00    -0.068 C  
BRANCH  15  16
HETATM   16  C   UNL     1     -11.494  12.521  69.481  1.00  0.00    -0.299 C  
BRANCH  16  17
HETATM   17  C   UNL     1     -10.586  11.594  68.680  1.00  0.00    -0.236 C  
HETATM   18  C   UNL     1     -11.105  11.391  67.278  1.00  0.00    -0.303 C  
HETATM   19  O   UNL     1     -12.117  11.889  66.813  1.00  0.00    -0.593 OA 
HETATM   20  O   UNL     1     -10.311  10.566  66.553  1.00  0.00    -0.233 OA 
ENDBRANCH  16  17
ENDBRANCH  15  16
ENDBRANCH  14  15
ENDBRANCH  13  14
ENDBRANCH  12  13
ENDBRANCH  11  12
ENDBRANCH  10  11
ENDBRANCH   8   9
ENDBRANCH   7   8
ENDBRANCH   5   6
ENDBRANCH   4   5
ENDBRANCH   3   4
ENDBRANCH   2   3
TORSDOF 13
ENDMDL
MODEL      386
REMARK 921   NORMALIZED FREE ENERGY PREDICTED BY IDOCK:   -2.72 KCAL/MOL
REMARK 922        TOTAL FREE ENERGY PREDICTED BY IDOCK:   -6.53 KCAL/MOL
REMARK 923 INTER-LIGAND FREE ENERGY PREDICTED BY IDOCK:   -4.99 KCAL/MOL
REMARK 924 INTRA-LIGAND FREE ENERGY PREDICTED BY IDOCK:   -1.53 KCAL/MOL
REMARK 927      BINDING AFFINITY PREDICTED BY RF-SCORE:    0.00 PKD
ROOT
HETATM    1  C   UNL     1      -9.636   4.146  65.683  1.00  0.00    -0.188 C  
HETATM    2  C   UNL     1      -8.691   4.361  66.853  1.00  0.00    -0.112 C  
ENDROOT
BRANCH   2   3
HETATM    3  C   UNL     1      -8.597   5.837  67.219  1.00  0.00    -0.109 C  
BRANCH   3   4
HETATM    4  C   UNL     1      -9.712   6.642  66.554  1.00  0.00    -0.176 C  
BRANCH   4   5
HETATM    5  C   UNL     1     -10.625   7.232  67.622  1.00  0.00    -0.316 C  
BRANCH   5   6
HETATM    6  C   UNL     1     -10.933   6.277  68.735  1.00  0.00    -0.424 C  
HETATM    7  C   UNL     1     -11.104   6.679  70.004  1.00  0.00    -0.394 C  
BRANCH   7   8
HETATM    8  C   UNL     1     -10.985   8.102  70.464  1.00  0.00    -0.248 C  
BRANCH   8   9
HETATM    9  C   UNL     1      -9.554   8.509  70.653  1.00  0.00    -0.203 C  
HETATM   10  C   UNL     1      -9.011   9.622  70.135  1.00  0.00    -0.273 C  
BRANCH  10  11
HETATM   11  C   UNL     1      -9.790  10.571  69.275  1.00  0.00    -0.225 C  
BRANCH  11  12
HETATM   12  C   UNL     1      -9.348  10.561  67.821  1.00  0.00    -0.158 C  
BRANCH  12  13
HETATM   13  C   UNL     1      -9.599  11.933  67.199  1.00  0.00    -0.192 C  
BRANCH  13  14
HETATM   14  C   UNL     1      -8.646  12.966  67.783  1.00  0.00    -0.185 C  
BRANCH  14  15
HETATM   15  C   UNL     1      -9.333  14.316  67.966  1.00  0.00    -0.200 C  
BRANCH  15  16
HETATM   16  C   UNL     1     -10.840  14.125  68.115  1.00  0.00    -0.258 C  
BRANCH  16  17
HETATM   17  C   UNL     1     -11.301  14.366  69.548  1.00  0.00    -0.318 C  
HETATM   18  C   UNL     1     -11.362  15.840  69.866  1.00  0.00    -0.349 C  
HETATM   19  O   UNL     1     -11.086  16.747  69.099  1.00  0.00    -0.266 OA 
HETATM   20  O   UNL     1     -11.767  16.073  71.138  1.00  0.00    -0.401 OA 
ENDBRANCH  16  17
ENDBRANCH  15  16
ENDBRANCH  14  15
ENDBRANCH  13  14
ENDBRANCH  12  13
ENDBRANCH  11  12
ENDBRANCH  10  11
ENDBRANCH   8   9
ENDBRANCH   7   8
ENDBRANCH   5   6
ENDBRANCH   4   5
ENDBRANCH   3   4
ENDBRANCH   2   3
TORSDOF 13
ENDMDL
MODEL      387
REMARK 921   NORMALIZED FREE ENERGY PREDICTED BY IDOCK:   -2.71 KCAL/MOL
REMARK 922        TOTAL FREE ENERGY PREDICTED BY IDOCK:   -6.51 KCAL/MOL
REMARK 923 INTER-LIGAND FREE ENERGY PREDICTED BY IDOCK:   -5.42 KCAL/MOL
REMARK 924 INTRA-LIGAND FREE ENERGY PREDICTED BY IDOCK:   -1.09 KCAL/MOL
REMARK 927      BINDING AFFINITY PREDICTED BY RF-SCORE:    0.00 PKD
ROOT
HETATM    1  C   UNL     1      -7.444  15.718  69.360  1.00  0.00    -0.216 C  
HETATM    2  C   UNL     1      -7.460  15.896  67.852  1.00  0.00    -0.145 C  
ENDROOT
BRANCH   2   3
HETATM    3  C   UNL     1      -7.972  17.278  67.467  1.00  0.00    -0.194 C  
BRANCH   3   4
HETATM    4  C   UNL     1      -8.949  17.199  66.295  1.00  0.00    -0.262 C  
BRANCH   4   5
HETATM    5  C   UNL     1      -9.162  15.743  65.903  1.00  0.00    -0.337 C  
BRANCH   5   6
HETATM    6  C   UNL     1     -10.588  15.418  65.577  1.00  0.00    -0.400 C  
HETATM    7  C   UNL     1     -11.345  14.630  66.358  1.00  0.00    -0.348 C  
BRANCH   7   8
HETATM    8  C   UNL     1     -10.862  13.968  67.614  1.00  0.00    -0.270 C  
BRANCH   8   9
HETATM    9  C   UNL     1     -11.099  12.488  67.592  1.00  0.00    -0.301 C  
HETATM   10  C   UNL     1     -11.785  11.819  68.532  1.00  0.00    -0.390 C  
BRANCH  10  11
HETATM   11  C   UNL     1     -12.367  12.496  69.737  1.00  0.00    -0.085 C  
BRANCH  11  12
HETATM   12  C   UNL     1     -12.242  11.668  71.006  1.00  0.00    -0.336 C  
BRANCH  12  13
HETATM   13  C   UNL     1     -13.091  10.405  70.879  1.00  0.00    -0.412 C  
BRANCH  13  14
HETATM   14  C   UNL     1     -12.203   9.178  70.734  1.00  0.00    -0.151 C  
BRANCH  14  15
HETATM   15  C   UNL     1     -11.799   8.619  72.095  1.00  0.00    -0.447 C  
BRANCH  15  16
HETATM   16  C   UNL     1     -10.288   8.423  72.158  1.00  0.00    -0.397 C  
BRANCH  16  17
HETATM   17  C   UNL     1      -9.862   7.723  73.444  1.00  0.00    -0.346 C  
HETATM   18  C   UNL     1      -8.997   6.520  73.156  1.00  0.00    -0.128 C  
HETATM   19  O   UNL     1      -8.663   6.131  72.049  1.00  0.00    -0.135 OA 
HETATM   20  O   UNL     1      -8.612   5.884  74.289  1.00  0.00    -0.115 OA 
ENDBRANCH  16  17
ENDBRANCH  15  16
ENDBRANCH  14  15
ENDBRANCH  13  14
ENDBRANCH  12  13
ENDBRANCH  11  12
ENDBRANCH  10  11
ENDBRANCH   8   9
ENDBRANCH   7   8
ENDBRANCH   5   6
ENDBRANCH   4   5
ENDBRANCH   3   4
ENDBRANCH   2   3
TORSDOF 13
ENDMDL
MODEL      388
REMARK 921   NORMALIZED FREE ENERGY PREDICTED BY IDOCK:   -2.71 KCAL/MOL
REMARK 922        TOTAL FREE ENERGY PREDICTED BY IDOCK:   -6.51 KCAL/MOL
REMARK 923 INTER-LIGAND FREE ENERGY PREDICTED BY IDOCK:   -5.49 KCAL/MOL
REMARK 924 INTRA-LIGAND FREE ENERGY PREDICTED BY IDOCK:   -1.02 KCAL/MOL
REMARK 927      BINDING AFFINITY PREDICTED BY RF-SCORE:    0.00 PKD
ROOT
HETATM    1  C   UNL     1     -10.831   3.633  73.416  1.00  0.00    -0.314 C  
HETATM    2  C   UNL     1     -10.159   4.634  72.493  1.00  0.00    -0.229 C  
ENDROOT
BRANCH   2   3
HETATM    3  C   UNL     1      -9.520   5.768  73.285  1.00  0.00    -0.142 C  
BRANCH   3   4
HETATM    4  C   UNL     1     -10.572   6.759  73.777  1.00  0.00    -0.323 C  
BRANCH   4   5
HETATM    5  C   UNL     1     -11.608   6.991  72.686  1.00  0.00    -0.201 C  
BRANCH   5   6
HETATM    6  C   UNL     1     -11.910   8.441  72.451  1.00  0.00    -0.452 C  
HETATM    7  C   UNL     1     -11.444   9.112  71.386  1.00  0.00    -0.420 C  
BRANCH   7   8
HETATM    8  C   UNL     1     -10.558   8.516  70.332  1.00  0.00    -0.242 C  
BRANCH   8   9
HETATM    9  C   UNL     1      -9.164   9.066  70.399  1.00  0.00    -0.243 C  
HETATM   10  C   UNL     1      -8.559   9.712  69.391  1.00  0.00    -0.160 C  
BRANCH  10  11
HETATM   11  C   UNL     1      -9.218   9.926  68.062  1.00  0.00    -0.129 C  
BRANCH  11  12
HETATM   12  C   UNL     1     -10.121  11.149  68.032  1.00  0.00    -0.191 C  
BRANCH  12  13
HETATM   13  C   UNL     1      -9.270  12.416  68.084  1.00  0.00    -0.205 C  
BRANCH  13  14
HETATM   14  C   UNL     1     -10.124  13.645  67.811  1.00  0.00    -0.242 C  
BRANCH  14  15
HETATM   15  C   UNL     1      -9.666  14.371  66.550  1.00  0.00    -0.305 C  
BRANCH  15  16
HETATM   16  C   UNL     1      -8.462  15.255  66.858  1.00  0.00    -0.286 C  
BRANCH  16  17
HETATM   17  C   UNL     1      -8.677  16.688  66.382  1.00  0.00    -0.345 C  
HETATM   18  C   UNL     1      -7.365  17.375  66.093  1.00  0.00    -0.296 C  
HETATM   19  O   UNL     1      -6.257  16.877  66.214  1.00  0.00    -0.257 OA 
HETATM   20  O   UNL     1      -7.538  18.651  65.672  1.00  0.00    -0.505 OA 
ENDBRANCH  16  17
ENDBRANCH  15  16
ENDBRANCH  14  15
ENDBRANCH  13  14
ENDBRANCH  12  13
ENDBRANCH  11  12
ENDBRANCH  10  11
ENDBRANCH   8   9
ENDBRANCH   7   8
ENDBRANCH   5   6
ENDBRANCH   4   5
ENDBRANCH   3   4
ENDBRANCH   2   3
TORSDOF 13
ENDMDL
MODEL      389
REMARK 921   NORMALIZED FREE ENERGY PREDICTED BY IDOCK:   -2.71 KCAL/MOL
REMARK 922        TOTAL FREE ENERGY PREDICTED BY IDOCK:   -6.51 KCAL/MOL
REMARK 923 INTER-LIGAND FREE ENERGY PREDICTED BY IDOCK:   -4.66 KCAL/MOL
REMARK 924 INTRA-LIGAND FREE ENERGY PREDICTED BY IDOCK:   -1.85 KCAL/MOL
REMARK 927      BINDING AFFINITY PREDICTED BY RF-SCORE:    0.00 PKD
ROOT
HETATM    1  C   UNL     1     -12.281  12.130  63.549  1.00  0.00    -0.670 C  
HETATM    2  C   UNL     1     -12.700  12.978  64.737  1.00  0.00    -0.409 C  
ENDROOT
BRANCH   2   3
HETATM    3  C   UNL     1     -11.520  13.246  65.663  1.00  0.00    -0.342 C  
BRANCH   3   4
HETATM    4  C   UNL     1     -11.509  12.271  66.839  1.00  0.00    -0.418 C  
BRANCH   4   5
HETATM    5  C   UNL     1     -11.106  13.005  68.110  1.00  0.00    -0.285 C  
BRANCH   5   6
HETATM    6  C   UNL     1     -10.119  14.108  67.873  1.00  0.00    -0.235 C  
HETATM    7  C   UNL     1      -8.793  13.925  67.977  1.00  0.00    -0.184 C  
BRANCH   7   8
HETATM    8  C   UNL     1      -8.146  12.627  68.362  1.00  0.00    -0.137 C  
BRANCH   8   9
HETATM    9  C   UNL     1      -7.784  11.806  67.161  1.00  0.00    -0.162 C  
HETATM   10  C   UNL     1      -8.021  10.490  67.048  1.00  0.00    -0.118 C  
BRANCH  10  11
HETATM   11  C   UNL     1      -8.656   9.689  68.144  1.00  0.00    -0.119 C  
BRANCH  11  12
HETATM   12  C   UNL     1      -9.125   8.317  67.689  1.00  0.00    -0.139 C  
BRANCH  12  13
HETATM   13  C   UNL     1     -10.436   7.965  68.389  1.00  0.00    -0.207 C  
BRANCH  13  14
HETATM   14  C   UNL     1     -10.316   6.628  69.106  1.00  0.00    -0.220 C  
BRANCH  14  15
HETATM   15  C   UNL     1     -10.610   6.770  70.597  1.00  0.00    -0.257 C  
BRANCH  15  16
HETATM   16  C   UNL     1      -9.351   6.487  71.412  1.00  0.00    -0.154 C  
BRANCH  16  17
HETATM   17  C   UNL     1      -8.772   7.761  72.016  1.00  0.00    -0.162 C  
HETATM   18  C   UNL     1      -7.476   8.149  71.347  1.00  0.00    -0.078 C  
HETATM   19  O   UNL     1      -6.934   7.542  70.437  1.00  0.00    -0.050 OA 
HETATM   20  O   UNL     1      -6.945   9.278  71.875  1.00  0.00    -0.314 OA 
ENDBRANCH  16  17
ENDBRANCH  15  16
ENDBRANCH  14  15
ENDBRANCH  13  14
ENDBRANCH  12  13
ENDBRANCH  11  12
ENDBRANCH  10  11
ENDBRANCH   8   9
ENDBRANCH   7   8
ENDBRANCH   5   6
ENDBRANCH   4   5
ENDBRANCH   3   4
ENDBRANCH   2   3
TORSDOF 13
ENDMDL
MODEL      390
REMARK 921   NORMALIZED FREE ENERGY PREDICTED BY IDOCK:   -2.70 KCAL/MOL
REMARK 922        TOTAL FREE ENERGY PREDICTED BY IDOCK:   -6.49 KCAL/MOL
REMARK 923 INTER-LIGAND FREE ENERGY PREDICTED BY IDOCK:   -5.13 KCAL/MOL
REMARK 924 INTRA-LIGAND FREE ENERGY PREDICTED BY IDOCK:   -1.36 KCAL/MOL
REMARK 927      BINDING AFFINITY PREDICTED BY RF-SCORE:    0.00 PKD
ROOT
HETATM    1  C   UNL     1     -12.587  11.221  70.877  1.00  0.00    -0.467 C  
HETATM    2  C   UNL     1     -12.081   9.792  70.963  1.00  0.00    -0.434 C  
ENDROOT
BRANCH   2   3
HETATM    3  C   UNL     1     -13.170   8.854  71.467  1.00  0.00    -0.375 C  
BRANCH   3   4
HETATM    4  C   UNL     1     -12.773   7.392  71.270  1.00  0.00    -0.371 C  
BRANCH   4   5
HETATM    5  C   UNL     1     -11.841   6.958  72.394  1.00  0.00    -0.217 C  
BRANCH   5   6
HETATM    6  C   UNL     1     -11.246   5.599  72.183  1.00  0.00    -0.288 C  
HETATM    7  C   UNL     1      -9.985   5.420  71.760  1.00  0.00    -0.235 C  
BRANCH   7   8
HETATM    8  C   UNL     1      -9.039   6.536  71.426  1.00  0.00    -0.148 C  
BRANCH   8   9
HETATM    9  C   UNL     1      -8.955   6.773  69.948  1.00  0.00    -0.144 C  
HETATM   10  C   UNL     1      -8.254   7.768  69.382  1.00  0.00    -0.131 C  
BRANCH  10  11
HETATM   11  C   UNL     1      -7.494   8.777  70.189  1.00  0.00    -0.056 C  
BRANCH  11  12
HETATM   12  C   UNL     1      -8.003  10.197  70.002  1.00  0.00    -0.108 C  
BRANCH  12  13
HETATM   13  C   UNL     1      -7.867  10.602  68.536  1.00  0.00    -0.115 C  
BRANCH  13  14
HETATM   14  C   UNL     1      -9.226  10.590  67.851  1.00  0.00    -0.143 C  
BRANCH  14  15
HETATM   15  C   UNL     1      -9.103  10.918  66.366  1.00  0.00    -0.188 C  
BRANCH  15  16
HETATM   16  C   UNL     1     -10.485  11.134  65.757  1.00  0.00    -0.305 C  
BRANCH  16  17
HETATM   17  C   UNL     1     -10.737  12.603  65.436  1.00  0.00    -0.308 C  
HETATM   18  C   UNL     1     -11.558  13.270  66.512  1.00  0.00    -0.350 C  
HETATM   19  O   UNL     1     -11.981  12.732  67.522  1.00  0.00    -0.364 OA 
HETATM   20  O   UNL     1     -11.794  14.576  66.241  1.00  0.00    -0.380 OA 
ENDBRANCH  16  17
ENDBRANCH  15  16
ENDBRANCH  14  15
ENDBRANCH  13  14
ENDBRANCH  12  13
ENDBRANCH  11  12
ENDBRANCH  10  11
ENDBRANCH   8   9
ENDBRANCH   7   8
ENDBRANCH   5   6
ENDBRANCH   4   5
ENDBRANCH   3   4
ENDBRANCH   2   3
TORSDOF 13
ENDMDL
MODEL      391
REMARK 921   NORMALIZED FREE ENERGY PREDICTED BY IDOCK:   -2.69 KCAL/MOL
REMARK 922        TOTAL FREE ENERGY PREDICTED BY IDOCK:   -6.48 KCAL/MOL
REMARK 923 INTER-LIGAND FREE ENERGY PREDICTED BY IDOCK:   -4.96 KCAL/MOL
REMARK 924 INTRA-LIGAND FREE ENERGY PREDICTED BY IDOCK:   -1.51 KCAL/MOL
REMARK 927      BINDING AFFINITY PREDICTED BY RF-SCORE:    0.00 PKD
ROOT
HETATM    1  C   UNL     1      -7.991  15.597  69.009  1.00  0.00    -0.208 C  
HETATM    2  C   UNL     1      -8.492  15.907  67.610  1.00  0.00    -0.170 C  
ENDROOT
BRANCH   2   3
HETATM    3  C   UNL     1      -9.273  17.215  67.584  1.00  0.00    -0.238 C  
BRANCH   3   4
HETATM    4  C   UNL     1     -10.324  17.208  66.475  1.00  0.00    -0.306 C  
BRANCH   4   5
HETATM    5  C   UNL     1     -10.423  15.814  65.871  1.00  0.00    -0.366 C  
BRANCH   5   6
HETATM    6  C   UNL     1     -11.161  15.782  64.567  1.00  0.00    -0.334 C  
HETATM    7  C   UNL     1     -12.243  15.012  64.368  1.00  0.00    -0.353 C  
BRANCH   7   8
HETATM    8  C   UNL     1     -12.821  14.085  65.397  1.00  0.00    -0.442 C  
BRANCH   8   9
HETATM    9  C   UNL     1     -12.197  12.723  65.334  1.00  0.00    -0.532 C  
HETATM   10  C   UNL     1     -11.548  12.144  66.356  1.00  0.00    -0.429 C  
BRANCH  10  11
HETATM   11  C   UNL     1     -11.354  12.826  67.677  1.00  0.00    -0.359 C  
BRANCH  11  12
HETATM   12  C   UNL     1      -9.992  12.555  68.295  1.00  0.00    -0.229 C  
BRANCH  12  13
HETATM   13  C   UNL     1      -9.918  11.102  68.757  1.00  0.00    -0.207 C  
BRANCH  13  14
HETATM   14  C   UNL     1      -8.474  10.623  68.787  1.00  0.00    -0.149 C  
BRANCH  14  15
HETATM   15  C   UNL     1      -7.754  10.947  67.482  1.00  0.00    -0.109 C  
BRANCH  15  16
HETATM   16  C   UNL     1      -6.329  10.403  67.517  1.00  0.00    -0.058 C  
BRANCH  16  17
HETATM   17  C   UNL     1      -5.505  10.903  66.336  1.00  0.00    -0.103 C  
HETATM   18  C   UNL     1      -5.956  10.272  65.041  1.00  0.00    -0.133 C  
HETATM   19  O   UNL     1      -6.860   9.462  64.920  1.00  0.00    -0.087 OA 
HETATM   20  O   UNL     1      -5.231  10.704  63.981  1.00  0.00    -0.155 OA 
ENDBRANCH  16  17
ENDBRANCH  15  16
ENDBRANCH  14  15
ENDBRANCH  13  14
ENDBRANCH  12  13
ENDBRANCH  11  12
ENDBRANCH  10  11
ENDBRANCH   8   9
ENDBRANCH   7   8
ENDBRANCH   5   6
ENDBRANCH   4   5
ENDBRANCH   3   4
ENDBRANCH   2   3
TORSDOF 13
ENDMDL
MODEL      392
REMARK 921   NORMALIZED FREE ENERGY PREDICTED BY IDOCK:   -2.68 KCAL/MOL
REMARK 922        TOTAL FREE ENERGY PREDICTED BY IDOCK:   -6.46 KCAL/MOL
REMARK 923 INTER-LIGAND FREE ENERGY PREDICTED BY IDOCK:   -5.16 KCAL/MOL
REMARK 924 INTRA-LIGAND FREE ENERGY PREDICTED BY IDOCK:   -1.30 KCAL/MOL
REMARK 927      BINDING AFFINITY PREDICTED BY RF-SCORE:    0.00 PKD
ROOT
HETATM    1  C   UNL     1     -10.852   3.531  73.613  1.00  0.00    -0.324 C  
HETATM    2  C   UNL     1     -10.158   4.243  72.466  1.00  0.00    -0.233 C  
ENDROOT
BRANCH   2   3
HETATM    3  C   UNL     1      -9.634   5.606  72.901  1.00  0.00    -0.165 C  
BRANCH   3   4
HETATM    4  C   UNL     1     -10.782   6.574  73.181  1.00  0.00    -0.297 C  
BRANCH   4   5
HETATM    5  C   UNL     1     -11.682   6.671  71.957  1.00  0.00    -0.354 C  
BRANCH   5   6
HETATM    6  C   UNL     1     -11.311   7.791  71.033  1.00  0.00    -0.287 C  
HETATM    7  C   UNL     1     -10.815   7.579  69.804  1.00  0.00    -0.234 C  
BRANCH   7   8
HETATM    8  C   UNL     1     -10.549   6.223  69.222  1.00  0.00    -0.332 C  
BRANCH   8   9
HETATM    9  C   UNL     1      -9.096   5.861  69.292  1.00  0.00    -0.128 C  
HETATM   10  C   UNL     1      -8.105   6.617  68.794  1.00  0.00    -0.119 C  
BRANCH  10  11
HETATM   11  C   UNL     1      -8.361   7.909  68.079  1.00  0.00    -0.123 C  
BRANCH  11  12
HETATM   12  C   UNL     1      -8.311   7.775  66.565  1.00  0.00    -0.128 C  
BRANCH  12  13
HETATM   13  C   UNL     1      -9.254   8.793  65.929  1.00  0.00    -0.282 C  
BRANCH  13  14
HETATM   14  C   UNL     1      -9.363  10.037  66.799  1.00  0.00    -0.193 C  
BRANCH  14  15
HETATM   15  C   UNL     1     -10.812  10.493  66.938  1.00  0.00    -0.252 C  
BRANCH  15  16
HETATM   16  C   UNL     1     -10.955  11.942  66.483  1.00  0.00    -0.337 C  
BRANCH  16  17
HETATM   17  C   UNL     1     -11.434  12.845  67.615  1.00  0.00    -0.383 C  
HETATM   18  C   UNL     1     -11.737  14.238  67.118  1.00  0.00    -0.404 C  
HETATM   19  O   UNL     1     -11.624  14.624  65.967  1.00  0.00    -0.356 OA 
HETATM   20  O   UNL     1     -12.161  15.054  68.113  1.00  0.00    -0.231 OA 
ENDBRANCH  16  17
ENDBRANCH  15  16
ENDBRANCH  14  15
ENDBRANCH  13  14
ENDBRANCH  12  13
ENDBRANCH  11  12
ENDBRANCH  10  11
ENDBRANCH   8   9
ENDBRANCH   7   8
ENDBRANCH   5   6
ENDBRANCH   4   5
ENDBRANCH   3   4
ENDBRANCH   2   3
TORSDOF 13
ENDMDL
MODEL      393
REMARK 921   NORMALIZED FREE ENERGY PREDICTED BY IDOCK:   -2.68 KCAL/MOL
REMARK 922        TOTAL FREE ENERGY PREDICTED BY IDOCK:   -6.46 KCAL/MOL
REMARK 923 INTER-LIGAND FREE ENERGY PREDICTED BY IDOCK:   -4.89 KCAL/MOL
REMARK 924 INTRA-LIGAND FREE ENERGY PREDICTED BY IDOCK:   -1.57 KCAL/MOL
REMARK 927      BINDING AFFINITY PREDICTED BY RF-SCORE:    0.00 PKD
ROOT
HETATM    1  C   UNL     1      -6.119  11.033  70.267  1.00  0.00    -0.144 C  
HETATM    2  C   UNL     1      -7.059  10.747  69.109  1.00  0.00    -0.101 C  
ENDROOT
BRANCH   2   3
HETATM    3  C   UNL     1      -7.270  11.989  68.253  1.00  0.00    -0.090 C  
BRANCH   3   4
HETATM    4  C   UNL     1      -6.982  13.262  69.047  1.00  0.00    -0.075 C  
BRANCH   4   5
HETATM    5  C   UNL     1      -7.515  14.470  68.290  1.00  0.00    -0.120 C  
BRANCH   5   6
HETATM    6  C   UNL     1      -8.897  14.873  68.708  1.00  0.00    -0.183 C  
HETATM    7  C   UNL     1      -9.982  14.606  67.965  1.00  0.00    -0.220 C  
BRANCH   7   8
HETATM    8  C   UNL     1      -9.947  13.909  66.637  1.00  0.00    -0.279 C  
BRANCH   8   9
HETATM    9  C   UNL     1     -11.269  13.285  66.299  1.00  0.00    -0.321 C  
HETATM   10  C   UNL     1     -11.697  12.112  66.792  1.00  0.00    -0.377 C  
BRANCH  10  11
HETATM   11  C   UNL     1     -10.868  11.280  67.723  1.00  0.00    -0.284 C  
BRANCH  11  12
HETATM   12  C   UNL     1     -10.181  10.114  67.033  1.00  0.00    -0.290 C  
BRANCH  12  13
HETATM   13  C   UNL     1     -10.234   8.881  67.933  1.00  0.00    -0.274 C  
BRANCH  13  14
HETATM   14  C   UNL     1     -10.450   7.624  67.104  1.00  0.00    -0.412 C  
BRANCH  14  15
HETATM   15  C   UNL     1     -10.587   6.390  67.991  1.00  0.00    -0.315 C  
BRANCH  15  16
HETATM   16  C   UNL     1     -11.512   6.685  69.167  1.00  0.00    -0.199 C  
BRANCH  16  17
HETATM   17  C   UNL     1     -11.030   6.012  70.448  1.00  0.00    -0.399 C  
HETATM   18  C   UNL     1     -11.484   6.768  71.673  1.00  0.00    -0.282 C  
HETATM   19  O   UNL     1     -12.152   7.789  71.673  1.00  0.00    -0.283 OA 
HETATM   20  O   UNL     1     -11.062   6.184  72.820  1.00  0.00    -0.246 OA 
ENDBRANCH  16  17
ENDBRANCH  15  16
ENDBRANCH  14  15
ENDBRANCH  13  14
ENDBRANCH  12  13
ENDBRANCH  11  12
ENDBRANCH  10  11
ENDBRANCH   8   9
ENDBRANCH   7   8
ENDBRANCH   5   6
ENDBRANCH   4   5
ENDBRANCH   3   4
ENDBRANCH   2   3
TORSDOF 13
ENDMDL
MODEL      394
REMARK 921   NORMALIZED FREE ENERGY PREDICTED BY IDOCK:   -2.66 KCAL/MOL
REMARK 922        TOTAL FREE ENERGY PREDICTED BY IDOCK:   -6.42 KCAL/MOL
REMARK 923 INTER-LIGAND FREE ENERGY PREDICTED BY IDOCK:   -4.97 KCAL/MOL
REMARK 924 INTRA-LIGAND FREE ENERGY PREDICTED BY IDOCK:   -1.45 KCAL/MOL
REMARK 927      BINDING AFFINITY PREDICTED BY RF-SCORE:    0.00 PKD
ROOT
HETATM    1  C   UNL     1      -7.165   7.976  73.051  1.00  0.00    -0.130 C  
HETATM    2  C   UNL     1      -7.132   7.120  71.798  1.00  0.00    -0.068 C  
ENDROOT
BRANCH   2   3
HETATM    3  C   UNL     1      -7.071   7.983  70.544  1.00  0.00    -0.045 C  
BRANCH   3   4
HETATM    4  C   UNL     1      -8.062   9.143  70.624  1.00  0.00    -0.198 C  
BRANCH   4   5
HETATM    5  C   UNL     1      -9.297   8.820  69.794  1.00  0.00    -0.163 C  
BRANCH   5   6
HETATM    6  C   UNL     1     -10.081  10.034  69.397  1.00  0.00    -0.235 C  
HETATM    7  C   UNL     1     -10.314  10.355  68.114  1.00  0.00    -0.202 C  
BRANCH   7   8
HETATM    8  C   UNL     1      -9.807   9.570  66.940  1.00  0.00    -0.262 C  
BRANCH   8   9
HETATM    9  C   UNL     1      -8.841  10.364  66.113  1.00  0.00    -0.172 C  
HETATM   10  C   UNL     1      -9.160  10.979  64.964  1.00  0.00    -0.182 C  
BRANCH  10  11
HETATM   11  C   UNL     1     -10.533  10.908  64.368  1.00  0.00    -0.403 C  
BRANCH  11  12
HETATM   12  C   UNL     1     -11.466  11.993  64.882  1.00  0.00    -0.352 C  
BRANCH  12  13
HETATM   13  C   UNL     1     -11.189  13.299  64.141  1.00  0.00    -0.412 C  
BRANCH  13  14
HETATM   14  C   UNL     1     -11.977  14.443  64.764  1.00  0.00    -0.455 C  
BRANCH  14  15
HETATM   15  C   UNL     1     -11.131  15.708  64.868  1.00  0.00    -0.414 C  
BRANCH  15  16
HETATM   16  C   UNL     1     -10.636  15.896  66.299  1.00  0.00    -0.301 C  
BRANCH  16  17
HETATM   17  C   UNL     1      -9.146  15.598  66.425  1.00  0.00    -0.355 C  
HETATM   18  C   UNL     1      -8.903  14.304  67.162  1.00  0.00    -0.229 C  
HETATM   19  O   UNL     1      -9.765  13.567  67.612  1.00  0.00    -0.218 OA 
HETATM   20  O   UNL     1      -7.583  14.025  67.286  1.00  0.00    -0.171 OA 
ENDBRANCH  16  17
ENDBRANCH  15  16
ENDBRANCH  14  15
ENDBRANCH  13  14
ENDBRANCH  12  13
ENDBRANCH  11  12
ENDBRANCH  10  11
ENDBRANCH   8   9
ENDBRANCH   7   8
ENDBRANCH   5   6
ENDBRANCH   4   5
ENDBRANCH   3   4
ENDBRANCH   2   3
TORSDOF 13
ENDMDL
MODEL      395
REMARK 921   NORMALIZED FREE ENERGY PREDICTED BY IDOCK:   -2.65 KCAL/MOL
REMARK 922        TOTAL FREE ENERGY PREDICTED BY IDOCK:   -6.41 KCAL/MOL
REMARK 923 INTER-LIGAND FREE ENERGY PREDICTED BY IDOCK:   -5.10 KCAL/MOL
REMARK 924 INTRA-LIGAND FREE ENERGY PREDICTED BY IDOCK:   -1.31 KCAL/MOL
REMARK 927      BINDING AFFINITY PREDICTED BY RF-SCORE:    0.00 PKD
ROOT
HETATM    1  C   UNL     1     -12.384  10.729  71.677  1.00  0.00    -0.292 C  
HETATM    2  C   UNL     1     -11.788   9.337  71.563  1.00  0.00    -0.444 C  
ENDROOT
BRANCH   2   3
HETATM    3  C   UNL     1     -12.745   8.284  72.109  1.00  0.00    -0.366 C  
BRANCH   3   4
HETATM    4  C   UNL     1     -12.420   6.901  71.550  1.00  0.00    -0.420 C  
BRANCH   4   5
HETATM    5  C   UNL     1     -11.003   6.507  71.947  1.00  0.00    -0.288 C  
BRANCH   5   6
HETATM    6  C   UNL     1     -10.518   5.263  71.266  1.00  0.00    -0.274 C  
HETATM    7  C   UNL     1      -9.774   5.294  70.149  1.00  0.00    -0.262 C  
BRANCH   7   8
HETATM    8  C   UNL     1      -9.365   6.551  69.440  1.00  0.00    -0.143 C  
BRANCH   8   9
HETATM    9  C   UNL     1      -7.880   6.755  69.478  1.00  0.00    -0.113 C  
HETATM   10  C   UNL     1      -7.235   7.726  68.814  1.00  0.00    -0.081 C  
BRANCH  10  11
HETATM   11  C   UNL     1      -7.945   8.705  67.928  1.00  0.00    -0.107 C  
BRANCH  11  12
HETATM   12  C   UNL     1      -8.632   9.820  68.699  1.00  0.00    -0.121 C  
BRANCH  12  13
HETATM   13  C   UNL     1      -9.569  10.586  67.767  1.00  0.00    -0.173 C  
BRANCH  13  14
HETATM   14  C   UNL     1     -10.747  11.154  68.544  1.00  0.00    -0.235 C  
BRANCH  14  15
HETATM   15  C   UNL     1     -11.441  12.269  67.766  1.00  0.00    -0.392 C  
BRANCH  15  16
HETATM   16  C   UNL     1     -10.592  12.682  66.567  1.00  0.00    -0.272 C  
BRANCH  16  17
HETATM   17  C   UNL     1     -11.371  12.578  65.261  1.00  0.00    -0.363 C  
HETATM   18  C   UNL     1     -10.593  11.817  64.215  1.00  0.00    -0.335 C  
HETATM   19  O   UNL     1      -9.483  11.334  64.363  1.00  0.00    -0.226 OA 
HETATM   20  O   UNL     1     -11.270  11.718  63.045  1.00  0.00    -0.189 OA 
ENDBRANCH  16  17
ENDBRANCH  15  16
ENDBRANCH  14  15
ENDBRANCH  13  14
ENDBRANCH  12  13
ENDBRANCH  11  12
ENDBRANCH  10  11
ENDBRANCH   8   9
ENDBRANCH   7   8
ENDBRANCH   5   6
ENDBRANCH   4   5
ENDBRANCH   3   4
ENDBRANCH   2   3
TORSDOF 13
ENDMDL
MODEL      396
REMARK 921   NORMALIZED FREE ENERGY PREDICTED BY IDOCK:   -2.65 KCAL/MOL
REMARK 922        TOTAL FREE ENERGY PREDICTED BY IDOCK:   -6.40 KCAL/MOL
REMARK 923 INTER-LIGAND FREE ENERGY PREDICTED BY IDOCK:   -5.06 KCAL/MOL
REMARK 924 INTRA-LIGAND FREE ENERGY PREDICTED BY IDOCK:   -1.35 KCAL/MOL
REMARK 927      BINDING AFFINITY PREDICTED BY RF-SCORE:    0.00 PKD
ROOT
HETATM    1  C   UNL     1      -9.954   4.003  65.311  1.00  0.00    -0.193 C  
HETATM    2  C   UNL     1      -8.815   4.056  66.313  1.00  0.00    -0.121 C  
ENDROOT
BRANCH   2   3
HETATM    3  C   UNL     1      -9.040   5.155  67.343  1.00  0.00    -0.116 C  
BRANCH   3   4
HETATM    4  C   UNL     1     -10.529   5.421  67.550  1.00  0.00    -0.235 C  
BRANCH   4   5
HETATM    5  C   UNL     1     -10.824   5.555  69.038  1.00  0.00    -0.154 C  
BRANCH   5   6
HETATM    6  C   UNL     1      -9.901   4.749  69.903  1.00  0.00    -0.291 C  
HETATM    7  C   UNL     1      -9.655   5.063  71.184  1.00  0.00    -0.226 C  
BRANCH   7   8
HETATM    8  C   UNL     1     -10.238   6.250  71.892  1.00  0.00    -0.227 C  
BRANCH   8   9
HETATM    9  C   UNL     1      -9.248   7.371  72.010  1.00  0.00    -0.155 C  
HETATM   10  C   UNL     1      -9.537   8.660  71.775  1.00  0.00    -0.360 C  
BRANCH  10  11
HETATM   11  C   UNL     1     -10.896   9.113  71.335  1.00  0.00    -0.419 C  
BRANCH  11  12
HETATM   12  C   UNL     1     -11.031   9.218  69.824  1.00  0.00    -0.213 C  
BRANCH  12  13
HETATM   13  C   UNL     1     -11.156  10.686  69.422  1.00  0.00    -0.315 C  
BRANCH  13  14
HETATM   14  C   UNL     1     -10.094  11.051  68.395  1.00  0.00    -0.194 C  
BRANCH  14  15
HETATM   15  C   UNL     1      -9.754  12.537  68.452  1.00  0.00    -0.189 C  
BRANCH  15  16
HETATM   16  C   UNL     1     -10.972  13.372  68.068  1.00  0.00    -0.265 C  
BRANCH  16  17
HETATM   17  C   UNL     1     -11.496  13.003  66.684  1.00  0.00    -0.382 C  
HETATM   18  C   UNL     1     -11.287  14.126  65.698  1.00  0.00    -0.319 C  
HETATM   19  O   UNL     1     -10.769  15.203  65.943  1.00  0.00    -0.310 OA 
HETATM   20  O   UNL     1     -11.751  13.816  64.464  1.00  0.00    -0.373 OA 
ENDBRANCH  16  17
ENDBRANCH  15  16
ENDBRANCH  14  15
ENDBRANCH  13  14
ENDBRANCH  12  13
ENDBRANCH  11  12
ENDBRANCH  10  11
ENDBRANCH   8   9
ENDBRANCH   7   8
ENDBRANCH   5   6
ENDBRANCH   4   5
ENDBRANCH   3   4
ENDBRANCH   2   3
TORSDOF 13
ENDMDL
MODEL      397
REMARK 921   NORMALIZED FREE ENERGY PREDICTED BY IDOCK:   -2.63 KCAL/MOL
REMARK 922        TOTAL FREE ENERGY PREDICTED BY IDOCK:   -6.38 KCAL/MOL
REMARK 923 INTER-LIGAND FREE ENERGY PREDICTED BY IDOCK:   -5.20 KCAL/MOL
REMARK 924 INTRA-LIGAND FREE ENERGY PREDICTED BY IDOCK:   -1.19 KCAL/MOL
REMARK 927      BINDING AFFINITY PREDICTED BY RF-SCORE:    0.00 PKD
ROOT
HETATM    1  C   UNL     1     -11.979  12.252  63.414  1.00  0.00    -0.588 C  
HETATM    2  C   UNL     1     -12.803  12.651  64.625  1.00  0.00    -0.361 C  
ENDROOT
BRANCH   2   3
HETATM    3  C   UNL     1     -11.945  13.363  65.663  1.00  0.00    -0.439 C  
BRANCH   3   4
HETATM    4  C   UNL     1     -11.784  12.514  66.923  1.00  0.00    -0.447 C  
BRANCH   4   5
HETATM    5  C   UNL     1     -11.877  13.403  68.155  1.00  0.00    -0.396 C  
BRANCH   5   6
HETATM    6  C   UNL     1     -11.781  14.866  67.842  1.00  0.00    -0.344 C  
HETATM    7  C   UNL     1     -10.719  15.610  68.189  1.00  0.00    -0.287 C  
BRANCH   7   8
HETATM    8  C   UNL     1      -9.531  15.089  68.942  1.00  0.00    -0.211 C  
BRANCH   8   9
HETATM    9  C   UNL     1      -8.333  14.932  68.053  1.00  0.00    -0.147 C  
HETATM   10  C   UNL     1      -7.895  13.755  67.580  1.00  0.00    -0.189 C  
BRANCH  10  11
HETATM   11  C   UNL     1      -8.555  12.454  67.922  1.00  0.00    -0.171 C  
BRANCH  11  12
HETATM   12  C   UNL     1      -7.610  11.456  68.571  1.00  0.00    -0.129 C  
BRANCH  12  13
HETATM   13  C   UNL     1      -7.080  10.490  67.513  1.00  0.00    -0.089 C  
BRANCH  13  14
HETATM   14  C   UNL     1      -7.251   9.049  67.972  1.00  0.00    -0.080 C  
BRANCH  14  15
HETATM   15  C   UNL     1      -8.725   8.665  68.061  1.00  0.00    -0.141 C  
BRANCH  15  16
HETATM   16  C   UNL     1      -9.529   9.411  67.001  1.00  0.00    -0.200 C  
BRANCH  16  17
HETATM   17  C   UNL     1      -9.252   8.876  65.601  1.00  0.00    -0.268 C  
HETATM   18  C   UNL     1      -9.196   9.992  64.585  1.00  0.00    -0.258 C  
HETATM   19  O   UNL     1      -9.348  11.179  64.822  1.00  0.00    -0.216 OA 
HETATM   20  O   UNL     1      -8.954   9.533  63.334  1.00  0.00    -0.235 OA 
ENDBRANCH  16  17
ENDBRANCH  15  16
ENDBRANCH  14  15
ENDBRANCH  13  14
ENDBRANCH  12  13
ENDBRANCH  11  12
ENDBRANCH  10  11
ENDBRANCH   8   9
ENDBRANCH   7   8
ENDBRANCH   5   6
ENDBRANCH   4   5
ENDBRANCH   3   4
ENDBRANCH   2   3
TORSDOF 13
ENDMDL
MODEL      398
REMARK 921   NORMALIZED FREE ENERGY PREDICTED BY IDOCK:   -2.63 KCAL/MOL
REMARK 922        TOTAL FREE ENERGY PREDICTED BY IDOCK:   -6.38 KCAL/MOL
REMARK 923 INTER-LIGAND FREE ENERGY PREDICTED BY IDOCK:   -5.44 KCAL/MOL
REMARK 924 INTRA-LIGAND FREE ENERGY PREDICTED BY IDOCK:   -0.93 KCAL/MOL
REMARK 927      BINDING AFFINITY PREDICTED BY RF-SCORE:    0.00 PKD
ROOT
HETATM    1  C   UNL     1     -11.547   5.406  72.673  1.00  0.00    -0.270 C  
HETATM    2  C   UNL     1     -12.190   6.435  71.759  1.00  0.00    -0.312 C  
ENDROOT
BRANCH   2   3
HETATM    3  C   UNL     1     -11.573   6.394  70.367  1.00  0.00    -0.440 C  
BRANCH   3   4
HETATM    4  C   UNL     1     -10.079   6.082  70.434  1.00  0.00    -0.249 C  
BRANCH   4   5
HETATM    5  C   UNL     1      -9.287   7.380  70.514  1.00  0.00    -0.157 C  
BRANCH   5   6
HETATM    6  C   UNL     1     -10.115   8.600  70.244  1.00  0.00    -0.206 C  
HETATM    7  C   UNL     1     -10.046   9.278  69.088  1.00  0.00    -0.204 C  
BRANCH   7   8
HETATM    8  C   UNL     1      -9.131   8.923  67.953  1.00  0.00    -0.145 C  
BRANCH   8   9
HETATM    9  C   UNL     1      -8.402  10.124  67.428  1.00  0.00    -0.118 C  
HETATM   10  C   UNL     1      -8.618  10.670  66.221  1.00  0.00    -0.156 C  
BRANCH  10  11
HETATM   11  C   UNL     1      -9.609  10.105  65.248  1.00  0.00    -0.338 C  
BRANCH  11  12
HETATM   12  C   UNL     1     -10.783  11.033  64.983  1.00  0.00    -0.264 C  
BRANCH  12  13
HETATM   13  C   UNL     1     -10.977  11.967  66.175  1.00  0.00    -0.343 C  
BRANCH  13  14
HETATM   14  C   UNL     1     -11.454  13.335  65.710  1.00  0.00    -0.349 C  
BRANCH  14  15
HETATM   15  C   UNL     1     -10.914  14.447  66.605  1.00  0.00    -0.318 C  
BRANCH  15  16
HETATM   16  C   UNL     1     -10.125  15.456  65.775  1.00  0.00    -0.391 C  
BRANCH  16  17
HETATM   17  C   UNL     1     -10.779  16.833  65.789  1.00  0.00    -0.185 C  
HETATM   18  C   UNL     1     -10.177  17.718  66.853  1.00  0.00    -0.346 C  
HETATM   19  O   UNL     1      -9.281  17.404  67.619  1.00  0.00    -0.231 OA 
HETATM   20  O   UNL     1     -10.750  18.946  66.881  1.00  0.00    -0.421 OA 
ENDBRANCH  16  17
ENDBRANCH  15  16
ENDBRANCH  14  15
ENDBRANCH  13  14
ENDBRANCH  12  13
ENDBRANCH  11  12
ENDBRANCH  10  11
ENDBRANCH   8   9
ENDBRANCH   7   8
ENDBRANCH   5   6
ENDBRANCH   4   5
ENDBRANCH   3   4
ENDBRANCH   2   3
TORSDOF 13
ENDMDL
MODEL      399
REMARK 921   NORMALIZED FREE ENERGY PREDICTED BY IDOCK:   -2.63 KCAL/MOL
REMARK 922        TOTAL FREE ENERGY PREDICTED BY IDOCK:   -6.37 KCAL/MOL
REMARK 923 INTER-LIGAND FREE ENERGY PREDICTED BY IDOCK:   -5.97 KCAL/MOL
REMARK 924 INTRA-LIGAND FREE ENERGY PREDICTED BY IDOCK:   -0.40 KCAL/MOL
REMARK 927      BINDING AFFINITY PREDICTED BY RF-SCORE:    0.00 PKD
ROOT
HETATM    1  C   UNL     1     -10.755  19.862  65.720  1.00  0.00    -0.423 C  
HETATM    2  C   UNL     1     -10.615  20.212  67.191  1.00  0.00    -0.337 C  
ENDROOT
BRANCH   2   3
HETATM    3  C   UNL     1      -9.662  19.254  67.895  1.00  0.00    -0.422 C  
BRANCH   3   4
HETATM    4  C   UNL     1     -10.258  17.851  67.986  1.00  0.00    -0.381 C  
BRANCH   4   5
HETATM    5  C   UNL     1      -9.396  16.876  67.196  1.00  0.00    -0.241 C  
BRANCH   5   6
HETATM    6  C   UNL     1      -8.315  17.545  66.403  1.00  0.00    -0.297 C  
HETATM    7  C   UNL     1      -7.057  17.079  66.361  1.00  0.00    -0.285 C  
BRANCH   7   8
HETATM    8  C   UNL     1      -6.577  15.870  67.109  1.00  0.00    -0.132 C  
BRANCH   8   9
HETATM    9  C   UNL     1      -7.086  15.849  68.519  1.00  0.00    -0.124 C  
HETATM   10  C   UNL     1      -7.596  14.762  69.121  1.00  0.00    -0.151 C  
BRANCH  10  11
HETATM   11  C   UNL     1      -7.735  13.445  68.419  1.00  0.00    -0.138 C  
BRANCH  11  12
HETATM   12  C   UNL     1      -9.061  13.292  67.692  1.00  0.00    -0.204 C  
BRANCH  12  13
HETATM   13  C   UNL     1     -10.095  14.232  68.308  1.00  0.00    -0.238 C  
BRANCH  13  14
HETATM   14  C   UNL     1     -11.052  13.460  69.204  1.00  0.00    -0.261 C  
BRANCH  14  15
HETATM   15  C   UNL     1     -12.281  14.294  69.554  1.00  0.00    -0.341 C  
BRANCH  15  16
HETATM   16  C   UNL     1     -11.907  15.394  70.543  1.00  0.00    -0.373 C  
BRANCH  16  17
HETATM   17  C   UNL     1     -13.054  15.711  71.495  1.00  0.00    -0.561 C  
HETATM   18  C   UNL     1     -12.625  15.586  72.937  1.00  0.00    -0.428 C  
HETATM   19  O   UNL     1     -11.511  15.273  73.324  1.00  0.00    -0.294 OA 
HETATM   20  O   UNL     1     -13.634  15.861  73.797  1.00  0.00    -0.342 OA 
ENDBRANCH  16  17
ENDBRANCH  15  16
ENDBRANCH  14  15
ENDBRANCH  13  14
ENDBRANCH  12  13
ENDBRANCH  11  12
ENDBRANCH  10  11
ENDBRANCH   8   9
ENDBRANCH   7   8
ENDBRANCH   5   6
ENDBRANCH   4   5
ENDBRANCH   3   4
ENDBRANCH   2   3
TORSDOF 13
ENDMDL
MODEL      400
REMARK 921   NORMALIZED FREE ENERGY PREDICTED BY IDOCK:   -2.62 KCAL/MOL
REMARK 922        TOTAL FREE ENERGY PREDICTED BY IDOCK:   -6.35 KCAL/MOL
REMARK 923 INTER-LIGAND FREE ENERGY PREDICTED BY IDOCK:   -5.14 KCAL/MOL
REMARK 924 INTRA-LIGAND FREE ENERGY PREDICTED BY IDOCK:   -1.21 KCAL/MOL
REMARK 927      BINDING AFFINITY PREDICTED BY RF-SCORE:    0.00 PKD
ROOT
HETATM    1  C   UNL     1      -7.867  15.966  68.460  1.00  0.00    -0.142 C  
HETATM    2  C   UNL     1      -7.928  14.454  68.589  1.00  0.00    -0.145 C  
ENDROOT
BRANCH   2   3
HETATM    3  C   UNL     1      -8.591  13.825  67.371  1.00  0.00    -0.208 C  
BRANCH   3   4
HETATM    4  C   UNL     1     -10.010  14.358  67.178  1.00  0.00    -0.253 C  
BRANCH   4   5
HETATM    5  C   UNL     1     -10.975  13.577  68.059  1.00  0.00    -0.271 C  
BRANCH   5   6
HETATM    6  C   UNL     1     -11.581  12.390  67.371  1.00  0.00    -0.433 C  
HETATM    7  C   UNL     1     -11.383  11.132  67.794  1.00  0.00    -0.364 C  
BRANCH   7   8
HETATM    8  C   UNL     1     -10.526  10.759  68.968  1.00  0.00    -0.239 C  
BRANCH   8   9
HETATM    9  C   UNL     1     -11.349  10.421  70.175  1.00  0.00    -0.397 C  
HETATM   10  C   UNL     1     -11.085   9.400  71.006  1.00  0.00    -0.414 C  
BRANCH  10  11
HETATM   11  C   UNL     1      -9.936   8.463  70.789  1.00  0.00    -0.222 C  
BRANCH  11  12
HETATM   12  C   UNL     1     -10.368   7.015  70.620  1.00  0.00    -0.223 C  
BRANCH  12  13
HETATM   13  C   UNL     1      -9.936   6.509  69.245  1.00  0.00    -0.172 C  
BRANCH  13  14
HETATM   14  C   UNL     1     -11.142   6.345  68.333  1.00  0.00    -0.374 C  
BRANCH  14  15
HETATM   15  C   UNL     1     -10.732   6.344  66.863  1.00  0.00    -0.408 C  
BRANCH  15  16
HETATM   16  C   UNL     1     -10.304   4.944  66.436  1.00  0.00    -0.328 C  
BRANCH  16  17
HETATM   17  C   UNL     1     -10.962   4.527  65.125  1.00  0.00    -0.017 C  
HETATM   18  C   UNL     1     -10.135   3.496  64.396  1.00  0.00    -0.182 C  
HETATM   19  O   UNL     1      -9.073   3.034  64.779  1.00  0.00    -0.130 OA 
HETATM   20  O   UNL     1     -10.705   3.117  63.227  1.00  0.00    -0.215 OA 
ENDBRANCH  16  17
ENDBRANCH  15  16
ENDBRANCH  14  15
ENDBRANCH  13  14
ENDBRANCH  12  13
ENDBRANCH  11  12
ENDBRANCH  10  11
ENDBRANCH   8   9
ENDBRANCH   7   8
ENDBRANCH   5   6
ENDBRANCH   4   5
ENDBRANCH   3   4
ENDBRANCH   2   3
TORSDOF 13
ENDMDL
MODEL      401
REMARK 921   NORMALIZED FREE ENERGY PREDICTED BY IDOCK:   -2.62 KCAL/MOL
REMARK 922        TOTAL FREE ENERGY PREDICTED BY IDOCK:   -6.35 KCAL/MOL
REMARK 923 INTER-LIGAND FREE ENERGY PREDICTED BY IDOCK:   -5.43 KCAL/MOL
REMARK 924 INTRA-LIGAND FREE ENERGY PREDICTED BY IDOCK:   -0.92 KCAL/MOL
REMARK 927      BINDING AFFINITY PREDICTED BY RF-SCORE:    0.00 PKD
ROOT
HETATM    1  C   UNL     1      -8.493  15.641  66.979  1.00  0.00    -0.257 C  
HETATM    2  C   UNL     1      -8.913  14.225  66.627  1.00  0.00    -0.212 C  
ENDROOT
BRANCH   2   3
HETATM    3  C   UNL     1     -10.286  14.207  65.967  1.00  0.00    -0.318 C  
BRANCH   3   4
HETATM    4  C   UNL     1     -11.335  14.869  66.858  1.00  0.00    -0.338 C  
BRANCH   4   5
HETATM    5  C   UNL     1     -11.591  13.998  68.081  1.00  0.00    -0.369 C  
BRANCH   5   6
HETATM    6  C   UNL     1     -11.896  12.570  67.742  1.00  0.00    -0.375 C  
HETATM    7  C   UNL     1     -11.959  11.605  68.673  1.00  0.00    -0.311 C  
BRANCH   7   8
HETATM    8  C   UNL     1     -11.711  11.824  70.137  1.00  0.00    -0.354 C  
BRANCH   8   9
HETATM    9  C   UNL     1     -12.720  11.110  70.986  1.00  0.00    -0.476 C  
HETATM   10  C   UNL     1     -12.467   9.986  71.674  1.00  0.00    -0.513 C  
BRANCH  10  11
HETATM   11  C   UNL     1     -11.133   9.304  71.638  1.00  0.00    -0.438 C  
BRANCH  11  12
HETATM   12  C   UNL     1     -11.230   7.793  71.779  1.00  0.00    -0.298 C  
BRANCH  12  13
HETATM   13  C   UNL     1     -11.088   7.140  70.406  1.00  0.00    -0.309 C  
BRANCH  13  14
HETATM   14  C   UNL     1     -10.729   5.668  70.550  1.00  0.00    -0.344 C  
BRANCH  14  15
HETATM   15  C   UNL     1      -9.847   5.197  69.397  1.00  0.00    -0.269 C  
BRANCH  15  16
HETATM   16  C   UNL     1      -8.374   5.380  69.751  1.00  0.00    -0.100 C  
BRANCH  16  17
HETATM   17  C   UNL     1      -7.468   4.558  68.841  1.00  0.00    -0.056 C  
HETATM   18  C   UNL     1      -6.792   3.442  69.600  1.00  0.00    -0.037 C  
HETATM   19  O   UNL     1      -6.931   3.201  70.787  1.00  0.00    -0.032 OA 
HETATM   20  O   UNL     1      -5.980   2.702  68.806  1.00  0.00    -0.023 OA 
ENDBRANCH  16  17
ENDBRANCH  15  16
ENDBRANCH  14  15
ENDBRANCH  13  14
ENDBRANCH  12  13
ENDBRANCH  11  12
ENDBRANCH  10  11
ENDBRANCH   8   9
ENDBRANCH   7   8
ENDBRANCH   5   6
ENDBRANCH   4   5
ENDBRANCH   3   4
ENDBRANCH   2   3
TORSDOF 13
ENDMDL
MODEL      402
REMARK 921   NORMALIZED FREE ENERGY PREDICTED BY IDOCK:   -2.61 KCAL/MOL
REMARK 922        TOTAL FREE ENERGY PREDICTED BY IDOCK:   -6.34 KCAL/MOL
REMARK 923 INTER-LIGAND FREE ENERGY PREDICTED BY IDOCK:   -4.33 KCAL/MOL
REMARK 924 INTRA-LIGAND FREE ENERGY PREDICTED BY IDOCK:   -2.01 KCAL/MOL
REMARK 927      BINDING AFFINITY PREDICTED BY RF-SCORE:    0.00 PKD
ROOT
HETATM    1  C   UNL     1      -6.799  14.348  68.297  1.00  0.00    -0.111 C  
HETATM    2  C   UNL     1      -6.337  12.933  68.596  1.00  0.00    -0.075 C  
ENDROOT
BRANCH   2   3
HETATM    3  C   UNL     1      -7.155  11.911  67.818  1.00  0.00    -0.103 C  
BRANCH   3   4
HETATM    4  C   UNL     1      -8.012  11.061  68.753  1.00  0.00    -0.144 C  
BRANCH   4   5
HETATM    5  C   UNL     1      -7.375   9.689  68.926  1.00  0.00    -0.073 C  
BRANCH   5   6
HETATM    6  C   UNL     1      -6.260   9.424  67.960  1.00  0.00    -0.057 C  
HETATM    7  C   UNL     1      -6.365   8.528  66.965  1.00  0.00    -0.057 C  
BRANCH   7   8
HETATM    8  C   UNL     1      -7.575   7.677  66.717  1.00  0.00    -0.098 C  
BRANCH   8   9
HETATM    9  C   UNL     1      -8.565   8.362  65.822  1.00  0.00    -0.181 C  
HETATM   10  C   UNL     1      -9.836   8.622  66.164  1.00  0.00    -0.269 C  
BRANCH  10  11
HETATM   11  C   UNL     1     -10.412   8.221  67.488  1.00  0.00    -0.325 C  
BRANCH  11  12
HETATM   12  C   UNL     1     -10.959   6.803  67.498  1.00  0.00    -0.375 C  
BRANCH  12  13
HETATM   13  C   UNL     1     -10.983   6.273  68.930  1.00  0.00    -0.435 C  
BRANCH  13  14
HETATM   14  C   UNL     1      -9.757   6.747  69.696  1.00  0.00    -0.160 C  
BRANCH  14  15
HETATM   15  C   UNL     1     -10.007   6.746  71.202  1.00  0.00    -0.194 C  
BRANCH  15  16
HETATM   16  C   UNL     1     -10.308   8.160  71.688  1.00  0.00    -0.284 C  
BRANCH  16  17
HETATM   17  C   UNL     1     -11.463   8.181  72.683  1.00  0.00    -0.454 C  
HETATM   18  C   UNL     1     -12.686   8.842  72.094  1.00  0.00    -0.400 C  
HETATM   19  O   UNL     1     -12.772   9.309  70.971  1.00  0.00    -0.270 OA 
HETATM   20  O   UNL     1     -13.721   8.872  72.967  1.00  0.00    -0.264 OA 
ENDBRANCH  16  17
ENDBRANCH  15  16
ENDBRANCH  14  15
ENDBRANCH  13  14
ENDBRANCH  12  13
ENDBRANCH  11  12
ENDBRANCH  10  11
ENDBRANCH   8   9
ENDBRANCH   7   8
ENDBRANCH   5   6
ENDBRANCH   4   5
ENDBRANCH   3   4
ENDBRANCH   2   3
TORSDOF 13
ENDMDL
MODEL      403
REMARK 921   NORMALIZED FREE ENERGY PREDICTED BY IDOCK:   -2.60 KCAL/MOL
REMARK 922        TOTAL FREE ENERGY PREDICTED BY IDOCK:   -6.32 KCAL/MOL
REMARK 923 INTER-LIGAND FREE ENERGY PREDICTED BY IDOCK:   -3.85 KCAL/MOL
REMARK 924 INTRA-LIGAND FREE ENERGY PREDICTED BY IDOCK:   -2.46 KCAL/MOL
REMARK 927      BINDING AFFINITY PREDICTED BY RF-SCORE:    0.00 PKD
ROOT
HETATM    1  C   UNL     1     -10.643   8.729  67.525  1.00  0.00    -0.298 C  
HETATM    2  C   UNL     1     -10.687   7.309  66.989  1.00  0.00    -0.406 C  
ENDROOT
BRANCH   2   3
HETATM    3  C   UNL     1      -9.287   6.720  66.878  1.00  0.00    -0.176 C  
BRANCH   3   4
HETATM    4  C   UNL     1      -8.444   7.066  68.104  1.00  0.00    -0.129 C  
BRANCH   4   5
HETATM    5  C   UNL     1      -7.025   7.410  67.670  1.00  0.00    -0.079 C  
BRANCH   5   6
HETATM    6  C   UNL     1      -6.897   8.786  67.090  1.00  0.00    -0.067 C  
HETATM    7  C   UNL     1      -7.072   9.897  67.822  1.00  0.00    -0.087 C  
BRANCH   7   8
HETATM    8  C   UNL     1      -7.437   9.903  69.277  1.00  0.00    -0.096 C  
BRANCH   8   9
HETATM    9  C   UNL     1      -6.239   9.695  70.154  1.00  0.00    -0.064 C  
HETATM   10  C   UNL     1      -6.222   8.895  71.231  1.00  0.00    -0.060 C  
BRANCH  10  11
HETATM   11  C   UNL     1      -7.431   8.138  71.690  1.00  0.00    -0.092 C  
BRANCH  11  12
HETATM   12  C   UNL     1      -7.287   6.632  71.538  1.00  0.00    -0.087 C  
BRANCH  12  13
HETATM   13  C   UNL     1      -8.546   5.942  72.060  1.00  0.00    -0.137 C  
BRANCH  13  14
HETATM   14  C   UNL     1      -8.975   4.829  71.116  1.00  0.00    -0.167 C  
BRANCH  14  15
HETATM   15  C   UNL     1     -10.284   5.172  70.410  1.00  0.00    -0.334 C  
BRANCH  15  16
HETATM   16  C   UNL     1     -11.190   5.972  71.340  1.00  0.00    -0.325 C  
BRANCH  16  17
HETATM   17  C   UNL     1     -11.778   7.195  70.643  1.00  0.00    -0.348 C  
HETATM   18  C   UNL     1     -11.474   8.462  71.403  1.00  0.00    -0.277 C  
HETATM   19  O   UNL     1     -10.842   8.535  72.444  1.00  0.00    -0.346 OA 
HETATM   20  O   UNL     1     -11.991   9.558  70.798  1.00  0.00    -0.279 OA 
ENDBRANCH  16  17
ENDBRANCH  15  16
ENDBRANCH  14  15
ENDBRANCH  13  14
ENDBRANCH  12  13
ENDBRANCH  11  12
ENDBRANCH  10  11
ENDBRANCH   8   9
ENDBRANCH   7   8
ENDBRANCH   5   6
ENDBRANCH   4   5
ENDBRANCH   3   4
ENDBRANCH   2   3
TORSDOF 13
ENDMDL
MODEL      404
REMARK 921   NORMALIZED FREE ENERGY PREDICTED BY IDOCK:   -2.59 KCAL/MOL
REMARK 922        TOTAL FREE ENERGY PREDICTED BY IDOCK:   -6.30 KCAL/MOL
REMARK 923 INTER-LIGAND FREE ENERGY PREDICTED BY IDOCK:   -4.78 KCAL/MOL
REMARK 924 INTRA-LIGAND FREE ENERGY PREDICTED BY IDOCK:   -1.52 KCAL/MOL
REMARK 927      BINDING AFFINITY PREDICTED BY RF-SCORE:    0.00 PKD
ROOT
HETATM    1  C   UNL     1      -9.718  10.556  62.584  1.00  0.00    -0.214 C  
HETATM    2  C   UNL     1     -10.220  11.483  63.677  1.00  0.00    -0.450 C  
ENDROOT
BRANCH   2   3
HETATM    3  C   UNL     1     -10.398  10.736  64.992  1.00  0.00    -0.357 C  
BRANCH   3   4
HETATM    4  C   UNL     1      -9.291  11.091  65.983  1.00  0.00    -0.225 C  
BRANCH   4   5
HETATM    5  C   UNL     1      -8.199  10.031  65.933  1.00  0.00    -0.128 C  
BRANCH   5   6
HETATM    6  C   UNL     1      -7.844   9.478  67.280  1.00  0.00    -0.098 C  
HETATM    7  C   UNL     1      -8.008   8.183  67.594  1.00  0.00    -0.122 C  
BRANCH   7   8
HETATM    8  C   UNL     1      -8.581   7.153  66.666  1.00  0.00    -0.124 C  
BRANCH   8   9
HETATM    9  C   UNL     1     -10.051   6.957  66.889  1.00  0.00    -0.286 C  
HETATM   10  C   UNL     1     -10.583   5.904  67.529  1.00  0.00    -0.347 C  
BRANCH  10  11
HETATM   11  C   UNL     1      -9.746   4.784  68.069  1.00  0.00    -0.202 C  
BRANCH  11  12
HETATM   12  C   UNL     1     -10.005   4.501  69.540  1.00  0.00    -0.235 C  
BRANCH  12  13
HETATM   13  C   UNL     1      -8.710   4.673  70.330  1.00  0.00    -0.120 C  
BRANCH  13  14
HETATM   14  C   UNL     1      -8.900   5.680  71.455  1.00  0.00    -0.141 C  
BRANCH  14  15
HETATM   15  C   UNL     1      -9.622   6.932  70.964  1.00  0.00    -0.172 C  
BRANCH  15  16
HETATM   16  C   UNL     1      -9.750   7.945  72.097  1.00  0.00    -0.257 C  
BRANCH  16  17
HETATM   17  C   UNL     1     -10.432   9.228  71.633  1.00  0.00    -0.328 C  
HETATM   18  C   UNL     1     -11.930   9.058  71.554  1.00  0.00    -0.344 C  
HETATM   19  O   UNL     1     -12.547   8.040  71.821  1.00  0.00    -0.306 OA 
HETATM   20  O   UNL     1     -12.551  10.189  71.140  1.00  0.00    -0.324 OA 
ENDBRANCH  16  17
ENDBRANCH  15  16
ENDBRANCH  14  15
ENDBRANCH  13  14
ENDBRANCH  12  13
ENDBRANCH  11  12
ENDBRANCH  10  11
ENDBRANCH   8   9
ENDBRANCH   7   8
ENDBRANCH   5   6
ENDBRANCH   4   5
ENDBRANCH   3   4
ENDBRANCH   2   3
TORSDOF 13
ENDMDL
MODEL      405
REMARK 921   NORMALIZED FREE ENERGY PREDICTED BY IDOCK:   -2.58 KCAL/MOL
REMARK 922        TOTAL FREE ENERGY PREDICTED BY IDOCK:   -6.28 KCAL/MOL
REMARK 923 INTER-LIGAND FREE ENERGY PREDICTED BY IDOCK:   -5.07 KCAL/MOL
REMARK 924 INTRA-LIGAND FREE ENERGY PREDICTED BY IDOCK:   -1.21 KCAL/MOL
REMARK 927      BINDING AFFINITY PREDICTED BY RF-SCORE:    0.00 PKD
ROOT
HETATM    1  C   UNL     1     -12.860  15.899  73.072  1.00  0.00    -0.615 C  
HETATM    2  C   UNL     1     -13.114  14.420  72.839  1.00  0.00    -0.612 C  
ENDROOT
BRANCH   2   3
HETATM    3  C   UNL     1     -13.254  14.114  71.354  1.00  0.00    -0.418 C  
BRANCH   3   4
HETATM    4  C   UNL     1     -11.969  14.447  70.598  1.00  0.00    -0.393 C  
BRANCH   4   5
HETATM    5  C   UNL     1     -12.271  15.443  69.487  1.00  0.00    -0.277 C  
BRANCH   5   6
HETATM    6  C   UNL     1     -11.979  14.913  68.116  1.00  0.00    -0.234 C  
HETATM    7  C   UNL     1     -10.803  15.111  67.501  1.00  0.00    -0.301 C  
BRANCH   7   8
HETATM    8  C   UNL     1      -9.664  15.895  68.084  1.00  0.00    -0.212 C  
BRANCH   8   9
HETATM    9  C   UNL     1      -8.420  15.771  67.257  1.00  0.00    -0.212 C  
HETATM   10  C   UNL     1      -7.654  14.670  67.207  1.00  0.00    -0.173 C  
BRANCH  10  11
HETATM   11  C   UNL     1      -7.957  13.442  68.011  1.00  0.00    -0.148 C  
BRANCH  11  12
HETATM   12  C   UNL     1      -6.856  12.395  67.943  1.00  0.00    -0.099 C  
BRANCH  12  13
HETATM   13  C   UNL     1      -6.777  11.827  66.528  1.00  0.00     0.111 C  
BRANCH  13  14
HETATM   14  C   UNL     1      -7.460  10.469  66.458  1.00  0.00    -0.128 C  
BRANCH  14  15
HETATM   15  C   UNL     1      -7.374   9.734  67.793  1.00  0.00    -0.089 C  
BRANCH  15  16
HETATM   16  C   UNL     1      -8.729   9.751  68.494  1.00  0.00    -0.120 C  
BRANCH  16  17
HETATM   17  C   UNL     1      -9.868  10.006  67.513  1.00  0.00    -0.211 C  
HETATM   18  C   UNL     1     -10.781  11.104  68.003  1.00  0.00    -0.211 C  
HETATM   19  O   UNL     1     -10.652  11.727  69.044  1.00  0.00    -0.204 OA 
HETATM   20  O   UNL     1     -11.802  11.342  67.144  1.00  0.00    -0.524 OA 
ENDBRANCH  16  17
ENDBRANCH  15  16
ENDBRANCH  14  15
ENDBRANCH  13  14
ENDBRANCH  12  13
ENDBRANCH  11  12
ENDBRANCH  10  11
ENDBRANCH   8   9
ENDBRANCH   7   8
ENDBRANCH   5   6
ENDBRANCH   4   5
ENDBRANCH   3   4
ENDBRANCH   2   3
TORSDOF 13
ENDMDL
MODEL      406
REMARK 921   NORMALIZED FREE ENERGY PREDICTED BY IDOCK:   -2.57 KCAL/MOL
REMARK 922        TOTAL FREE ENERGY PREDICTED BY IDOCK:   -6.27 KCAL/MOL
REMARK 923 INTER-LIGAND FREE ENERGY PREDICTED BY IDOCK:   -4.59 KCAL/MOL
REMARK 924 INTRA-LIGAND FREE ENERGY PREDICTED BY IDOCK:   -1.68 KCAL/MOL
REMARK 927      BINDING AFFINITY PREDICTED BY RF-SCORE:    0.00 PKD
ROOT
HETATM    1  C   UNL     1     -10.974   6.053  71.798  1.00  0.00    -0.323 C  
HETATM    2  C   UNL     1      -9.519   6.482  71.748  1.00  0.00    -0.155 C  
ENDROOT
BRANCH   2   3
HETATM    3  C   UNL     1      -8.615   5.434  72.384  1.00  0.00    -0.122 C  
BRANCH   3   4
HETATM    4  C   UNL     1      -7.638   4.855  71.363  1.00  0.00    -0.083 C  
BRANCH   4   5
HETATM    5  C   UNL     1      -7.817   3.345  71.281  1.00  0.00    -0.059 C  
BRANCH   5   6
HETATM    6  C   UNL     1      -9.216   2.930  70.941  1.00  0.00    -0.207 C  
HETATM    7  C   UNL     1      -9.647   2.810  69.675  1.00  0.00    -0.061 C  
BRANCH   7   8
HETATM    8  C   UNL     1      -8.807   3.098  68.466  1.00  0.00    -0.166 C  
BRANCH   8   9
HETATM    9  C   UNL     1      -9.590   3.798  67.396  1.00  0.00    -0.208 C  
HETATM   10  C   UNL     1      -9.656   5.131  67.259  1.00  0.00    -0.155 C  
BRANCH  10  11
HETATM   11  C   UNL     1      -8.962   6.071  68.197  1.00  0.00    -0.112 C  
BRANCH  11  12
HETATM   12  C   UNL     1      -9.600   7.450  68.242  1.00  0.00    -0.153 C  
BRANCH  12  13
HETATM   13  C   UNL     1     -10.116   7.822  66.854  1.00  0.00    -0.356 C  
BRANCH  13  14
HETATM   14  C   UNL     1      -9.062   8.600  66.082  1.00  0.00    -0.250 C  
BRANCH  14  15
HETATM   15  C   UNL     1      -9.690   9.716  65.253  1.00  0.00    -0.330 C  
BRANCH  15  16
HETATM   16  C   UNL     1      -9.538  11.055  65.968  1.00  0.00    -0.249 C  
BRANCH  16  17
HETATM   17  C   UNL     1     -10.244  11.057  67.320  1.00  0.00    -0.234 C  
HETATM   18  C   UNL     1     -11.621  11.666  67.221  1.00  0.00    -0.238 C  
HETATM   19  O   UNL     1     -12.134  12.109  66.206  1.00  0.00    -0.626 OA 
HETATM   20  O   UNL     1     -12.262  11.678  68.415  1.00  0.00    -0.498 OA 
ENDBRANCH  16  17
ENDBRANCH  15  16
ENDBRANCH  14  15
ENDBRANCH  13  14
ENDBRANCH  12  13
ENDBRANCH  11  12
ENDBRANCH  10  11
ENDBRANCH   8   9
ENDBRANCH   7   8
ENDBRANCH   5   6
ENDBRANCH   4   5
ENDBRANCH   3   4
ENDBRANCH   2   3
TORSDOF 13
ENDMDL
MODEL      407
REMARK 921   NORMALIZED FREE ENERGY PREDICTED BY IDOCK:   -2.57 KCAL/MOL
REMARK 922        TOTAL FREE ENERGY PREDICTED BY IDOCK:   -6.26 KCAL/MOL
REMARK 923 INTER-LIGAND FREE ENERGY PREDICTED BY IDOCK:   -4.80 KCAL/MOL
REMARK 924 INTRA-LIGAND FREE ENERGY PREDICTED BY IDOCK:   -1.46 KCAL/MOL
REMARK 927      BINDING AFFINITY PREDICTED BY RF-SCORE:    0.00 PKD
ROOT
HETATM    1  C   UNL     1      -7.231  15.528  69.454  1.00  0.00    -0.204 C  
HETATM    2  C   UNL     1      -8.016  16.097  68.285  1.00  0.00    -0.152 C  
ENDROOT
BRANCH   2   3
HETATM    3  C   UNL     1      -8.489  17.514  68.580  1.00  0.00    -0.258 C  
BRANCH   3   4
HETATM    4  C   UNL     1      -9.991  17.657  68.339  1.00  0.00    -0.356 C  
BRANCH   4   5
HETATM    5  C   UNL     1     -10.570  16.316  67.907  1.00  0.00    -0.318 C  
BRANCH   5   6
HETATM    6  C   UNL     1     -11.778  15.908  68.696  1.00  0.00    -0.328 C  
HETATM    7  C   UNL     1     -11.864  14.726  69.325  1.00  0.00    -0.352 C  
BRANCH   7   8
HETATM    8  C   UNL     1     -10.796  13.673  69.297  1.00  0.00    -0.123 C  
BRANCH   8   9
HETATM    9  C   UNL     1     -11.172  12.519  68.416  1.00  0.00    -0.313 C  
HETATM   10  C   UNL     1     -11.489  11.296  68.870  1.00  0.00    -0.363 C  
BRANCH  10  11
HETATM   11  C   UNL     1     -11.470  10.949  70.328  1.00  0.00    -0.391 C  
BRANCH  11  12
HETATM   12  C   UNL     1     -10.663   9.698  70.634  1.00  0.00    -0.388 C  
BRANCH  12  13
HETATM   13  C   UNL     1     -11.252   8.510  69.878  1.00  0.00    -0.035 C  
BRANCH  13  14
HETATM   14  C   UNL     1     -10.152   7.719  69.184  1.00  0.00    -0.196 C  
BRANCH  14  15
HETATM   15  C   UNL     1      -9.446   6.779  70.157  1.00  0.00    -0.159 C  
BRANCH  15  16
HETATM   16  C   UNL     1      -7.949   7.076  70.185  1.00  0.00    -0.114 C  
BRANCH  16  17
HETATM   17  C   UNL     1      -7.448   7.315  71.605  1.00  0.00    -0.085 C  
HETATM   18  C   UNL     1      -7.197   8.781  71.861  1.00  0.00    -0.018 C  
HETATM   19  O   UNL     1      -7.364   9.684  71.057  1.00  0.00    -0.321 OA 
HETATM   20  O   UNL     1      -6.748   9.012  73.118  1.00  0.00    -0.324 OA 
ENDBRANCH  16  17
ENDBRANCH  15  16
ENDBRANCH  14  15
ENDBRANCH  13  14
ENDBRANCH  12  13
ENDBRANCH  11  12
ENDBRANCH  10  11
ENDBRANCH   8   9
ENDBRANCH   7   8
ENDBRANCH   5   6
ENDBRANCH   4   5
ENDBRANCH   3   4
ENDBRANCH   2   3
TORSDOF 13
ENDMDL
MODEL      408
REMARK 921   NORMALIZED FREE ENERGY PREDICTED BY IDOCK:   -2.56 KCAL/MOL
REMARK 922        TOTAL FREE ENERGY PREDICTED BY IDOCK:   -6.26 KCAL/MOL
REMARK 923 INTER-LIGAND FREE ENERGY PREDICTED BY IDOCK:   -4.46 KCAL/MOL
REMARK 924 INTRA-LIGAND FREE ENERGY PREDICTED BY IDOCK:   -1.80 KCAL/MOL
REMARK 927      BINDING AFFINITY PREDICTED BY RF-SCORE:    0.00 PKD
ROOT
HETATM    1  C   UNL     1      -5.623  12.446  69.243  1.00  0.00    -0.075 C  
HETATM    2  C   UNL     1      -6.912  12.893  68.576  1.00  0.00    -0.098 C  
ENDROOT
BRANCH   2   3
HETATM    3  C   UNL     1      -6.718  14.207  67.831  1.00  0.00    -0.176 C  
BRANCH   3   4
HETATM    4  C   UNL     1      -7.997  15.042  67.841  1.00  0.00    -0.146 C  
BRANCH   4   5
HETATM    5  C   UNL     1      -8.861  14.669  66.645  1.00  0.00    -0.240 C  
BRANCH   5   6
HETATM    6  C   UNL     1     -10.151  15.431  66.581  1.00  0.00    -0.273 C  
HETATM    7  C   UNL     1     -11.042  15.261  65.591  1.00  0.00    -0.308 C  
BRANCH   7   8
HETATM    8  C   UNL     1     -10.852  14.326  64.433  1.00  0.00    -0.168 C  
BRANCH   8   9
HETATM    9  C   UNL     1     -11.760  13.136  64.522  1.00  0.00    -0.417 C  
HETATM   10  C   UNL     1     -11.454  11.917  64.051  1.00  0.00    -0.480 C  
BRANCH  10  11
HETATM   11  C   UNL     1     -10.162  11.627  63.350  1.00  0.00    -0.471 C  
BRANCH  11  12
HETATM   12  C   UNL     1      -9.375  10.494  63.991  1.00  0.00    -0.308 C  
BRANCH  12  13
HETATM   13  C   UNL     1      -9.574  10.525  65.504  1.00  0.00    -0.282 C  
BRANCH  13  14
HETATM   14  C   UNL     1     -10.185   9.218  65.989  1.00  0.00    -0.156 C  
BRANCH  14  15
HETATM   15  C   UNL     1     -10.771   9.365  67.391  1.00  0.00    -0.280 C  
BRANCH  15  16
HETATM   16  C   UNL     1     -10.629  10.805  67.874  1.00  0.00    -0.258 C  
BRANCH  16  17
HETATM   17  C   UNL     1     -11.944  11.348  68.423  1.00  0.00    -0.270 C  
HETATM   18  C   UNL     1     -11.726  12.599  69.238  1.00  0.00    -0.322 C  
HETATM   19  O   UNL     1     -10.650  13.134  69.450  1.00  0.00     0.047 OA 
HETATM   20  O   UNL     1     -12.885  13.094  69.736  1.00  0.00     0.227 OA 
ENDBRANCH  16  17
ENDBRANCH  15  16
ENDBRANCH  14  15
ENDBRANCH  13  14
ENDBRANCH  12  13
ENDBRANCH  11  12
ENDBRANCH  10  11
ENDBRANCH   8   9
ENDBRANCH   7   8
ENDBRANCH   5   6
ENDBRANCH   4   5
ENDBRANCH   3   4
ENDBRANCH   2   3
TORSDOF 13
ENDMDL
MODEL      409
REMARK 921   NORMALIZED FREE ENERGY PREDICTED BY IDOCK:   -2.55 KCAL/MOL
REMARK 922        TOTAL FREE ENERGY PREDICTED BY IDOCK:   -6.23 KCAL/MOL
REMARK 923 INTER-LIGAND FREE ENERGY PREDICTED BY IDOCK:   -4.99 KCAL/MOL
REMARK 924 INTRA-LIGAND FREE ENERGY PREDICTED BY IDOCK:   -1.24 KCAL/MOL
REMARK 927      BINDING AFFINITY PREDICTED BY RF-SCORE:    0.00 PKD
ROOT
HETATM    1  C   UNL     1     -11.031  15.343  65.944  1.00  0.00    -0.293 C  
HETATM    2  C   UNL     1     -11.688  14.035  66.350  1.00  0.00    -0.407 C  
ENDROOT
BRANCH   2   3
HETATM    3  C   UNL     1     -10.646  12.965  66.646  1.00  0.00    -0.273 C  
BRANCH   3   4
HETATM    4  C   UNL     1     -10.057  13.138  68.044  1.00  0.00    -0.232 C  
BRANCH   4   5
HETATM    5  C   UNL     1     -10.893  12.361  69.052  1.00  0.00    -0.194 C  
BRANCH   5   6
HETATM    6  C   UNL     1     -11.286  10.996  68.573  1.00  0.00    -0.329 C  
HETATM    7  C   UNL     1     -11.507   9.972  69.413  1.00  0.00    -0.139 C  
BRANCH   7   8
HETATM    8  C   UNL     1     -11.366  10.056  70.905  1.00  0.00    -0.439 C  
BRANCH   8   9
HETATM    9  C   UNL     1     -10.104   9.401  71.383  1.00  0.00    -0.263 C  
HETATM   10  C   UNL     1     -10.069   8.360  72.229  1.00  0.00    -0.382 C  
BRANCH  10  11
HETATM   11  C   UNL     1     -11.310   7.755  72.812  1.00  0.00    -0.446 C  
BRANCH  11  12
HETATM   12  C   UNL     1     -11.874   6.620  71.973  1.00  0.00    -0.365 C  
BRANCH  12  13
HETATM   13  C   UNL     1     -10.821   5.526  71.816  1.00  0.00    -0.277 C  
BRANCH  13  14
HETATM   14  C   UNL     1     -10.459   5.341  70.349  1.00  0.00    -0.322 C  
BRANCH  14  15
HETATM   15  C   UNL     1      -9.359   4.297  70.176  1.00  0.00    -0.228 C  
BRANCH  15  16
HETATM   16  C   UNL     1      -8.571   4.568  68.898  1.00  0.00    -0.101 C  
BRANCH  16  17
HETATM   17  C   UNL     1      -8.048   5.999  68.849  1.00  0.00    -0.104 C  
HETATM   18  C   UNL     1      -7.145   6.215  67.660  1.00  0.00    -0.074 C  
HETATM   19  O   UNL     1      -6.851   5.375  66.826  1.00  0.00    -0.060 OA 
HETATM   20  O   UNL     1      -6.668   7.482  67.604  1.00  0.00    -0.062 OA 
ENDBRANCH  16  17
ENDBRANCH  15  16
ENDBRANCH  14  15
ENDBRANCH  13  14
ENDBRANCH  12  13
ENDBRANCH  11  12
ENDBRANCH  10  11
ENDBRANCH   8   9
ENDBRANCH   7   8
ENDBRANCH   5   6
ENDBRANCH   4   5
ENDBRANCH   3   4
ENDBRANCH   2   3
TORSDOF 13
ENDMDL
MODEL      410
REMARK 921   NORMALIZED FREE ENERGY PREDICTED BY IDOCK:   -2.55 KCAL/MOL
REMARK 922        TOTAL FREE ENERGY PREDICTED BY IDOCK:   -6.23 KCAL/MOL
REMARK 923 INTER-LIGAND FREE ENERGY PREDICTED BY IDOCK:   -4.82 KCAL/MOL
REMARK 924 INTRA-LIGAND FREE ENERGY PREDICTED BY IDOCK:   -1.41 KCAL/MOL
REMARK 927      BINDING AFFINITY PREDICTED BY RF-SCORE:    0.00 PKD
ROOT
HETATM    1  C   UNL     1      -7.939  15.296  67.726  1.00  0.00    -0.159 C  
HETATM    2  C   UNL     1      -9.306  14.648  67.600  1.00  0.00    -0.200 C  
ENDROOT
BRANCH   2   3
HETATM    3  C   UNL     1      -9.686  14.446  66.139  1.00  0.00    -0.335 C  
BRANCH   3   4
HETATM    4  C   UNL     1     -10.915  15.272  65.768  1.00  0.00    -0.340 C  
BRANCH   4   5
HETATM    5  C   UNL     1     -11.551  14.708  64.504  1.00  0.00    -0.377 C  
BRANCH   5   6
HETATM    6  C   UNL     1     -12.573  13.646  64.775  1.00  0.00    -0.339 C  
HETATM    7  C   UNL     1     -12.383  12.360  64.441  1.00  0.00    -0.532 C  
BRANCH   7   8
HETATM    8  C   UNL     1     -11.161  11.838  63.745  1.00  0.00    -0.518 C  
BRANCH   8   9
HETATM    9  C   UNL     1     -10.286  11.047  64.672  1.00  0.00    -0.410 C  
HETATM   10  C   UNL     1      -9.382  10.142  64.266  1.00  0.00    -0.349 C  
BRANCH  10  11
HETATM   11  C   UNL     1      -9.174   9.804  62.821  1.00  0.00    -0.247 C  
BRANCH  11  12
HETATM   12  C   UNL     1      -7.739  10.001  62.361  1.00  0.00    -0.140 C  
BRANCH  12  13
HETATM   13  C   UNL     1      -7.000   8.665  62.404  1.00  0.00    -0.094 C  
BRANCH  13  14
HETATM   14  C   UNL     1      -7.986   7.507  62.379  1.00  0.00    -0.138 C  
BRANCH  14  15
HETATM   15  C   UNL     1      -7.312   6.194  62.765  1.00  0.00    -0.058 C  
BRANCH  15  16
HETATM   16  C   UNL     1      -7.023   6.169  64.263  1.00  0.00    -0.051 C  
BRANCH  16  17
HETATM   17  C   UNL     1      -8.278   6.438  65.085  1.00  0.00    -0.134 C  
HETATM   18  C   UNL     1      -8.727   5.202  65.825  1.00  0.00    -0.139 C  
HETATM   19  O   UNL     1      -8.179   4.112  65.792  1.00  0.00    -0.107 OA 
HETATM   20  O   UNL     1      -9.845   5.422  66.559  1.00  0.00    -0.151 OA 
ENDBRANCH  16  17
ENDBRANCH  15  16
ENDBRANCH  14  15
ENDBRANCH  13  14
ENDBRANCH  12  13
ENDBRANCH  11  12
ENDBRANCH  10  11
ENDBRANCH   8   9
ENDBRANCH   7   8
ENDBRANCH   5   6
ENDBRANCH   4   5
ENDBRANCH   3   4
ENDBRANCH   2   3
TORSDOF 13
ENDMDL
MODEL      411
REMARK 921   NORMALIZED FREE ENERGY PREDICTED BY IDOCK:   -2.53 KCAL/MOL
REMARK 922        TOTAL FREE ENERGY PREDICTED BY IDOCK:   -6.20 KCAL/MOL
REMARK 923 INTER-LIGAND FREE ENERGY PREDICTED BY IDOCK:   -5.11 KCAL/MOL
REMARK 924 INTRA-LIGAND FREE ENERGY PREDICTED BY IDOCK:   -1.09 KCAL/MOL
REMARK 927      BINDING AFFINITY PREDICTED BY RF-SCORE:    0.00 PKD
ROOT
HETATM    1  C   UNL     1      -7.326  15.452  69.407  1.00  0.00    -0.213 C  
HETATM    2  C   UNL     1      -8.254  15.833  68.267  1.00  0.00    -0.143 C  
ENDROOT
BRANCH   2   3
HETATM    3  C   UNL     1      -8.786  17.250  68.442  1.00  0.00    -0.261 C  
BRANCH   3   4
HETATM    4  C   UNL     1     -10.312  17.274  68.414  1.00  0.00    -0.366 C  
BRANCH   4   5
HETATM    5  C   UNL     1     -10.844  15.862  68.208  1.00  0.00    -0.315 C  
BRANCH   5   6
HETATM    6  C   UNL     1     -12.091  15.575  68.988  1.00  0.00    -0.246 C  
HETATM    7  C   UNL     1     -12.284  14.419  69.641  1.00  0.00    -0.353 C  
BRANCH   7   8
HETATM    8  C   UNL     1     -11.309  13.279  69.651  1.00  0.00    -0.191 C  
BRANCH   8   9
HETATM    9  C   UNL     1     -11.867  12.061  68.978  1.00  0.00    -0.372 C  
HETATM   10  C   UNL     1     -12.273  10.960  69.629  1.00  0.00    -0.354 C  
BRANCH  10  11
HETATM   11  C   UNL     1     -12.181  10.826  71.119  1.00  0.00    -0.457 C  
BRANCH  11  12
HETATM   12  C   UNL     1     -11.627   9.482  71.566  1.00  0.00    -0.465 C  
BRANCH  12  13
HETATM   13  C   UNL     1     -12.603   8.372  71.180  1.00  0.00    -0.156 C  
BRANCH  13  14
HETATM   14  C   UNL     1     -11.862   7.211  70.534  1.00  0.00    -0.286 C  
BRANCH  14  15
HETATM   15  C   UNL     1     -11.323   6.243  71.583  1.00  0.00    -0.347 C  
BRANCH  15  16
HETATM   16  C   UNL     1      -9.832   6.002  71.363  1.00  0.00    -0.204 C  
BRANCH  16  17
HETATM   17  C   UNL     1      -9.121   5.637  72.662  1.00  0.00    -0.132 C  
HETATM   18  C   UNL     1      -8.402   4.316  72.543  1.00  0.00    -0.101 C  
HETATM   19  O   UNL     1      -8.373   3.606  71.551  1.00  0.00    -0.067 OA 
HETATM   20  O   UNL     1      -7.767   3.974  73.691  1.00  0.00    -0.077 OA 
ENDBRANCH  16  17
ENDBRANCH  15  16
ENDBRANCH  14  15
ENDBRANCH  13  14
ENDBRANCH  12  13
ENDBRANCH  11  12
ENDBRANCH  10  11
ENDBRANCH   8   9
ENDBRANCH   7   8
ENDBRANCH   5   6
ENDBRANCH   4   5
ENDBRANCH   3   4
ENDBRANCH   2   3
TORSDOF 13
ENDMDL
MODEL      412
REMARK 921   NORMALIZED FREE ENERGY PREDICTED BY IDOCK:   -2.52 KCAL/MOL
REMARK 922        TOTAL FREE ENERGY PREDICTED BY IDOCK:   -6.19 KCAL/MOL
REMARK 923 INTER-LIGAND FREE ENERGY PREDICTED BY IDOCK:   -4.35 KCAL/MOL
REMARK 924 INTRA-LIGAND FREE ENERGY PREDICTED BY IDOCK:   -1.84 KCAL/MOL
REMARK 927      BINDING AFFINITY PREDICTED BY RF-SCORE:    0.00 PKD
ROOT
HETATM    1  C   UNL     1      -9.792   4.420  67.128  1.00  0.00    -0.217 C  
HETATM    2  C   UNL     1     -10.429   5.397  68.101  1.00  0.00    -0.188 C  
ENDROOT
BRANCH   2   3
HETATM    3  C   UNL     1      -9.382   6.304  68.733  1.00  0.00    -0.124 C  
BRANCH   3   4
HETATM    4  C   UNL     1      -9.079   5.882  70.169  1.00  0.00    -0.155 C  
BRANCH   4   5
HETATM    5  C   UNL     1     -10.312   5.233  70.783  1.00  0.00    -0.309 C  
BRANCH   5   6
HETATM    6  C   UNL     1     -10.485   5.542  72.240  1.00  0.00    -0.266 C  
HETATM    7  C   UNL     1     -11.454   6.351  72.696  1.00  0.00    -0.234 C  
BRANCH   7   8
HETATM    8  C   UNL     1     -12.448   7.056  71.822  1.00  0.00    -0.393 C  
BRANCH   8   9
HETATM    9  C   UNL     1     -12.599   8.499  72.200  1.00  0.00    -0.431 C  
HETATM   10  C   UNL     1     -12.010   9.515  71.550  1.00  0.00    -0.475 C  
BRANCH  10  11
HETATM   11  C   UNL     1     -11.103   9.301  70.377  1.00  0.00    -0.300 C  
BRANCH  11  12
HETATM   12  C   UNL     1      -9.628   9.380  70.739  1.00  0.00    -0.322 C  
BRANCH  12  13
HETATM   13  C   UNL     1      -8.832   9.886  69.538  1.00  0.00    -0.208 C  
BRANCH  13  14
HETATM   14  C   UNL     1      -7.341   9.678  69.760  1.00  0.00    -0.104 C  
BRANCH  14  15
HETATM   15  C   UNL     1      -6.598  11.009  69.828  1.00  0.00    -0.143 C  
BRANCH  15  16
HETATM   16  C   UNL     1      -6.216  11.472  68.425  1.00  0.00    -0.049 C  
BRANCH  16  17
HETATM   17  C   UNL     1      -7.159  12.553  67.910  1.00  0.00    -0.111 C  
HETATM   18  C   UNL     1      -6.631  13.935  68.210  1.00  0.00    -0.110 C  
HETATM   19  O   UNL     1      -5.587  14.188  68.788  1.00  0.00    -0.078 OA 
HETATM   20  O   UNL     1      -7.459  14.908  67.762  1.00  0.00    -0.130 OA 
ENDBRANCH  16  17
ENDBRANCH  15  16
ENDBRANCH  14  15
ENDBRANCH  13  14
ENDBRANCH  12  13
ENDBRANCH  11  12
ENDBRANCH  10  11
ENDBRANCH   8   9
ENDBRANCH   7   8
ENDBRANCH   5   6
ENDBRANCH   4   5
ENDBRANCH   3   4
ENDBRANCH   2   3
TORSDOF 13
ENDMDL
MODEL      413
REMARK 921   NORMALIZED FREE ENERGY PREDICTED BY IDOCK:   -2.50 KCAL/MOL
REMARK 922        TOTAL FREE ENERGY PREDICTED BY IDOCK:   -6.15 KCAL/MOL
REMARK 923 INTER-LIGAND FREE ENERGY PREDICTED BY IDOCK:   -5.30 KCAL/MOL
REMARK 924 INTRA-LIGAND FREE ENERGY PREDICTED BY IDOCK:   -0.85 KCAL/MOL
REMARK 927      BINDING AFFINITY PREDICTED BY RF-SCORE:    0.00 PKD
ROOT
HETATM    1  C   UNL     1     -10.108  15.455  65.349  1.00  0.00    -0.394 C  
HETATM    2  C   UNL     1     -11.503  14.949  65.029  1.00  0.00    -0.379 C  
ENDROOT
BRANCH   2   3
HETATM    3  C   UNL     1     -11.595  13.439  65.207  1.00  0.00    -0.329 C  
BRANCH   3   4
HETATM    4  C   UNL     1     -10.775  12.975  66.409  1.00  0.00    -0.295 C  
BRANCH   4   5
HETATM    5  C   UNL     1     -11.709  12.517  67.521  1.00  0.00    -0.439 C  
BRANCH   5   6
HETATM    6  C   UNL     1     -11.618  11.049  67.809  1.00  0.00    -0.277 C  
HETATM    7  C   UNL     1     -10.460  10.444  68.115  1.00  0.00    -0.221 C  
BRANCH   7   8
HETATM    8  C   UNL     1      -9.133  11.140  68.180  1.00  0.00    -0.159 C  
BRANCH   8   9
HETATM    9  C   UNL     1      -8.090  10.432  67.368  1.00  0.00    -0.107 C  
HETATM   10  C   UNL     1      -7.679   9.176  67.599  1.00  0.00    -0.089 C  
BRANCH  10  11
HETATM   11  C   UNL     1      -8.211   8.350  68.732  1.00  0.00    -0.119 C  
BRANCH  11  12
HETATM   12  C   UNL     1      -7.341   8.412  69.977  1.00  0.00    -0.059 C  
BRANCH  12  13
HETATM   13  C   UNL     1      -8.000   7.616  71.101  1.00  0.00    -0.091 C  
BRANCH  13  14
HETATM   14  C   UNL     1      -8.790   8.539  72.018  1.00  0.00    -0.286 C  
BRANCH  14  15
HETATM   15  C   UNL     1     -10.162   7.957  72.343  1.00  0.00    -0.327 C  
BRANCH  15  16
HETATM   16  C   UNL     1     -11.142   8.252  71.211  1.00  0.00    -0.296 C  
BRANCH  16  17
HETATM   17  C   UNL     1     -11.745   9.647  71.335  1.00  0.00    -0.478 C  
HETATM   18  C   UNL     1     -13.170   9.589  71.828  1.00  0.00    -0.422 C  
HETATM   19  O   UNL     1     -13.790   8.574  72.101  1.00  0.00    -0.384 OA 
HETATM   20  O   UNL     1     -13.723  10.821  71.941  1.00  0.00    -0.146 OA 
ENDBRANCH  16  17
ENDBRANCH  15  16
ENDBRANCH  14  15
ENDBRANCH  13  14
ENDBRANCH  12  13
ENDBRANCH  11  12
ENDBRANCH  10  11
ENDBRANCH   8   9
ENDBRANCH   7   8
ENDBRANCH   5   6
ENDBRANCH   4   5
ENDBRANCH   3   4
ENDBRANCH   2   3
TORSDOF 13
ENDMDL
MODEL      414
REMARK 921   NORMALIZED FREE ENERGY PREDICTED BY IDOCK:   -2.49 KCAL/MOL
REMARK 922        TOTAL FREE ENERGY PREDICTED BY IDOCK:   -6.13 KCAL/MOL
REMARK 923 INTER-LIGAND FREE ENERGY PREDICTED BY IDOCK:   -4.49 KCAL/MOL
REMARK 924 INTRA-LIGAND FREE ENERGY PREDICTED BY IDOCK:   -1.63 KCAL/MOL
REMARK 927      BINDING AFFINITY PREDICTED BY RF-SCORE:    0.00 PKD
ROOT
HETATM    1  C   UNL     1      -5.295  12.544  70.890  1.00  0.00    -0.166 C  
HETATM    2  C   UNL     1      -5.169  11.032  70.944  1.00  0.00    -0.113 C  
ENDROOT
BRANCH   2   3
HETATM    3  C   UNL     1      -5.568  10.399  69.617  1.00  0.00    -0.039 C  
BRANCH   3   4
HETATM    4  C   UNL     1      -7.041  10.655  69.305  1.00  0.00    -0.107 C  
BRANCH   4   5
HETATM    5  C   UNL     1      -7.833   9.366  69.477  1.00  0.00    -0.091 C  
BRANCH   5   6
HETATM    6  C   UNL     1      -8.840   9.429  70.586  1.00  0.00    -0.275 C  
HETATM    7  C   UNL     1     -10.163   9.460  70.359  1.00  0.00    -0.310 C  
BRANCH   7   8
HETATM    8  C   UNL     1     -10.787   9.464  68.995  1.00  0.00    -0.161 C  
BRANCH   8   9
HETATM    9  C   UNL     1     -11.847  10.516  68.869  1.00  0.00    -0.136 C  
HETATM   10  C   UNL     1     -11.617  11.775  68.464  1.00  0.00    -0.380 C  
BRANCH  10  11
HETATM   11  C   UNL     1     -10.245  12.270  68.118  1.00  0.00    -0.212 C  
BRANCH  11  12
HETATM   12  C   UNL     1      -9.699  11.669  66.833  1.00  0.00    -0.211 C  
BRANCH  12  13
HETATM   13  C   UNL     1      -9.420  12.781  65.825  1.00  0.00    -0.023 C  
BRANCH  13  14
HETATM   14  C   UNL     1     -10.722  13.337  65.268  1.00  0.00    -0.322 C  
BRANCH  14  15
HETATM   15  C   UNL     1     -10.642  14.847  65.069  1.00  0.00    -0.446 C  
BRANCH  15  16
HETATM   16  C   UNL     1      -9.582  15.445  65.989  1.00  0.00    -0.382 C  
BRANCH  16  17
HETATM   17  C   UNL     1      -9.991  16.820  66.504  1.00  0.00    -0.308 C  
HETATM   18  C   UNL     1     -10.508  16.747  67.920  1.00  0.00    -0.335 C  
HETATM   19  O   UNL     1     -10.598  15.734  68.594  1.00  0.00    -0.234 OA 
HETATM   20  O   UNL     1     -10.879  17.961  68.393  1.00  0.00    -0.239 OA 
ENDBRANCH  16  17
ENDBRANCH  15  16
ENDBRANCH  14  15
ENDBRANCH  13  14
ENDBRANCH  12  13
ENDBRANCH  11  12
ENDBRANCH  10  11
ENDBRANCH   8   9
ENDBRANCH   7   8
ENDBRANCH   5   6
ENDBRANCH   4   5
ENDBRANCH   3   4
ENDBRANCH   2   3
TORSDOF 13
ENDMDL
MODEL      415
REMARK 921   NORMALIZED FREE ENERGY PREDICTED BY IDOCK:   -2.48 KCAL/MOL
REMARK 922        TOTAL FREE ENERGY PREDICTED BY IDOCK:   -6.12 KCAL/MOL
REMARK 923 INTER-LIGAND FREE ENERGY PREDICTED BY IDOCK:   -4.31 KCAL/MOL
REMARK 924 INTRA-LIGAND FREE ENERGY PREDICTED BY IDOCK:   -1.81 KCAL/MOL
REMARK 927      BINDING AFFINITY PREDICTED BY RF-SCORE:    0.00 PKD
ROOT
HETATM    1  C   UNL     1     -10.370   4.228  65.025  1.00  0.00    -0.203 C  
HETATM    2  C   UNL     1      -9.082   4.732  65.651  1.00  0.00    -0.145 C  
ENDROOT
BRANCH   2   3
HETATM    3  C   UNL     1      -9.338   5.945  66.535  1.00  0.00    -0.166 C  
BRANCH   3   4
HETATM    4  C   UNL     1     -10.817   6.058  66.901  1.00  0.00    -0.396 C  
BRANCH   4   5
HETATM    5  C   UNL     1     -10.964   6.179  68.411  1.00  0.00    -0.391 C  
BRANCH   5   6
HETATM    6  C   UNL     1     -10.158   5.168  69.170  1.00  0.00    -0.274 C  
HETATM    7  C   UNL     1      -9.545   5.457  70.329  1.00  0.00    -0.236 C  
BRANCH   7   8
HETATM    8  C   UNL     1      -9.566   6.806  70.984  1.00  0.00    -0.175 C  
BRANCH   8   9
HETATM    9  C   UNL     1      -8.635   7.769  70.309  1.00  0.00    -0.138 C  
HETATM   10  C   UNL     1      -8.890   9.077  70.147  1.00  0.00    -0.196 C  
BRANCH  10  11
HETATM   11  C   UNL     1     -10.166   9.711  70.610  1.00  0.00    -0.346 C  
BRANCH  11  12
HETATM   12  C   UNL     1     -11.353   9.390  69.715  1.00  0.00    -0.071 C  
BRANCH  12  13
HETATM   13  C   UNL     1     -11.514  10.487  68.665  1.00  0.00    -0.290 C  
BRANCH  13  14
HETATM   14  C   UNL     1     -10.833  10.086  67.365  1.00  0.00    -0.313 C  
BRANCH  14  15
HETATM   15  C   UNL     1     -10.385  11.310  66.572  1.00  0.00    -0.284 C  
BRANCH  15  16
HETATM   16  C   UNL     1      -8.863  11.410  66.573  1.00  0.00    -0.187 C  
BRANCH  16  17
HETATM   17  C   UNL     1      -8.343  12.104  67.828  1.00  0.00    -0.159 C  
HETATM   18  C   UNL     1      -6.845  12.279  67.781  1.00  0.00    -0.109 C  
HETATM   19  O   UNL     1      -6.114  11.923  66.872  1.00  0.00    -0.153 OA 
HETATM   20  O   UNL     1      -6.367  12.891  68.891  1.00  0.00    -0.078 OA 
ENDBRANCH  16  17
ENDBRANCH  15  16
ENDBRANCH  14  15
ENDBRANCH  13  14
ENDBRANCH  12  13
ENDBRANCH  11  12
ENDBRANCH  10  11
ENDBRANCH   8   9
ENDBRANCH   7   8
ENDBRANCH   5   6
ENDBRANCH   4   5
ENDBRANCH   3   4
ENDBRANCH   2   3
TORSDOF 13
ENDMDL
MODEL      416
REMARK 921   NORMALIZED FREE ENERGY PREDICTED BY IDOCK:   -2.48 KCAL/MOL
REMARK 922        TOTAL FREE ENERGY PREDICTED BY IDOCK:   -6.12 KCAL/MOL
REMARK 923 INTER-LIGAND FREE ENERGY PREDICTED BY IDOCK:   -4.93 KCAL/MOL
REMARK 924 INTRA-LIGAND FREE ENERGY PREDICTED BY IDOCK:   -1.18 KCAL/MOL
REMARK 927      BINDING AFFINITY PREDICTED BY RF-SCORE:    0.00 PKD
ROOT
HETATM    1  C   UNL     1      -7.525   3.527  65.706  1.00  0.00    -0.077 C  
HETATM    2  C   UNL     1      -8.185   4.560  64.810  1.00  0.00    -0.108 C  
ENDROOT
BRANCH   2   3
HETATM    3  C   UNL     1      -7.365   5.843  64.755  1.00  0.00    -0.069 C  
BRANCH   3   4
HETATM    4  C   UNL     1      -8.236   7.040  64.379  1.00  0.00     0.025 C  
BRANCH   4   5
HETATM    5  C   UNL     1      -7.512   8.332  64.732  1.00  0.00    -0.093 C  
BRANCH   5   6
HETATM    6  C   UNL     1      -8.017   9.523  63.975  1.00  0.00    -0.141 C  
HETATM    7  C   UNL     1      -9.014  10.298  64.430  1.00  0.00    -0.255 C  
BRANCH   7   8
HETATM    8  C   UNL     1      -9.753  10.059  65.714  1.00  0.00    -0.321 C  
BRANCH   8   9
HETATM    9  C   UNL     1      -9.715  11.260  66.611  1.00  0.00    -0.222 C  
HETATM   10  C   UNL     1     -10.669  12.204  66.648  1.00  0.00    -0.281 C  
BRANCH  10  11
HETATM   11  C   UNL     1     -11.875  12.165  65.760  1.00  0.00    -0.342 C  
BRANCH  11  12
HETATM   12  C   UNL     1     -12.587  13.504  65.657  1.00  0.00    -0.512 C  
BRANCH  12  13
HETATM   13  C   UNL     1     -12.198  14.192  64.351  1.00  0.00    -0.466 C  
BRANCH  13  14
HETATM   14  C   UNL     1     -11.526  15.528  64.630  1.00  0.00    -0.326 C  
BRANCH  14  15
HETATM   15  C   UNL     1     -10.054  15.346  64.986  1.00  0.00    -0.210 C  
BRANCH  15  16
HETATM   16  C   UNL     1      -9.700  16.184  66.212  1.00  0.00    -0.332 C  
BRANCH  16  17
HETATM   17  C   UNL     1     -10.778  17.217  66.519  1.00  0.00    -0.078 C  
HETATM   18  C   UNL     1     -10.176  18.571  66.807  1.00  0.00    -0.393 C  
HETATM   19  O   UNL     1      -8.986  18.839  66.801  1.00  0.00    -0.288 OA 
HETATM   20  O   UNL     1     -11.121  19.502  67.085  1.00  0.00    -0.446 OA 
ENDBRANCH  16  17
ENDBRANCH  15  16
ENDBRANCH  14  15
ENDBRANCH  13  14
ENDBRANCH  12  13
ENDBRANCH  11  12
ENDBRANCH  10  11
ENDBRANCH   8   9
ENDBRANCH   7   8
ENDBRANCH   5   6
ENDBRANCH   4   5
ENDBRANCH   3   4
ENDBRANCH   2   3
TORSDOF 13
ENDMDL
MODEL      417
REMARK 921   NORMALIZED FREE ENERGY PREDICTED BY IDOCK:   -2.47 KCAL/MOL
REMARK 922        TOTAL FREE ENERGY PREDICTED BY IDOCK:   -6.10 KCAL/MOL
REMARK 923 INTER-LIGAND FREE ENERGY PREDICTED BY IDOCK:   -4.44 KCAL/MOL
REMARK 924 INTRA-LIGAND FREE ENERGY PREDICTED BY IDOCK:   -1.66 KCAL/MOL
REMARK 927      BINDING AFFINITY PREDICTED BY RF-SCORE:    0.00 PKD
ROOT
HETATM    1  C   UNL     1      -5.836   7.445  70.175  1.00  0.00    -0.024 C  
HETATM    2  C   UNL     1      -6.188   8.212  68.913  1.00  0.00    -0.040 C  
ENDROOT
BRANCH   2   3
HETATM    3  C   UNL     1      -6.635   9.631  69.240  1.00  0.00    -0.048 C  
BRANCH   3   4
HETATM    4  C   UNL     1      -7.334   9.691  70.596  1.00  0.00    -0.112 C  
BRANCH   4   5
HETATM    5  C   UNL     1      -8.788   9.267  70.443  1.00  0.00    -0.271 C  
BRANCH   5   6
HETATM    6  C   UNL     1      -9.182   8.148  71.359  1.00  0.00    -0.195 C  
HETATM    7  C   UNL     1     -10.460   7.781  71.543  1.00  0.00    -0.239 C  
BRANCH   7   8
HETATM    8  C   UNL     1     -11.634   8.449  70.890  1.00  0.00    -0.288 C  
BRANCH   8   9
HETATM    9  C   UNL     1     -12.253   9.484  71.780  1.00  0.00    -0.465 C  
HETATM   10  C   UNL     1     -12.597  10.718  71.377  1.00  0.00    -0.516 C  
BRANCH  10  11
HETATM   11  C   UNL     1     -12.364  11.201  69.978  1.00  0.00    -0.351 C  
BRANCH  11  12
HETATM   12  C   UNL     1     -11.968  12.667  69.909  1.00  0.00    -0.365 C  
BRANCH  12  13
HETATM   13  C   UNL     1     -11.336  12.963  68.551  1.00  0.00    -0.324 C  
BRANCH  13  14
HETATM   14  C   UNL     1     -10.639  11.726  68.004  1.00  0.00    -0.235 C  
BRANCH  14  15
HETATM   15  C   UNL     1      -9.456  12.102  67.116  1.00  0.00    -0.190 C  
BRANCH  15  16
HETATM   16  C   UNL     1      -8.347  12.731  67.953  1.00  0.00    -0.172 C  
BRANCH  16  17
HETATM   17  C   UNL     1      -8.250  14.235  67.723  1.00  0.00    -0.178 C  
HETATM   18  C   UNL     1      -7.481  14.913  68.831  1.00  0.00    -0.137 C  
HETATM   19  O   UNL     1      -6.987  14.359  69.799  1.00  0.00    -0.128 OA 
HETATM   20  O   UNL     1      -7.389  16.252  68.644  1.00  0.00    -0.160 OA 
ENDBRANCH  16  17
ENDBRANCH  15  16
ENDBRANCH  14  15
ENDBRANCH  13  14
ENDBRANCH  12  13
ENDBRANCH  11  12
ENDBRANCH  10  11
ENDBRANCH   8   9
ENDBRANCH   7   8
ENDBRANCH   5   6
ENDBRANCH   4   5
ENDBRANCH   3   4
ENDBRANCH   2   3
TORSDOF 13
ENDMDL
MODEL      418
REMARK 921   NORMALIZED FREE ENERGY PREDICTED BY IDOCK:   -2.45 KCAL/MOL
REMARK 922        TOTAL FREE ENERGY PREDICTED BY IDOCK:   -6.05 KCAL/MOL
REMARK 923 INTER-LIGAND FREE ENERGY PREDICTED BY IDOCK:   -4.12 KCAL/MOL
REMARK 924 INTRA-LIGAND FREE ENERGY PREDICTED BY IDOCK:   -1.94 KCAL/MOL
REMARK 927      BINDING AFFINITY PREDICTED BY RF-SCORE:    0.00 PKD
ROOT
HETATM    1  C   UNL     1      -8.618   6.326  66.073  1.00  0.00    -0.146 C  
HETATM    2  C   UNL     1      -8.968   7.803  66.117  1.00  0.00    -0.201 C  
ENDROOT
BRANCH   2   3
HETATM    3  C   UNL     1      -7.766   8.664  65.752  1.00  0.00    -0.090 C  
BRANCH   3   4
HETATM    4  C   UNL     1      -7.206   9.379  66.980  1.00  0.00    -0.087 C  
BRANCH   4   5
HETATM    5  C   UNL     1      -6.289   8.437  67.748  1.00  0.00    -0.053 C  
BRANCH   5   6
HETATM    6  C   UNL     1      -6.351   8.626  69.234  1.00  0.00    -0.042 C  
HETATM    7  C   UNL     1      -7.048   7.808  70.037  1.00  0.00    -0.054 C  
BRANCH   7   8
HETATM    8  C   UNL     1      -7.859   6.640  69.557  1.00  0.00    -0.106 C  
BRANCH   8   9
HETATM    9  C   UNL     1      -8.984   6.319  70.495  1.00  0.00    -0.151 C  
HETATM   10  C   UNL     1     -10.207   6.867  70.421  1.00  0.00    -0.209 C  
BRANCH  10  11
HETATM   11  C   UNL     1     -10.567   7.896  69.393  1.00  0.00    -0.209 C  
BRANCH  11  12
HETATM   12  C   UNL     1     -10.223   9.314  69.819  1.00  0.00    -0.225 C  
BRANCH  12  13
HETATM   13  C   UNL     1     -11.494  10.043  70.247  1.00  0.00    -0.372 C  
BRANCH  13  14
HETATM   14  C   UNL     1     -11.699  11.296  69.409  1.00  0.00    -0.409 C  
BRANCH  14  15
HETATM   15  C   UNL     1     -10.479  11.590  68.541  1.00  0.00    -0.228 C  
BRANCH  15  16
HETATM   16  C   UNL     1     -10.376  13.087  68.266  1.00  0.00    -0.256 C  
BRANCH  16  17
HETATM   17  C   UNL     1     -10.100  13.373  66.794  1.00  0.00    -0.260 C  
HETATM   18  C   UNL     1     -11.381  13.484  66.004  1.00  0.00    -0.312 C  
HETATM   19  O   UNL     1     -12.508  13.366  66.454  1.00  0.00    -0.351 OA 
HETATM   20  O   UNL     1     -11.153  13.735  64.692  1.00  0.00    -0.357 OA 
ENDBRANCH  16  17
ENDBRANCH  15  16
ENDBRANCH  14  15
ENDBRANCH  13  14
ENDBRANCH  12  13
ENDBRANCH  11  12
ENDBRANCH  10  11
ENDBRANCH   8   9
ENDBRANCH   7   8
ENDBRANCH   5   6
ENDBRANCH   4   5
ENDBRANCH   3   4
ENDBRANCH   2   3
TORSDOF 13
ENDMDL
MODEL      419
REMARK 921   NORMALIZED FREE ENERGY PREDICTED BY IDOCK:   -2.44 KCAL/MOL
REMARK 922        TOTAL FREE ENERGY PREDICTED BY IDOCK:   -6.05 KCAL/MOL
REMARK 923 INTER-LIGAND FREE ENERGY PREDICTED BY IDOCK:   -4.00 KCAL/MOL
REMARK 924 INTRA-LIGAND FREE ENERGY PREDICTED BY IDOCK:   -2.04 KCAL/MOL
REMARK 927      BINDING AFFINITY PREDICTED BY RF-SCORE:    0.00 PKD
ROOT
HETATM    1  C   UNL     1      -5.842  12.977  69.575  1.00  0.00    -0.103 C  
HETATM    2  C   UNL     1      -6.912  13.405  68.586  1.00  0.00    -0.101 C  
ENDROOT
BRANCH   2   3
HETATM    3  C   UNL     1      -7.537  12.198  67.896  1.00  0.00    -0.123 C  
BRANCH   3   4
HETATM    4  C   UNL     1      -6.486  11.392  67.135  1.00  0.00    -0.109 C  
BRANCH   4   5
HETATM    5  C   UNL     1      -6.641   9.913  67.460  1.00  0.00    -0.069 C  
BRANCH   5   6
HETATM    6  C   UNL     1      -7.018   9.652  68.887  1.00  0.00    -0.059 C  
HETATM    7  C   UNL     1      -7.278   8.420  69.352  1.00  0.00    -0.059 C  
BRANCH   7   8
HETATM    8  C   UNL     1      -7.252   7.177  68.512  1.00  0.00    -0.094 C  
BRANCH   8   9
HETATM    9  C   UNL     1      -7.480   5.944  69.335  1.00  0.00    -0.087 C  
HETATM   10  C   UNL     1      -8.690   5.490  69.695  1.00  0.00    -0.110 C  
BRANCH  10  11
HETATM   11  C   UNL     1      -9.958   6.200  69.327  1.00  0.00    -0.196 C  
BRANCH  11  12
HETATM   12  C   UNL     1     -10.492   5.803  67.961  1.00  0.00    -0.286 C  
BRANCH  12  13
HETATM   13  C   UNL     1     -10.922   7.053  67.196  1.00  0.00    -0.393 C  
BRANCH  13  14
HETATM   14  C   UNL     1      -9.733   7.677  66.481  1.00  0.00    -0.251 C  
BRANCH  14  15
HETATM   15  C   UNL     1      -9.843   9.199  66.444  1.00  0.00    -0.350 C  
BRANCH  15  16
HETATM   16  C   UNL     1     -10.897   9.676  67.438  1.00  0.00    -0.242 C  
BRANCH  16  17
HETATM   17  C   UNL     1     -10.524  11.020  68.055  1.00  0.00    -0.219 C  
HETATM   18  C   UNL     1     -11.211  12.161  67.346  1.00  0.00    -0.302 C  
HETATM   19  O   UNL     1     -11.973  12.057  66.399  1.00  0.00    -0.611 OA 
HETATM   20  O   UNL     1     -10.888  13.364  67.880  1.00  0.00    -0.238 OA 
ENDBRANCH  16  17
ENDBRANCH  15  16
ENDBRANCH  14  15
ENDBRANCH  13  14
ENDBRANCH  12  13
ENDBRANCH  11  12
ENDBRANCH  10  11
ENDBRANCH   8   9
ENDBRANCH   7   8
ENDBRANCH   5   6
ENDBRANCH   4   5
ENDBRANCH   3   4
ENDBRANCH   2   3
TORSDOF 13
ENDMDL
MODEL      420
REMARK 921   NORMALIZED FREE ENERGY PREDICTED BY IDOCK:   -2.44 KCAL/MOL
REMARK 922        TOTAL FREE ENERGY PREDICTED BY IDOCK:   -6.04 KCAL/MOL
REMARK 923 INTER-LIGAND FREE ENERGY PREDICTED BY IDOCK:   -4.69 KCAL/MOL
REMARK 924 INTRA-LIGAND FREE ENERGY PREDICTED BY IDOCK:   -1.36 KCAL/MOL
REMARK 927      BINDING AFFINITY PREDICTED BY RF-SCORE:    0.00 PKD
ROOT
HETATM    1  C   UNL     1      -5.451  12.075  70.627  1.00  0.00    -0.159 C  
HETATM    2  C   UNL     1      -5.820  10.820  69.857  1.00  0.00    -0.072 C  
ENDROOT
BRANCH   2   3
HETATM    3  C   UNL     1      -5.997  11.117  68.374  1.00  0.00    -0.045 C  
BRANCH   3   4
HETATM    4  C   UNL     1      -7.476  11.184  67.997  1.00  0.00    -0.094 C  
BRANCH   4   5
HETATM    5  C   UNL     1      -7.653  10.778  66.541  1.00  0.00    -0.139 C  
BRANCH   5   6
HETATM    6  C   UNL     1      -8.597   9.629  66.354  1.00  0.00    -0.136 C  
HETATM    7  C   UNL     1      -9.584   9.646  65.445  1.00  0.00    -0.361 C  
BRANCH   7   8
HETATM    8  C   UNL     1      -9.879  10.805  64.539  1.00  0.00    -0.369 C  
BRANCH   8   9
HETATM    9  C   UNL     1     -11.227  11.401  64.815  1.00  0.00    -0.197 C  
HETATM   10  C   UNL     1     -11.421  12.565  65.454  1.00  0.00    -0.383 C  
BRANCH  10  11
HETATM   11  C   UNL     1     -10.288  13.386  65.991  1.00  0.00    -0.297 C  
BRANCH  11  12
HETATM   12  C   UNL     1      -9.710  14.349  64.967  1.00  0.00     0.137 C  
BRANCH  12  13
HETATM   13  C   UNL     1      -9.467  15.707  65.620  1.00  0.00    -0.272 C  
BRANCH  13  14
HETATM   14  C   UNL     1     -10.294  15.845  66.890  1.00  0.00    -0.291 C  
BRANCH  14  15
HETATM   15  C   UNL     1      -9.488  16.492  68.012  1.00  0.00    -0.222 C  
BRANCH  15  16
HETATM   16  C   UNL     1     -10.030  17.885  68.317  1.00  0.00    -0.360 C  
BRANCH  16  17
HETATM   17  C   UNL     1      -8.921  18.931  68.334  1.00  0.00    -0.377 C  
HETATM   18  C   UNL     1      -8.671  19.492  66.956  1.00  0.00    -0.305 C  
HETATM   19  O   UNL     1      -9.261  19.172  65.938  1.00  0.00    -0.436 OA 
HETATM   20  O   UNL     1      -7.685  20.422  66.953  1.00  0.00    -0.307 OA 
ENDBRANCH  16  17
ENDBRANCH  15  16
ENDBRANCH  14  15
ENDBRANCH  13  14
ENDBRANCH  12  13
ENDBRANCH  11  12
ENDBRANCH  10  11
ENDBRANCH   8   9
ENDBRANCH   7   8
ENDBRANCH   5   6
ENDBRANCH   4   5
ENDBRANCH   3   4
ENDBRANCH   2   3
TORSDOF 13
ENDMDL
MODEL      421
REMARK 921   NORMALIZED FREE ENERGY PREDICTED BY IDOCK:   -2.43 KCAL/MOL
REMARK 922        TOTAL FREE ENERGY PREDICTED BY IDOCK:   -6.02 KCAL/MOL
REMARK 923 INTER-LIGAND FREE ENERGY PREDICTED BY IDOCK:   -4.85 KCAL/MOL
REMARK 924 INTRA-LIGAND FREE ENERGY PREDICTED BY IDOCK:   -1.17 KCAL/MOL
REMARK 927      BINDING AFFINITY PREDICTED BY RF-SCORE:    0.00 PKD
ROOT
HETATM    1  C   UNL     1     -11.070   5.095  72.813  1.00  0.00    -0.330 C  
HETATM    2  C   UNL     1     -12.190   6.023  72.377  1.00  0.00    -0.099 C  
ENDROOT
BRANCH   2   3
HETATM    3  C   UNL     1     -11.787   6.832  71.151  1.00  0.00    -0.410 C  
BRANCH   3   4
HETATM    4  C   UNL     1     -10.578   7.718  71.447  1.00  0.00    -0.242 C  
BRANCH   4   5
HETATM    5  C   UNL     1     -11.042   9.139  71.736  1.00  0.00    -0.437 C  
BRANCH   5   6
HETATM    6  C   UNL     1     -12.519   9.329  71.566  1.00  0.00    -0.435 C  
HETATM    7  C   UNL     1     -13.041  10.126  70.620  1.00  0.00    -0.274 C  
BRANCH   7   8
HETATM    8  C   UNL     1     -12.227  10.931  69.650  1.00  0.00    -0.354 C  
BRANCH   8   9
HETATM    9  C   UNL     1     -12.225  12.389  69.999  1.00  0.00    -0.264 C  
HETATM   10  C   UNL     1     -11.980  13.375  69.122  1.00  0.00    -0.363 C  
BRANCH  10  11
HETATM   11  C   UNL     1     -11.649  13.108  67.685  1.00  0.00    -0.392 C  
BRANCH  11  12
HETATM   12  C   UNL     1     -10.757  14.174  67.069  1.00  0.00    -0.285 C  
BRANCH  12  13
HETATM   13  C   UNL     1     -10.039  14.944  68.176  1.00  0.00    -0.222 C  
BRANCH  13  14
HETATM   14  C   UNL     1      -8.543  14.999  67.905  1.00  0.00    -0.155 C  
BRANCH  14  15
HETATM   15  C   UNL     1      -7.801  13.896  68.654  1.00  0.00    -0.120 C  
BRANCH  15  16
HETATM   16  C   UNL     1      -7.781  12.616  67.824  1.00  0.00    -0.145 C  
BRANCH  16  17
HETATM   17  C   UNL     1      -6.789  11.600  68.378  1.00  0.00    -0.071 C  
HETATM   18  C   UNL     1      -7.345  10.198  68.318  1.00  0.00    -0.081 C  
HETATM   19  O   UNL     1      -8.443   9.884  67.887  1.00  0.00    -0.120 OA 
HETATM   20  O   UNL     1      -6.477   9.281  68.810  1.00  0.00    -0.048 OA 
ENDBRANCH  16  17
ENDBRANCH  15  16
ENDBRANCH  14  15
ENDBRANCH  13  14
ENDBRANCH  12  13
ENDBRANCH  11  12
ENDBRANCH  10  11
ENDBRANCH   8   9
ENDBRANCH   7   8
ENDBRANCH   5   6
ENDBRANCH   4   5
ENDBRANCH   3   4
ENDBRANCH   2   3
TORSDOF 13
ENDMDL
MODEL      422
REMARK 921   NORMALIZED FREE ENERGY PREDICTED BY IDOCK:   -2.42 KCAL/MOL
REMARK 922        TOTAL FREE ENERGY PREDICTED BY IDOCK:   -6.01 KCAL/MOL
REMARK 923 INTER-LIGAND FREE ENERGY PREDICTED BY IDOCK:   -4.23 KCAL/MOL
REMARK 924 INTRA-LIGAND FREE ENERGY PREDICTED BY IDOCK:   -1.78 KCAL/MOL
REMARK 927      BINDING AFFINITY PREDICTED BY RF-SCORE:    0.00 PKD
ROOT
HETATM    1  C   UNL     1      -8.861   1.745  64.140  1.00  0.00    -0.092 C  
HETATM    2  C   UNL     1      -9.688   2.929  64.610  1.00  0.00    -0.086 C  
ENDROOT
BRANCH   2   3
HETATM    3  C   UNL     1      -9.166   3.471  65.935  1.00  0.00    -0.162 C  
BRANCH   3   4
HETATM    4  C   UNL     1      -9.963   4.695  66.383  1.00  0.00    -0.267 C  
BRANCH   4   5
HETATM    5  C   UNL     1      -9.014   5.856  66.648  1.00  0.00    -0.125 C  
BRANCH   5   6
HETATM    6  C   UNL     1      -9.527   7.171  66.143  1.00  0.00    -0.059 C  
HETATM    7  C   UNL     1     -10.003   8.122  66.961  1.00  0.00    -0.329 C  
BRANCH   7   8
HETATM    8  C   UNL     1     -10.105   7.983  68.451  1.00  0.00    -0.221 C  
BRANCH   8   9
HETATM    9  C   UNL     1      -9.146   8.888  69.164  1.00  0.00    -0.141 C  
HETATM   10  C   UNL     1      -9.513   9.837  70.039  1.00  0.00    -0.278 C  
BRANCH  10  11
HETATM   11  C   UNL     1     -10.948  10.110  70.376  1.00  0.00    -0.386 C  
BRANCH  11  12
HETATM   12  C   UNL     1     -11.463  11.412  69.786  1.00  0.00    -0.376 C  
BRANCH  12  13
HETATM   13  C   UNL     1     -12.002  11.160  68.380  1.00  0.00    -0.211 C  
BRANCH  13  14
HETATM   14  C   UNL     1     -11.488  12.217  67.413  1.00  0.00    -0.422 C  
BRANCH  14  15
HETATM   15  C   UNL     1     -10.289  11.708  66.619  1.00  0.00    -0.257 C  
BRANCH  15  16
HETATM   16  C   UNL     1      -9.228  12.798  66.508  1.00  0.00    -0.190 C  
BRANCH  16  17
HETATM   17  C   UNL     1      -8.283  12.790  67.705  1.00  0.00    -0.176 C  
HETATM   18  C   UNL     1      -7.584  14.118  67.864  1.00  0.00    -0.158 C  
HETATM   19  O   UNL     1      -7.733  15.093  67.146  1.00  0.00    -0.200 OA 
HETATM   20  O   UNL     1      -6.738  14.127  68.923  1.00  0.00    -0.091 OA 
ENDBRANCH  16  17
ENDBRANCH  15  16
ENDBRANCH  14  15
ENDBRANCH  13  14
ENDBRANCH  12  13
ENDBRANCH  11  12
ENDBRANCH  10  11
ENDBRANCH   8   9
ENDBRANCH   7   8
ENDBRANCH   5   6
ENDBRANCH   4   5
ENDBRANCH   3   4
ENDBRANCH   2   3
TORSDOF 13
ENDMDL
MODEL      423
REMARK 921   NORMALIZED FREE ENERGY PREDICTED BY IDOCK:   -2.41 KCAL/MOL
REMARK 922        TOTAL FREE ENERGY PREDICTED BY IDOCK:   -5.99 KCAL/MOL
REMARK 923 INTER-LIGAND FREE ENERGY PREDICTED BY IDOCK:   -4.32 KCAL/MOL
REMARK 924 INTRA-LIGAND FREE ENERGY PREDICTED BY IDOCK:   -1.67 KCAL/MOL
REMARK 927      BINDING AFFINITY PREDICTED BY RF-SCORE:    0.00 PKD
ROOT
HETATM    1  C   UNL     1     -11.005  11.656  66.584  1.00  0.00    -0.349 C  
HETATM    2  C   UNL     1     -11.333  11.243  68.008  1.00  0.00    -0.372 C  
ENDROOT
BRANCH   2   3
HETATM    3  C   UNL     1     -11.155   9.742  68.199  1.00  0.00    -0.169 C  
BRANCH   3   4
HETATM    4  C   UNL     1     -10.512   9.102  66.971  1.00  0.00    -0.311 C  
BRANCH   4   5
HETATM    5  C   UNL     1      -9.672   7.905  67.397  1.00  0.00    -0.210 C  
BRANCH   5   6
HETATM    6  C   UNL     1      -9.550   6.855  66.335  1.00  0.00    -0.152 C  
HETATM    7  C   UNL     1      -8.662   5.850  66.412  1.00  0.00    -0.131 C  
BRANCH   7   8
HETATM    8  C   UNL     1      -7.682   5.672  67.533  1.00  0.00    -0.097 C  
BRANCH   8   9
HETATM    9  C   UNL     1      -8.280   4.916  68.682  1.00  0.00    -0.084 C  
HETATM   10  C   UNL     1      -8.158   5.278  69.969  1.00  0.00    -0.084 C  
BRANCH  10  11
HETATM   11  C   UNL     1      -7.371   6.481  70.395  1.00  0.00    -0.085 C  
BRANCH  11  12
HETATM   12  C   UNL     1      -8.144   7.402  71.325  1.00  0.00    -0.100 C  
BRANCH  12  13
HETATM   13  C   UNL     1      -9.245   6.613  72.029  1.00  0.00    -0.142 C  
BRANCH  13  14
HETATM   14  C   UNL     1     -10.523   7.435  72.109  1.00  0.00    -0.243 C  
BRANCH  14  15
HETATM   15  C   UNL     1     -11.718   6.661  71.560  1.00  0.00    -0.369 C  
BRANCH  15  16
HETATM   16  C   UNL     1     -12.915   7.591  71.388  1.00  0.00    -0.379 C  
BRANCH  16  17
HETATM   17  C   UNL     1     -12.788   8.841  72.253  1.00  0.00    -0.465 C  
HETATM   18  C   UNL     1     -13.324  10.060  71.542  1.00  0.00    -0.361 C  
HETATM   19  O   UNL     1     -13.803  10.078  70.420  1.00  0.00     0.196 OA 
HETATM   20  O   UNL     1     -13.216  11.180  72.296  1.00  0.00    -0.413 OA 
ENDBRANCH  16  17
ENDBRANCH  15  16
ENDBRANCH  14  15
ENDBRANCH  13  14
ENDBRANCH  12  13
ENDBRANCH  11  12
ENDBRANCH  10  11
ENDBRANCH   8   9
ENDBRANCH   7   8
ENDBRANCH   5   6
ENDBRANCH   4   5
ENDBRANCH   3   4
ENDBRANCH   2   3
TORSDOF 13
ENDMDL
MODEL      424
REMARK 921   NORMALIZED FREE ENERGY PREDICTED BY IDOCK:   -2.41 KCAL/MOL
REMARK 922        TOTAL FREE ENERGY PREDICTED BY IDOCK:   -5.99 KCAL/MOL
REMARK 923 INTER-LIGAND FREE ENERGY PREDICTED BY IDOCK:   -5.12 KCAL/MOL
REMARK 924 INTRA-LIGAND FREE ENERGY PREDICTED BY IDOCK:   -0.87 KCAL/MOL
REMARK 927      BINDING AFFINITY PREDICTED BY RF-SCORE:    0.00 PKD
ROOT
HETATM    1  C   UNL     1     -10.721   3.551  73.498  1.00  0.00    -0.307 C  
HETATM    2  C   UNL     1     -10.033   4.443  72.479  1.00  0.00    -0.225 C  
ENDROOT
BRANCH   2   3
HETATM    3  C   UNL     1      -9.508   5.716  73.130  1.00  0.00    -0.149 C  
BRANCH   3   4
HETATM    4  C   UNL     1     -10.622   6.747  73.304  1.00  0.00    -0.335 C  
BRANCH   4   5
HETATM    5  C   UNL     1     -11.579   6.671  72.122  1.00  0.00    -0.335 C  
BRANCH   5   6
HETATM    6  C   UNL     1     -11.962   8.015  71.579  1.00  0.00    -0.331 C  
HETATM    7  C   UNL     1     -11.390   8.541  70.484  1.00  0.00    -0.235 C  
BRANCH   7   8
HETATM    8  C   UNL     1     -10.299   7.877  69.698  1.00  0.00    -0.216 C  
BRANCH   8   9
HETATM    9  C   UNL     1      -9.095   8.760  69.559  1.00  0.00    -0.146 C  
HETATM   10  C   UNL     1      -8.468   9.003  68.397  1.00  0.00    -0.129 C  
BRANCH  10  11
HETATM   11  C   UNL     1      -8.901   8.381  67.104  1.00  0.00    -0.139 C  
BRANCH  11  12
HETATM   12  C   UNL     1     -10.219   8.933  66.585  1.00  0.00    -0.338 C  
BRANCH  12  13
HETATM   13  C   UNL     1     -10.047  10.404  66.214  1.00  0.00    -0.292 C  
BRANCH  13  14
HETATM   14  C   UNL     1     -11.344  10.967  65.650  1.00  0.00     0.356 C  
BRANCH  14  15
HETATM   15  C   UNL     1     -11.093  11.771  64.377  1.00  0.00    -0.396 C  
BRANCH  15  16
HETATM   16  C   UNL     1     -10.620  13.178  64.727  1.00  0.00    -0.390 C  
BRANCH  16  17
HETATM   17  C   UNL     1     -11.706  14.218  64.476  1.00  0.00    -0.431 C  
HETATM   18  C   UNL     1     -11.150  15.620  64.527  1.00  0.00    -0.286 C  
HETATM   19  O   UNL     1      -9.986  15.918  64.741  1.00  0.00    -0.228 OA 
HETATM   20  O   UNL     1     -12.103  16.558  64.309  1.00  0.00    -0.566 OA 
ENDBRANCH  16  17
ENDBRANCH  15  16
ENDBRANCH  14  15
ENDBRANCH  13  14
ENDBRANCH  12  13
ENDBRANCH  11  12
ENDBRANCH  10  11
ENDBRANCH   8   9
ENDBRANCH   7   8
ENDBRANCH   5   6
ENDBRANCH   4   5
ENDBRANCH   3   4
ENDBRANCH   2   3
TORSDOF 13
ENDMDL
MODEL      425
REMARK 921   NORMALIZED FREE ENERGY PREDICTED BY IDOCK:   -2.40 KCAL/MOL
REMARK 922        TOTAL FREE ENERGY PREDICTED BY IDOCK:   -5.97 KCAL/MOL
REMARK 923 INTER-LIGAND FREE ENERGY PREDICTED BY IDOCK:   -4.52 KCAL/MOL
REMARK 924 INTRA-LIGAND FREE ENERGY PREDICTED BY IDOCK:   -1.46 KCAL/MOL
REMARK 927      BINDING AFFINITY PREDICTED BY RF-SCORE:    0.00 PKD
ROOT
HETATM    1  C   UNL     1     -10.962   7.868  70.429  1.00  0.00    -0.251 C  
HETATM    2  C   UNL     1      -9.956   7.936  69.293  1.00  0.00    -0.190 C  
ENDROOT
BRANCH   2   3
HETATM    3  C   UNL     1     -10.556   7.409  67.996  1.00  0.00    -0.235 C  
BRANCH   3   4
HETATM    4  C   UNL     1     -10.314   5.908  67.847  1.00  0.00    -0.262 C  
BRANCH   4   5
HETATM    5  C   UNL     1     -10.540   5.494  66.399  1.00  0.00    -0.291 C  
BRANCH   5   6
HETATM    6  C   UNL     1      -9.503   4.544  65.882  1.00  0.00    -0.171 C  
HETATM    7  C   UNL     1      -8.209   4.883  65.763  1.00  0.00    -0.113 C  
BRANCH   7   8
HETATM    8  C   UNL     1      -7.655   6.236  66.098  1.00  0.00    -0.090 C  
BRANCH   8   9
HETATM    9  C   UNL     1      -7.232   6.986  64.871  1.00  0.00    -0.078 C  
HETATM   10  C   UNL     1      -7.635   8.231  64.571  1.00  0.00    -0.108 C  
BRANCH  10  11
HETATM   11  C   UNL     1      -8.589   8.998  65.437  1.00  0.00    -0.200 C  
BRANCH  11  12
HETATM   12  C   UNL     1      -9.421  10.007  64.662  1.00  0.00    -0.367 C  
BRANCH  12  13
HETATM   13  C   UNL     1      -9.953  11.073  65.616  1.00  0.00    -0.299 C  
BRANCH  13  14
HETATM   14  C   UNL     1      -8.829  11.626  66.480  1.00  0.00    -0.188 C  
BRANCH  14  15
HETATM   15  C   UNL     1      -9.322  11.968  67.883  1.00  0.00    -0.190 C  
BRANCH  15  16
HETATM   16  C   UNL     1     -10.769  12.451  67.830  1.00  0.00    -0.245 C  
BRANCH  16  17
HETATM   17  C   UNL     1     -11.220  13.028  69.167  1.00  0.00    -0.297 C  
HETATM   18  C   UNL     1     -11.940  11.994  69.999  1.00  0.00    -0.324 C  
HETATM   19  O   UNL     1     -12.151  10.837  69.673  1.00  0.00    -0.308 OA 
HETATM   20  O   UNL     1     -12.352  12.491  71.190  1.00  0.00    -0.309 OA 
ENDBRANCH  16  17
ENDBRANCH  15  16
ENDBRANCH  14  15
ENDBRANCH  13  14
ENDBRANCH  12  13
ENDBRANCH  11  12
ENDBRANCH  10  11
ENDBRANCH   8   9
ENDBRANCH   7   8
ENDBRANCH   5   6
ENDBRANCH   4   5
ENDBRANCH   3   4
ENDBRANCH   2   3
TORSDOF 13
ENDMDL
MODEL      426
REMARK 921   NORMALIZED FREE ENERGY PREDICTED BY IDOCK:   -2.40 KCAL/MOL
REMARK 922        TOTAL FREE ENERGY PREDICTED BY IDOCK:   -5.96 KCAL/MOL
REMARK 923 INTER-LIGAND FREE ENERGY PREDICTED BY IDOCK:   -4.78 KCAL/MOL
REMARK 924 INTRA-LIGAND FREE ENERGY PREDICTED BY IDOCK:   -1.18 KCAL/MOL
REMARK 927      BINDING AFFINITY PREDICTED BY RF-SCORE:    0.00 PKD
ROOT
HETATM    1  C   UNL     1      -6.492   4.372  64.156  1.00  0.00    -0.038 C  
HETATM    2  C   UNL     1      -6.439   5.876  64.361  1.00  0.00    -0.033 C  
ENDROOT
BRANCH   2   3
HETATM    3  C   UNL     1      -7.792   6.418  64.801  1.00  0.00    -0.111 C  
BRANCH   3   4
HETATM    4  C   UNL     1      -8.108   7.742  64.108  1.00  0.00    -0.068 C  
BRANCH   4   5
HETATM    5  C   UNL     1      -7.765   8.900  65.036  1.00  0.00    -0.103 C  
BRANCH   5   6
HETATM    6  C   UNL     1      -8.842   9.939  65.115  1.00  0.00    -0.209 C  
HETATM    7  C   UNL     1      -9.561  10.151  66.229  1.00  0.00    -0.245 C  
BRANCH   7   8
HETATM    8  C   UNL     1      -9.398   9.373  67.501  1.00  0.00    -0.147 C  
BRANCH   8   9
HETATM    9  C   UNL     1     -10.598   8.522  67.792  1.00  0.00    -0.242 C  
HETATM   10  C   UNL     1     -10.969   8.137  69.022  1.00  0.00     0.093 C  
BRANCH  10  11
HETATM   11  C   UNL     1     -10.190   8.502  70.249  1.00  0.00    -0.206 C  
BRANCH  11  12
HETATM   12  C   UNL     1     -10.618   9.828  70.857  1.00  0.00    -0.344 C  
BRANCH  12  13
HETATM   13  C   UNL     1     -12.004   9.681  71.482  1.00  0.00    -0.485 C  
BRANCH  13  14
HETATM   14  C   UNL     1     -12.944  10.756  70.955  1.00  0.00    -0.425 C  
BRANCH  14  15
HETATM   15  C   UNL     1     -13.274  11.783  72.034  1.00  0.00    -0.460 C  
BRANCH  15  16
HETATM   16  C   UNL     1     -12.862  13.179  71.576  1.00  0.00    -0.401 C  
BRANCH  16  17
HETATM   17  C   UNL     1     -12.186  13.149  70.210  1.00  0.00    -0.376 C  
HETATM   18  C   UNL     1     -12.114  14.528  69.601  1.00  0.00    -0.323 C  
HETATM   19  O   UNL     1     -12.533  15.555  70.109  1.00  0.00    -0.387 OA 
HETATM   20  O   UNL     1     -11.518  14.519  68.384  1.00  0.00    -0.272 OA 
ENDBRANCH  16  17
ENDBRANCH  15  16
ENDBRANCH  14  15
ENDBRANCH  13  14
ENDBRANCH  12  13
ENDBRANCH  11  12
ENDBRANCH  10  11
ENDBRANCH   8   9
ENDBRANCH   7   8
ENDBRANCH   5   6
ENDBRANCH   4   5
ENDBRANCH   3   4
ENDBRANCH   2   3
TORSDOF 13
ENDMDL
MODEL      427
REMARK 921   NORMALIZED FREE ENERGY PREDICTED BY IDOCK:   -2.39 KCAL/MOL
REMARK 922        TOTAL FREE ENERGY PREDICTED BY IDOCK:   -5.95 KCAL/MOL
REMARK 923 INTER-LIGAND FREE ENERGY PREDICTED BY IDOCK:   -3.91 KCAL/MOL
REMARK 924 INTRA-LIGAND FREE ENERGY PREDICTED BY IDOCK:   -2.05 KCAL/MOL
REMARK 927      BINDING AFFINITY PREDICTED BY RF-SCORE:    0.00 PKD
ROOT
HETATM    1  C   UNL     1     -10.568   5.207  71.000  1.00  0.00    -0.201 C  
HETATM    2  C   UNL     1      -9.201   5.841  71.194  1.00  0.00    -0.168 C  
ENDROOT
BRANCH   2   3
HETATM    3  C   UNL     1      -8.089   4.819  70.995  1.00  0.00    -0.088 C  
BRANCH   3   4
HETATM    4  C   UNL     1      -7.441   4.969  69.620  1.00  0.00    -0.057 C  
BRANCH   4   5
HETATM    5  C   UNL     1      -7.799   3.771  68.751  1.00  0.00    -0.055 C  
BRANCH   5   6
HETATM    6  C   UNL     1      -9.088   3.941  68.005  1.00  0.00    -0.183 C  
HETATM    7  C   UNL     1      -9.145   4.476  66.775  1.00  0.00    -0.126 C  
BRANCH   7   8
HETATM    8  C   UNL     1      -7.954   4.985  66.018  1.00  0.00    -0.107 C  
BRANCH   8   9
HETATM    9  C   UNL     1      -8.250   6.275  65.314  1.00  0.00    -0.138 C  
HETATM   10  C   UNL     1      -8.185   7.484  65.895  1.00  0.00    -0.134 C  
BRANCH  10  11
HETATM   11  C   UNL     1      -7.831   7.664  67.340  1.00  0.00    -0.118 C  
BRANCH  11  12
HETATM   12  C   UNL     1      -9.009   8.101  68.195  1.00  0.00    -0.135 C  
BRANCH  12  13
HETATM   13  C   UNL     1      -9.875   9.083  67.410  1.00  0.00    -0.244 C  
BRANCH  13  14
HETATM   14  C   UNL     1      -9.296  10.488  67.491  1.00  0.00    -0.162 C  
BRANCH  14  15
HETATM   15  C   UNL     1     -10.025  11.331  68.533  1.00  0.00    -0.206 C  
BRANCH  15  16
HETATM   16  C   UNL     1     -11.510  10.983  68.549  1.00  0.00    -0.379 C  
BRANCH  16  17
HETATM   17  C   UNL     1     -12.150  11.298  69.896  1.00  0.00    -0.414 C  
HETATM   18  C   UNL     1     -12.106  10.105  70.819  1.00  0.00    -0.343 C  
HETATM   19  O   UNL     1     -11.628   9.015  70.553  1.00  0.00    -0.254 OA 
HETATM   20  O   UNL     1     -12.674  10.367  72.022  1.00  0.00    -0.397 OA 
ENDBRANCH  16  17
ENDBRANCH  15  16
ENDBRANCH  14  15
ENDBRANCH  13  14
ENDBRANCH  12  13
ENDBRANCH  11  12
ENDBRANCH  10  11
ENDBRANCH   8   9
ENDBRANCH   7   8
ENDBRANCH   5   6
ENDBRANCH   4   5
ENDBRANCH   3   4
ENDBRANCH   2   3
TORSDOF 13
ENDMDL
MODEL      428
REMARK 921   NORMALIZED FREE ENERGY PREDICTED BY IDOCK:   -2.39 KCAL/MOL
REMARK 922        TOTAL FREE ENERGY PREDICTED BY IDOCK:   -5.95 KCAL/MOL
REMARK 923 INTER-LIGAND FREE ENERGY PREDICTED BY IDOCK:   -3.91 KCAL/MOL
REMARK 924 INTRA-LIGAND FREE ENERGY PREDICTED BY IDOCK:   -2.04 KCAL/MOL
REMARK 927      BINDING AFFINITY PREDICTED BY RF-SCORE:    0.00 PKD
ROOT
HETATM    1  C   UNL     1      -5.938  13.455  69.749  1.00  0.00    -0.126 C  
HETATM    2  C   UNL     1      -7.101  14.128  69.042  1.00  0.00    -0.111 C  
ENDROOT
BRANCH   2   3
HETATM    3  C   UNL     1      -7.935  13.115  68.270  1.00  0.00    -0.148 C  
BRANCH   3   4
HETATM    4  C   UNL     1      -7.068  12.303  67.310  1.00  0.00    -0.138 C  
BRANCH   4   5
HETATM    5  C   UNL     1      -7.554  10.861  67.274  1.00  0.00    -0.104 C  
BRANCH   5   6
HETATM    6  C   UNL     1      -8.267  10.442  68.525  1.00  0.00    -0.119 C  
HETATM    7  C   UNL     1      -8.360   9.159  68.907  1.00  0.00    -0.124 C  
BRANCH   7   8
HETATM    8  C   UNL     1      -7.798   8.003  68.134  1.00  0.00    -0.126 C  
BRANCH   8   9
HETATM    9  C   UNL     1      -6.509   7.511  68.724  1.00  0.00    -0.048 C  
HETATM   10  C   UNL     1      -6.429   6.606  69.711  1.00  0.00    -0.044 C  
BRANCH  10  11
HETATM   11  C   UNL     1      -7.642   6.007  70.355  1.00  0.00    -0.095 C  
BRANCH  11  12
HETATM   12  C   UNL     1      -8.002   4.640  69.797  1.00  0.00    -0.065 C  
BRANCH  12  13
HETATM   13  C   UNL     1      -9.520   4.515  69.687  1.00  0.00    -0.244 C  
BRANCH  13  14
HETATM   14  C   UNL     1     -10.011   5.107  68.374  1.00  0.00    -0.214 C  
BRANCH  14  15
HETATM   15  C   UNL     1     -11.022   6.225  68.612  1.00  0.00    -0.423 C  
BRANCH  15  16
HETATM   16  C   UNL     1     -11.439   6.256  70.079  1.00  0.00    -0.460 C  
BRANCH  16  17
HETATM   17  C   UNL     1     -11.254   7.641  70.689  1.00  0.00    -0.280 C  
HETATM   18  C   UNL     1     -12.483   8.077  71.449  1.00  0.00    -0.301 C  
HETATM   19  O   UNL     1     -13.509   7.429  71.578  1.00  0.00    -0.376 OA 
HETATM   20  O   UNL     1     -12.337   9.308  71.995  1.00  0.00    -0.365 OA 
ENDBRANCH  16  17
ENDBRANCH  15  16
ENDBRANCH  14  15
ENDBRANCH  13  14
ENDBRANCH  12  13
ENDBRANCH  11  12
ENDBRANCH  10  11
ENDBRANCH   8   9
ENDBRANCH   7   8
ENDBRANCH   5   6
ENDBRANCH   4   5
ENDBRANCH   3   4
ENDBRANCH   2   3
TORSDOF 13
ENDMDL
MODEL      429
REMARK 921   NORMALIZED FREE ENERGY PREDICTED BY IDOCK:   -2.36 KCAL/MOL
REMARK 922        TOTAL FREE ENERGY PREDICTED BY IDOCK:   -5.90 KCAL/MOL
REMARK 923 INTER-LIGAND FREE ENERGY PREDICTED BY IDOCK:   -4.88 KCAL/MOL
REMARK 924 INTRA-LIGAND FREE ENERGY PREDICTED BY IDOCK:   -1.02 KCAL/MOL
REMARK 927      BINDING AFFINITY PREDICTED BY RF-SCORE:    0.00 PKD
ROOT
HETATM    1  C   UNL     1     -12.355  10.737  71.676  1.00  0.00    -0.292 C  
HETATM    2  C   UNL     1     -11.804   9.330  71.531  1.00  0.00    -0.444 C  
ENDROOT
BRANCH   2   3
HETATM    3  C   UNL     1     -12.786   8.297  72.069  1.00  0.00    -0.369 C  
BRANCH   3   4
HETATM    4  C   UNL     1     -12.514   6.916  71.478  1.00  0.00    -0.420 C  
BRANCH   4   5
HETATM    5  C   UNL     1     -11.107   6.467  71.848  1.00  0.00    -0.300 C  
BRANCH   5   6
HETATM    6  C   UNL     1     -10.725   5.148  71.247  1.00  0.00    -0.142 C  
HETATM    7  C   UNL     1      -9.995   5.051  70.124  1.00  0.00    -0.328 C  
BRANCH   7   8
HETATM    8  C   UNL     1      -9.502   6.225  69.331  1.00  0.00    -0.148 C  
BRANCH   8   9
HETATM    9  C   UNL     1      -8.006   6.321  69.348  1.00  0.00    -0.109 C  
HETATM   10  C   UNL     1      -7.291   7.102  68.523  1.00  0.00    -0.100 C  
BRANCH  10  11
HETATM   11  C   UNL     1      -7.929   7.949  67.463  1.00  0.00    -0.123 C  
BRANCH  11  12
HETATM   12  C   UNL     1      -7.709   7.413  66.057  1.00  0.00    -0.095 C  
BRANCH  12  13
HETATM   13  C   UNL     1      -8.067   8.491  65.037  1.00  0.00    -0.148 C  
BRANCH  13  14
HETATM   14  C   UNL     1      -6.906   8.732  64.084  1.00  0.00    -0.082 C  
BRANCH  14  15
HETATM   15  C   UNL     1      -7.360   9.472  62.829  1.00  0.00    -0.101 C  
BRANCH  15  16
HETATM   16  C   UNL     1      -8.880   9.598  62.813  1.00  0.00    -0.251 C  
BRANCH  16  17
HETATM   17  C   UNL     1      -9.324  11.045  62.624  1.00  0.00    -0.348 C  
HETATM   18  C   UNL     1     -10.341  11.449  63.663  1.00  0.00    -0.410 C  
HETATM   19  O   UNL     1     -10.773  10.736  64.554  1.00  0.00    -0.297 OA 
HETATM   20  O   UNL     1     -10.749  12.732  63.508  1.00  0.00    -0.372 OA 
ENDBRANCH  16  17
ENDBRANCH  15  16
ENDBRANCH  14  15
ENDBRANCH  13  14
ENDBRANCH  12  13
ENDBRANCH  11  12
ENDBRANCH  10  11
ENDBRANCH   8   9
ENDBRANCH   7   8
ENDBRANCH   5   6
ENDBRANCH   4   5
ENDBRANCH   3   4
ENDBRANCH   2   3
TORSDOF 13
ENDMDL
MODEL      430
REMARK 921   NORMALIZED FREE ENERGY PREDICTED BY IDOCK:   -2.35 KCAL/MOL
REMARK 922        TOTAL FREE ENERGY PREDICTED BY IDOCK:   -5.89 KCAL/MOL
REMARK 923 INTER-LIGAND FREE ENERGY PREDICTED BY IDOCK:   -4.59 KCAL/MOL
REMARK 924 INTRA-LIGAND FREE ENERGY PREDICTED BY IDOCK:   -1.30 KCAL/MOL
REMARK 927      BINDING AFFINITY PREDICTED BY RF-SCORE:    0.00 PKD
ROOT
HETATM    1  C   UNL     1     -11.010   6.084  69.684  1.00  0.00    -0.470 C  
HETATM    2  C   UNL     1     -10.445   7.448  69.326  1.00  0.00    -0.222 C  
ENDROOT
BRANCH   2   3
HETATM    3  C   UNL     1      -9.336   7.853  70.288  1.00  0.00    -0.159 C  
BRANCH   3   4
HETATM    4  C   UNL     1      -8.027   7.142  69.952  1.00  0.00    -0.122 C  
BRANCH   4   5
HETATM    5  C   UNL     1      -7.676   7.379  68.489  1.00  0.00    -0.120 C  
BRANCH   5   6
HETATM    6  C   UNL     1      -6.281   7.889  68.287  1.00  0.00    -0.045 C  
HETATM    7  C   UNL     1      -6.007   9.191  68.111  1.00  0.00    -0.045 C  
BRANCH   7   8
HETATM    8  C   UNL     1      -7.043  10.275  68.068  1.00  0.00    -0.083 C  
BRANCH   8   9
HETATM    9  C   UNL     1      -6.613  11.489  68.836  1.00  0.00    -0.073 C  
HETATM   10  C   UNL     1      -6.787  12.750  68.412  1.00  0.00    -0.091 C  
BRANCH  10  11
HETATM   11  C   UNL     1      -7.416  13.076  67.091  1.00  0.00    -0.004 C  
BRANCH  11  12
HETATM   12  C   UNL     1      -8.935  13.044  67.127  1.00  0.00    -0.223 C  
BRANCH  12  13
HETATM   13  C   UNL     1      -9.466  14.409  67.560  1.00  0.00    -0.207 C  
BRANCH  13  14
HETATM   14  C   UNL     1      -8.977  15.497  66.615  1.00  0.00    -0.320 C  
BRANCH  14  15
HETATM   15  C   UNL     1     -10.020  15.814  65.547  1.00  0.00    -0.341 C  
BRANCH  15  16
HETATM   16  C   UNL     1     -11.388  15.292  65.973  1.00  0.00    -0.162 C  
BRANCH  16  17
HETATM   17  C   UNL     1     -12.029  14.435  64.887  1.00  0.00    -0.430 C  
HETATM   18  C   UNL     1     -12.609  13.164  65.458  1.00  0.00    -0.408 C  
HETATM   19  O   UNL     1     -12.585  12.834  66.632  1.00  0.00    -0.230 OA 
HETATM   20  O   UNL     1     -13.179  12.388  64.505  1.00  0.00    -0.834 OA 
ENDBRANCH  16  17
ENDBRANCH  15  16
ENDBRANCH  14  15
ENDBRANCH  13  14
ENDBRANCH  12  13
ENDBRANCH  11  12
ENDBRANCH  10  11
ENDBRANCH   8   9
ENDBRANCH   7   8
ENDBRANCH   5   6
ENDBRANCH   4   5
ENDBRANCH   3   4
ENDBRANCH   2   3
TORSDOF 13
ENDMDL
MODEL      431
REMARK 921   NORMALIZED FREE ENERGY PREDICTED BY IDOCK:   -2.35 KCAL/MOL
REMARK 922        TOTAL FREE ENERGY PREDICTED BY IDOCK:   -5.88 KCAL/MOL
REMARK 923 INTER-LIGAND FREE ENERGY PREDICTED BY IDOCK:   -4.77 KCAL/MOL
REMARK 924 INTRA-LIGAND FREE ENERGY PREDICTED BY IDOCK:   -1.10 KCAL/MOL
REMARK 927      BINDING AFFINITY PREDICTED BY RF-SCORE:    0.00 PKD
ROOT
HETATM    1  C   UNL     1     -11.611  12.134  68.074  1.00  0.00    -0.411 C  
HETATM    2  C   UNL     1     -11.579  12.952  66.794  1.00  0.00    -0.416 C  
ENDROOT
BRANCH   2   3
HETATM    3  C   UNL     1     -10.308  12.680  66.000  1.00  0.00    -0.287 C  
BRANCH   3   4
HETATM    4  C   UNL     1     -10.564  11.679  64.875  1.00  0.00    -0.349 C  
BRANCH   4   5
HETATM    5  C   UNL     1      -9.775  10.403  65.135  1.00  0.00    -0.353 C  
BRANCH   5   6
HETATM    6  C   UNL     1      -8.310  10.539  64.843  1.00  0.00    -0.135 C  
HETATM    7  C   UNL     1      -7.439   9.537  65.039  1.00  0.00    -0.110 C  
BRANCH   7   8
HETATM    8  C   UNL     1      -7.809   8.191  65.589  1.00  0.00    -0.098 C  
BRANCH   8   9
HETATM    9  C   UNL     1      -8.071   7.195  64.498  1.00  0.00    -0.069 C  
HETATM   10  C   UNL     1      -8.266   5.884  64.705  1.00  0.00    -0.120 C  
BRANCH  10  11
HETATM   11  C   UNL     1      -8.212   5.268  66.070  1.00  0.00    -0.115 C  
BRANCH  11  12
HETATM   12  C   UNL     1      -9.567   5.210  66.755  1.00  0.00    -0.159 C  
BRANCH  12  13
HETATM   13  C   UNL     1      -9.465   5.833  68.146  1.00  0.00    -0.120 C  
BRANCH  13  14
HETATM   14  C   UNL     1     -10.812   5.785  68.853  1.00  0.00    -0.305 C  
BRANCH  14  15
HETATM   15  C   UNL     1     -10.675   5.244  70.273  1.00  0.00    -0.221 C  
BRANCH  15  16
HETATM   16  C   UNL     1     -10.718   6.389  71.280  1.00  0.00    -0.288 C  
BRANCH  16  17
HETATM   17  C   UNL     1     -11.214   7.683  70.643  1.00  0.00    -0.280 C  
HETATM   18  C   UNL     1     -11.793   8.618  71.676  1.00  0.00    -0.323 C  
HETATM   19  O   UNL     1     -11.870   8.399  72.874  1.00  0.00    -0.298 OA 
HETATM   20  O   UNL     1     -12.242   9.772  71.127  1.00  0.00    -0.316 OA 
ENDBRANCH  16  17
ENDBRANCH  15  16
ENDBRANCH  14  15
ENDBRANCH  13  14
ENDBRANCH  12  13
ENDBRANCH  11  12
ENDBRANCH  10  11
ENDBRANCH   8   9
ENDBRANCH   7   8
ENDBRANCH   5   6
ENDBRANCH   4   5
ENDBRANCH   3   4
ENDBRANCH   2   3
TORSDOF 13
ENDMDL
MODEL      432
REMARK 921   NORMALIZED FREE ENERGY PREDICTED BY IDOCK:   -2.34 KCAL/MOL
REMARK 922        TOTAL FREE ENERGY PREDICTED BY IDOCK:   -5.86 KCAL/MOL
REMARK 923 INTER-LIGAND FREE ENERGY PREDICTED BY IDOCK:   -4.94 KCAL/MOL
REMARK 924 INTRA-LIGAND FREE ENERGY PREDICTED BY IDOCK:   -0.92 KCAL/MOL
REMARK 927      BINDING AFFINITY PREDICTED BY RF-SCORE:    0.00 PKD
ROOT
HETATM    1  C   UNL     1      -9.617   9.699  64.755  1.00  0.00    -0.197 C  
HETATM    2  C   UNL     1      -9.875   9.298  66.197  1.00  0.00    -0.363 C  
ENDROOT
BRANCH   2   3
HETATM    3  C   UNL     1      -9.921   7.783  66.346  1.00  0.00    -0.164 C  
BRANCH   3   4
HETATM    4  C   UNL     1      -8.595   7.241  66.876  1.00  0.00    -0.124 C  
BRANCH   4   5
HETATM    5  C   UNL     1      -8.861   6.229  67.983  1.00  0.00    -0.112 C  
BRANCH   5   6
HETATM    6  C   UNL     1      -8.075   6.494  69.232  1.00  0.00    -0.112 C  
HETATM    7  C   UNL     1      -7.865   5.552  70.165  1.00  0.00    -0.089 C  
BRANCH   7   8
HETATM    8  C   UNL     1      -8.401   4.153  70.091  1.00  0.00    -0.083 C  
BRANCH   8   9
HETATM    9  C   UNL     1      -9.731   4.029  70.772  1.00  0.00    -0.263 C  
HETATM   10  C   UNL     1     -10.118   4.779  71.815  1.00  0.00    -0.261 C  
BRANCH  10  11
HETATM   11  C   UNL     1      -9.230   5.816  72.434  1.00  0.00    -0.149 C  
BRANCH  11  12
HETATM   12  C   UNL     1      -9.923   6.630  73.515  1.00  0.00    -0.251 C  
BRANCH  12  13
HETATM   13  C   UNL     1     -11.001   7.507  72.883  1.00  0.00    -0.434 C  
BRANCH  13  14
HETATM   14  C   UNL     1     -10.418   8.334  71.746  1.00  0.00    -0.325 C  
BRANCH  14  15
HETATM   15  C   UNL     1     -11.230   8.169  70.465  1.00  0.00    -0.249 C  
BRANCH  15  16
HETATM   16  C   UNL     1     -11.115   9.421  69.602  1.00  0.00    -0.163 C  
BRANCH  16  17
HETATM   17  C   UNL     1     -11.422  10.686  70.397  1.00  0.00    -0.422 C  
HETATM   18  C   UNL     1     -11.972  11.775  69.509  1.00  0.00    -0.300 C  
HETATM   19  O   UNL     1     -12.158  11.688  68.306  1.00  0.00    -0.552 OA 
HETATM   20  O   UNL     1     -12.248  12.908  70.200  1.00  0.00    -0.322 OA 
ENDBRANCH  16  17
ENDBRANCH  15  16
ENDBRANCH  14  15
ENDBRANCH  13  14
ENDBRANCH  12  13
ENDBRANCH  11  12
ENDBRANCH  10  11
ENDBRANCH   8   9
ENDBRANCH   7   8
ENDBRANCH   5   6
ENDBRANCH   4   5
ENDBRANCH   3   4
ENDBRANCH   2   3
TORSDOF 13
ENDMDL
MODEL      433
REMARK 921   NORMALIZED FREE ENERGY PREDICTED BY IDOCK:   -2.31 KCAL/MOL
REMARK 922        TOTAL FREE ENERGY PREDICTED BY IDOCK:   -5.82 KCAL/MOL
REMARK 923 INTER-LIGAND FREE ENERGY PREDICTED BY IDOCK:   -4.30 KCAL/MOL
REMARK 924 INTRA-LIGAND FREE ENERGY PREDICTED BY IDOCK:   -1.52 KCAL/MOL
REMARK 927      BINDING AFFINITY PREDICTED BY RF-SCORE:    0.00 PKD
ROOT
HETATM    1  C   UNL     1      -6.982  15.844  68.821  1.00  0.00    -0.132 C  
HETATM    2  C   UNL     1      -8.362  15.254  68.587  1.00  0.00    -0.162 C  
ENDROOT
BRANCH   2   3
HETATM    3  C   UNL     1      -8.612  15.014  67.104  1.00  0.00    -0.246 C  
BRANCH   3   4
HETATM    4  C   UNL     1      -9.647  15.992  66.553  1.00  0.00    -0.283 C  
BRANCH   4   5
HETATM    5  C   UNL     1     -10.240  15.440  65.264  1.00  0.00    -0.390 C  
BRANCH   5   6
HETATM    6  C   UNL     1     -11.482  14.629  65.480  1.00  0.00    -0.341 C  
HETATM    7  C   UNL     1     -11.501  13.292  65.360  1.00  0.00    -0.328 C  
BRANCH   7   8
HETATM    8  C   UNL     1     -10.314  12.460  64.975  1.00  0.00    -0.319 C  
BRANCH   8   9
HETATM    9  C   UNL     1      -9.760  11.703  66.145  1.00  0.00    -0.253 C  
HETATM   10  C   UNL     1      -9.009  10.595  66.040  1.00  0.00    -0.189 C  
BRANCH  10  11
HETATM   11  C   UNL     1      -8.669   9.977  64.718  1.00  0.00    -0.206 C  
BRANCH  11  12
HETATM   12  C   UNL     1      -7.175   9.790  64.511  1.00  0.00    -0.128 C  
BRANCH  12  13
HETATM   13  C   UNL     1      -6.863   8.306  64.337  1.00  0.00    -0.069 C  
BRANCH  13  14
HETATM   14  C   UNL     1      -8.144   7.486  64.349  1.00  0.00    -0.074 C  
BRANCH  14  15
HETATM   15  C   UNL     1      -8.047   6.317  65.325  1.00  0.00    -0.132 C  
BRANCH  15  16
HETATM   16  C   UNL     1      -8.107   6.824  66.763  1.00  0.00    -0.109 C  
BRANCH  16  17
HETATM   17  C   UNL     1      -9.135   6.059  67.589  1.00  0.00    -0.109 C  
HETATM   18  C   UNL     1     -10.456   6.786  67.637  1.00  0.00    -0.229 C  
HETATM   19  O   UNL     1     -10.704   7.851  67.095  1.00  0.00    -0.326 OA 
HETATM   20  O   UNL     1     -11.380   6.120  68.371  1.00  0.00    -0.271 OA 
ENDBRANCH  16  17
ENDBRANCH  15  16
ENDBRANCH  14  15
ENDBRANCH  13  14
ENDBRANCH  12  13
ENDBRANCH  11  12
ENDBRANCH  10  11
ENDBRANCH   8   9
ENDBRANCH   7   8
ENDBRANCH   5   6
ENDBRANCH   4   5
ENDBRANCH   3   4
ENDBRANCH   2   3
TORSDOF 13
ENDMDL
MODEL      434
REMARK 921   NORMALIZED FREE ENERGY PREDICTED BY IDOCK:   -2.28 KCAL/MOL
REMARK 922        TOTAL FREE ENERGY PREDICTED BY IDOCK:   -5.75 KCAL/MOL
REMARK 923 INTER-LIGAND FREE ENERGY PREDICTED BY IDOCK:   -4.91 KCAL/MOL
REMARK 924 INTRA-LIGAND FREE ENERGY PREDICTED BY IDOCK:   -0.84 KCAL/MOL
REMARK 927      BINDING AFFINITY PREDICTED BY RF-SCORE:    0.00 PKD
ROOT
HETATM    1  C   UNL     1     -11.852  15.420  71.859  1.00  0.00    -0.505 C  
HETATM    2  C   UNL     1     -12.148  15.712  70.399  1.00  0.00    -0.425 C  
ENDROOT
BRANCH   2   3
HETATM    3  C   UNL     1     -11.237  14.906  69.482  1.00  0.00    -0.300 C  
BRANCH   3   4
HETATM    4  C   UNL     1     -11.996  13.755  68.824  1.00  0.00    -0.400 C  
BRANCH   4   5
HETATM    5  C   UNL     1     -11.442  12.426  69.320  1.00  0.00    -0.349 C  
BRANCH   5   6
HETATM    6  C   UNL     1     -12.355  11.720  70.276  1.00  0.00    -0.320 C  
HETATM    7  C   UNL     1     -12.260  10.404  70.527  1.00  0.00    -0.412 C  
BRANCH   7   8
HETATM    8  C   UNL     1     -11.266   9.489  69.876  1.00  0.00    -0.209 C  
BRANCH   8   9
HETATM    9  C   UNL     1      -9.856   9.951  70.091  1.00  0.00    -0.272 C  
HETATM   10  C   UNL     1      -8.957   9.304  70.849  1.00  0.00    -0.273 C  
BRANCH  10  11
HETATM   11  C   UNL     1      -9.289   8.046  71.593  1.00  0.00    -0.208 C  
BRANCH  11  12
HETATM   12  C   UNL     1      -8.966   6.784  70.808  1.00  0.00    -0.151 C  
BRANCH  12  13
HETATM   13  C   UNL     1      -9.933   5.672  71.207  1.00  0.00    -0.248 C  
BRANCH  13  14
HETATM   14  C   UNL     1      -9.180   4.512  71.842  1.00  0.00    -0.178 C  
BRANCH  14  15
HETATM   15  C   UNL     1      -9.762   3.169  71.411  1.00  0.00    -0.219 C  
BRANCH  15  16
HETATM   16  C   UNL     1      -9.524   2.946  69.920  1.00  0.00    -0.173 C  
BRANCH  16  17
HETATM   17  C   UNL     1      -8.042   3.005  69.570  1.00  0.00    -0.062 C  
HETATM   18  C   UNL     1      -7.789   3.925  68.399  1.00  0.00    -0.068 C  
HETATM   19  O   UNL     1      -8.639   4.553  67.790  1.00  0.00    -0.102 OA 
HETATM   20  O   UNL     1      -6.476   3.987  68.072  1.00  0.00    -0.036 OA 
ENDBRANCH  16  17
ENDBRANCH  15  16
ENDBRANCH  14  15
ENDBRANCH  13  14
ENDBRANCH  12  13
ENDBRANCH  11  12
ENDBRANCH  10  11
ENDBRANCH   8   9
ENDBRANCH   7   8
ENDBRANCH   5   6
ENDBRANCH   4   5
ENDBRANCH   3   4
ENDBRANCH   2   3
TORSDOF 13
ENDMDL
MODEL      435
REMARK 921   NORMALIZED FREE ENERGY PREDICTED BY IDOCK:   -2.25 KCAL/MOL
REMARK 922        TOTAL FREE ENERGY PREDICTED BY IDOCK:   -5.71 KCAL/MOL
REMARK 923 INTER-LIGAND FREE ENERGY PREDICTED BY IDOCK:   -5.22 KCAL/MOL
REMARK 924 INTRA-LIGAND FREE ENERGY PREDICTED BY IDOCK:   -0.49 KCAL/MOL
REMARK 927      BINDING AFFINITY PREDICTED BY RF-SCORE:    0.00 PKD
ROOT
HETATM    1  C   UNL     1      -5.459   7.569  72.160  1.00  0.00    -0.036 C  
HETATM    2  C   UNL     1      -5.608   7.882  70.682  1.00  0.00    -0.029 C  
ENDROOT
BRANCH   2   3
HETATM    3  C   UNL     1      -6.497   9.099  70.465  1.00  0.00    -0.056 C  
BRANCH   3   4
HETATM    4  C   UNL     1      -7.608   8.800  69.460  1.00  0.00    -0.080 C  
BRANCH   4   5
HETATM    5  C   UNL     1      -7.412   9.649  68.211  1.00  0.00    -0.077 C  
BRANCH   5   6
HETATM    6  C   UNL     1      -7.459   8.856  66.939  1.00  0.00    -0.083 C  
HETATM    7  C   UNL     1      -7.995   9.339  65.808  1.00  0.00    -0.109 C  
BRANCH   7   8
HETATM    8  C   UNL     1      -8.627  10.694  65.682  1.00  0.00    -0.187 C  
BRANCH   8   9
HETATM    9  C   UNL     1     -10.057  10.603  65.240  1.00  0.00    -0.363 C  
HETATM   10  C   UNL     1     -10.905  11.643  65.212  1.00  0.00    -0.340 C  
BRANCH  10  11
HETATM   11  C   UNL     1     -10.507  13.018  65.657  1.00  0.00    -0.291 C  
BRANCH  11  12
HETATM   12  C   UNL     1     -10.050  13.069  67.106  1.00  0.00    -0.244 C  
BRANCH  12  13
HETATM   13  C   UNL     1     -10.322  14.458  67.680  1.00  0.00    -0.237 C  
BRANCH  13  14
HETATM   14  C   UNL     1     -11.485  14.413  68.660  1.00  0.00    -0.316 C  
BRANCH  14  15
HETATM   15  C   UNL     1     -11.655  15.746  69.383  1.00  0.00    -0.371 C  
BRANCH  15  16
HETATM   16  C   UNL     1     -12.500  15.561  70.640  1.00  0.00    -0.483 C  
BRANCH  16  17
HETATM   17  C   UNL     1     -12.858  14.096  70.869  1.00  0.00    -0.404 C  
HETATM   18  C   UNL     1     -13.506  13.892  72.216  1.00  0.00    -0.526 C  
HETATM   19  O   UNL     1     -13.730  14.764  73.039  1.00  0.00    -0.524 OA 
HETATM   20  O   UNL     1     -13.828  12.594  72.438  1.00  0.00    -0.456 OA 
ENDBRANCH  16  17
ENDBRANCH  15  16
ENDBRANCH  14  15
ENDBRANCH  13  14
ENDBRANCH  12  13
ENDBRANCH  11  12
ENDBRANCH  10  11
ENDBRANCH   8   9
ENDBRANCH   7   8
ENDBRANCH   5   6
ENDBRANCH   4   5
ENDBRANCH   3   4
ENDBRANCH   2   3
TORSDOF 13
ENDMDL
MODEL      436
REMARK 921   NORMALIZED FREE ENERGY PREDICTED BY IDOCK:   -2.22 KCAL/MOL
REMARK 922        TOTAL FREE ENERGY PREDICTED BY IDOCK:   -5.66 KCAL/MOL
REMARK 923 INTER-LIGAND FREE ENERGY PREDICTED BY IDOCK:   -4.77 KCAL/MOL
REMARK 924 INTRA-LIGAND FREE ENERGY PREDICTED BY IDOCK:   -0.89 KCAL/MOL
REMARK 927      BINDING AFFINITY PREDICTED BY RF-SCORE:    0.00 PKD
ROOT
HETATM    1  C   UNL     1     -11.190  13.965  65.531  1.00  0.00    -0.307 C  
HETATM    2  C   UNL     1     -11.709  12.542  65.639  1.00  0.00    -0.473 C  
ENDROOT
BRANCH   2   3
HETATM    3  C   UNL     1     -10.711  11.647  66.363  1.00  0.00    -0.316 C  
BRANCH   3   4
HETATM    4  C   UNL     1      -9.601  12.470  67.014  1.00  0.00    -0.216 C  
BRANCH   4   5
HETATM    5  C   UNL     1      -8.243  11.934  66.581  1.00  0.00    -0.088 C  
BRANCH   5   6
HETATM    6  C   UNL     1      -7.091  12.634  67.236  1.00  0.00    -0.101 C  
HETATM    7  C   UNL     1      -7.058  13.965  67.407  1.00  0.00    -0.091 C  
BRANCH   7   8
HETATM    8  C   UNL     1      -8.135  14.904  66.950  1.00  0.00    -0.119 C  
BRANCH   8   9
HETATM    9  C   UNL     1      -7.589  16.260  66.617  1.00  0.00    -0.268 C  
HETATM   10  C   UNL     1      -8.344  17.357  66.449  1.00  0.00    -0.302 C  
BRANCH  10  11
HETATM   11  C   UNL     1      -9.839  17.328  66.551  1.00  0.00    -0.306 C  
BRANCH  11  12
HETATM   12  C   UNL     1     -10.368  18.032  67.790  1.00  0.00    -0.403 C  
BRANCH  12  13
HETATM   13  C   UNL     1     -10.302  17.083  68.985  1.00  0.00    -0.330 C  
BRANCH  13  14
HETATM   14  C   UNL     1     -11.057  15.796  68.688  1.00  0.00    -0.327 C  
BRANCH  14  15
HETATM   15  C   UNL     1     -11.290  14.983  69.958  1.00  0.00    -0.305 C  
BRANCH  15  16
HETATM   16  C   UNL     1     -12.786  14.819  70.212  1.00  0.00    -0.324 C  
BRANCH  16  17
HETATM   17  C   UNL     1     -13.172  15.261  71.620  1.00  0.00    -0.532 C  
HETATM   18  C   UNL     1     -12.673  14.287  72.659  1.00  0.00    -0.307 C  
HETATM   19  O   UNL     1     -12.040  13.268  72.437  1.00  0.00     0.737 OA 
HETATM   20  O   UNL     1     -13.010  14.664  73.916  1.00  0.00    -0.389 OA 
ENDBRANCH  16  17
ENDBRANCH  15  16
ENDBRANCH  14  15
ENDBRANCH  13  14
ENDBRANCH  12  13
ENDBRANCH  11  12
ENDBRANCH  10  11
ENDBRANCH   8   9
ENDBRANCH   7   8
ENDBRANCH   5   6
ENDBRANCH   4   5
ENDBRANCH   3   4
ENDBRANCH   2   3
TORSDOF 13
ENDMDL
MODEL      437
REMARK 921   NORMALIZED FREE ENERGY PREDICTED BY IDOCK:   -2.21 KCAL/MOL
REMARK 922        TOTAL FREE ENERGY PREDICTED BY IDOCK:   -5.64 KCAL/MOL
REMARK 923 INTER-LIGAND FREE ENERGY PREDICTED BY IDOCK:   -4.52 KCAL/MOL
REMARK 924 INTRA-LIGAND FREE ENERGY PREDICTED BY IDOCK:   -1.12 KCAL/MOL
REMARK 927      BINDING AFFINITY PREDICTED BY RF-SCORE:    0.00 PKD
ROOT
HETATM    1  C   UNL     1     -12.065  10.882  69.361  1.00  0.00    -0.362 C  
HETATM    2  C   UNL     1     -10.610  11.194  69.061  1.00  0.00    -0.251 C  
ENDROOT
BRANCH   2   3
HETATM    3  C   UNL     1      -9.750   9.940  69.146  1.00  0.00    -0.204 C  
BRANCH   3   4
HETATM    4  C   UNL     1      -8.328  10.212  68.660  1.00  0.00    -0.116 C  
BRANCH   4   5
HETATM    5  C   UNL     1      -7.517  10.851  69.779  1.00  0.00     0.042 C  
BRANCH   5   6
HETATM    6  C   UNL     1      -6.125  11.223  69.368  1.00  0.00    -0.074 C  
HETATM    7  C   UNL     1      -5.789  12.471  69.003  1.00  0.00    -0.071 C  
BRANCH   7   8
HETATM    8  C   UNL     1      -6.750  13.620  68.936  1.00  0.00    -0.108 C  
BRANCH   8   9
HETATM    9  C   UNL     1      -6.185  14.776  68.165  1.00  0.00    -0.145 C  
HETATM   10  C   UNL     1      -6.565  16.052  68.333  1.00  0.00    -0.120 C  
BRANCH  10  11
HETATM   11  C   UNL     1      -7.634  16.452  69.305  1.00  0.00    -0.180 C  
BRANCH  11  12
HETATM   12  C   UNL     1      -9.018  15.965  68.907  1.00  0.00    -0.228 C  
BRANCH  12  13
HETATM   13  C   UNL     1      -9.406  16.570  67.560  1.00  0.00    -0.218 C  
BRANCH  13  14
HETATM   14  C   UNL     1      -9.919  15.491  66.617  1.00  0.00    -0.272 C  
BRANCH  14  15
HETATM   15  C   UNL     1     -10.728  16.091  65.472  1.00  0.00    -0.374 C  
BRANCH  15  16
HETATM   16  C   UNL     1     -11.633  15.031  64.852  1.00  0.00    -0.374 C  
BRANCH  16  17
HETATM   17  C   UNL     1     -11.140  13.620  65.156  1.00  0.00    -0.324 C  
HETATM   18  C   UNL     1     -12.239  12.601  64.977  1.00  0.00    -0.476 C  
HETATM   19  O   UNL     1     -13.385  12.842  64.633  1.00  0.00    -0.665 OA 
HETATM   20  O   UNL     1     -11.818  11.342  65.246  1.00  0.00     0.003 OA 
ENDBRANCH  16  17
ENDBRANCH  15  16
ENDBRANCH  14  15
ENDBRANCH  13  14
ENDBRANCH  12  13
ENDBRANCH  11  12
ENDBRANCH  10  11
ENDBRANCH   8   9
ENDBRANCH   7   8
ENDBRANCH   5   6
ENDBRANCH   4   5
ENDBRANCH   3   4
ENDBRANCH   2   3
TORSDOF 13
ENDMDL
MODEL      438
REMARK 921   NORMALIZED FREE ENERGY PREDICTED BY IDOCK:   -2.21 KCAL/MOL
REMARK 922        TOTAL FREE ENERGY PREDICTED BY IDOCK:   -5.63 KCAL/MOL
REMARK 923 INTER-LIGAND FREE ENERGY PREDICTED BY IDOCK:   -3.92 KCAL/MOL
REMARK 924 INTRA-LIGAND FREE ENERGY PREDICTED BY IDOCK:   -1.71 KCAL/MOL
REMARK 927      BINDING AFFINITY PREDICTED BY RF-SCORE:    0.00 PKD
ROOT
HETATM    1  C   UNL     1     -10.338   5.375  71.195  1.00  0.00    -0.304 C  
HETATM    2  C   UNL     1      -8.918   5.914  71.208  1.00  0.00    -0.145 C  
ENDROOT
BRANCH   2   3
HETATM    3  C   UNL     1      -7.972   4.986  70.458  1.00  0.00    -0.081 C  
BRANCH   3   4
HETATM    4  C   UNL     1      -8.025   5.241  68.953  1.00  0.00    -0.086 C  
BRANCH   4   5
HETATM    5  C   UNL     1      -8.496   3.984  68.236  1.00  0.00    -0.105 C  
BRANCH   5   6
HETATM    6  C   UNL     1      -9.750   4.187  67.440  1.00  0.00    -0.202 C  
HETATM    7  C   UNL     1      -9.748   4.274  66.100  1.00  0.00    -0.220 C  
BRANCH   7   8
HETATM    8  C   UNL     1      -8.513   4.209  65.250  1.00  0.00    -0.114 C  
BRANCH   8   9
HETATM    9  C   UNL     1      -8.499   5.283  64.204  1.00  0.00    -0.108 C  
HETATM   10  C   UNL     1      -8.088   6.542  64.421  1.00  0.00    -0.065 C  
BRANCH  10  11
HETATM   11  C   UNL     1      -7.623   7.016  65.765  1.00  0.00    -0.094 C  
BRANCH  11  12
HETATM   12  C   UNL     1      -8.640   7.893  66.476  1.00  0.00    -0.149 C  
BRANCH  12  13
HETATM   13  C   UNL     1      -9.322   8.810  65.463  1.00  0.00    -0.165 C  
BRANCH  13  14
HETATM   14  C   UNL     1      -8.582  10.136  65.360  1.00  0.00    -0.165 C  
BRANCH  14  15
HETATM   15  C   UNL     1      -9.136  11.160  66.346  1.00  0.00    -0.198 C  
BRANCH  15  16
HETATM   16  C   UNL     1     -10.646  11.296  66.173  1.00  0.00    -0.312 C  
BRANCH  16  17
HETATM   17  C   UNL     1     -11.304  11.895  67.411  1.00  0.00    -0.389 C  
HETATM   18  C   UNL     1     -11.514  13.382  67.259  1.00  0.00    -0.340 C  
HETATM   19  O   UNL     1     -11.208  14.049  66.284  1.00  0.00    -0.311 OA 
HETATM   20  O   UNL     1     -12.096  13.931  68.352  1.00  0.00    -0.365 OA 
ENDBRANCH  16  17
ENDBRANCH  15  16
ENDBRANCH  14  15
ENDBRANCH  13  14
ENDBRANCH  12  13
ENDBRANCH  11  12
ENDBRANCH  10  11
ENDBRANCH   8   9
ENDBRANCH   7   8
ENDBRANCH   5   6
ENDBRANCH   4   5
ENDBRANCH   3   4
ENDBRANCH   2   3
TORSDOF 13
ENDMDL
MODEL      439
REMARK 921   NORMALIZED FREE ENERGY PREDICTED BY IDOCK:   -2.20 KCAL/MOL
REMARK 922        TOTAL FREE ENERGY PREDICTED BY IDOCK:   -5.62 KCAL/MOL
REMARK 923 INTER-LIGAND FREE ENERGY PREDICTED BY IDOCK:   -4.32 KCAL/MOL
REMARK 924 INTRA-LIGAND FREE ENERGY PREDICTED BY IDOCK:   -1.31 KCAL/MOL
REMARK 927      BINDING AFFINITY PREDICTED BY RF-SCORE:    0.00 PKD
ROOT
HETATM    1  C   UNL     1     -11.180  10.725  68.003  1.00  0.00    -0.372 C  
HETATM    2  C   UNL     1     -11.242  11.337  66.615  1.00  0.00    -0.247 C  
ENDROOT
BRANCH   2   3
HETATM    3  C   UNL     1     -10.019  10.954  65.791  1.00  0.00    -0.299 C  
BRANCH   3   4
HETATM    4  C   UNL     1      -9.889   9.437  65.668  1.00  0.00    -0.294 C  
BRANCH   4   5
HETATM    5  C   UNL     1      -8.588   8.981  66.315  1.00  0.00    -0.140 C  
BRANCH   5   6
HETATM    6  C   UNL     1      -7.421   8.989  65.374  1.00  0.00    -0.089 C  
HETATM    7  C   UNL     1      -6.506   9.971  65.367  1.00  0.00    -0.106 C  
BRANCH   7   8
HETATM    8  C   UNL     1      -6.550  11.174  66.262  1.00  0.00    -0.069 C  
BRANCH   8   9
HETATM    9  C   UNL     1      -5.921  10.901  67.596  1.00  0.00    -0.043 C  
HETATM   10  C   UNL     1      -5.842  11.798  68.590  1.00  0.00    -0.049 C  
BRANCH  10  11
HETATM   11  C   UNL     1      -6.359  13.198  68.454  1.00  0.00    -0.084 C  
BRANCH  11  12
HETATM   12  C   UNL     1      -7.875  13.272  68.370  1.00  0.00    -0.137 C  
BRANCH  12  13
HETATM   13  C   UNL     1      -8.281  14.346  67.364  1.00  0.00    -0.215 C  
BRANCH  13  14
HETATM   14  C   UNL     1      -9.796  14.470  67.298  1.00  0.00    -0.236 C  
BRANCH  14  15
HETATM   15  C   UNL     1     -10.219  15.831  66.753  1.00  0.00    -0.284 C  
BRANCH  15  16
HETATM   16  C   UNL     1     -10.057  16.903  67.827  1.00  0.00    -0.292 C  
BRANCH  16  17
HETATM   17  C   UNL     1      -9.136  18.027  67.367  1.00  0.00    -0.250 C  
HETATM   18  C   UNL     1      -9.892  19.322  67.192  1.00  0.00    -0.339 C  
HETATM   19  O   UNL     1     -11.086  19.482  67.385  1.00  0.00    -0.433 OA 
HETATM   20  O   UNL     1      -9.089  20.332  66.780  1.00  0.00    -0.338 OA 
ENDBRANCH  16  17
ENDBRANCH  15  16
ENDBRANCH  14  15
ENDBRANCH  13  14
ENDBRANCH  12  13
ENDBRANCH  11  12
ENDBRANCH  10  11
ENDBRANCH   8   9
ENDBRANCH   7   8
ENDBRANCH   5   6
ENDBRANCH   4   5
ENDBRANCH   3   4
ENDBRANCH   2   3
TORSDOF 13
ENDMDL
MODEL      440
REMARK 921   NORMALIZED FREE ENERGY PREDICTED BY IDOCK:   -2.19 KCAL/MOL
REMARK 922        TOTAL FREE ENERGY PREDICTED BY IDOCK:   -5.61 KCAL/MOL
REMARK 923 INTER-LIGAND FREE ENERGY PREDICTED BY IDOCK:   -4.04 KCAL/MOL
REMARK 924 INTRA-LIGAND FREE ENERGY PREDICTED BY IDOCK:   -1.56 KCAL/MOL
REMARK 927      BINDING AFFINITY PREDICTED BY RF-SCORE:    0.00 PKD
ROOT
HETATM    1  C   UNL     1      -6.070  13.381  69.639  1.00  0.00    -0.123 C  
HETATM    2  C   UNL     1      -6.518  13.792  68.247  1.00  0.00    -0.110 C  
ENDROOT
BRANCH   2   3
HETATM    3  C   UNL     1      -7.191  12.634  67.522  1.00  0.00    -0.155 C  
BRANCH   3   4
HETATM    4  C   UNL     1      -6.763  11.291  68.111  1.00  0.00    -0.058 C  
BRANCH   4   5
HETATM    5  C   UNL     1      -7.913  10.298  68.010  1.00  0.00    -0.101 C  
BRANCH   5   6
HETATM    6  C   UNL     1      -9.087  10.823  67.240  1.00  0.00    -0.151 C  
HETATM    7  C   UNL     1     -10.356  10.593  67.614  1.00  0.00    -0.246 C  
BRANCH   7   8
HETATM    8  C   UNL     1     -10.752   9.777  68.809  1.00  0.00    -0.243 C  
BRANCH   8   9
HETATM    9  C   UNL     1     -11.307  10.631  69.909  1.00  0.00    -0.386 C  
HETATM   10  C   UNL     1     -11.605  10.180  71.137  1.00  0.00    -0.430 C  
BRANCH  10  11
HETATM   11  C   UNL     1     -11.436   8.743  71.529  1.00  0.00    -0.375 C  
BRANCH  11  12
HETATM   12  C   UNL     1     -10.211   8.499  72.395  1.00  0.00    -0.369 C  
BRANCH  12  13
HETATM   13  C   UNL     1      -9.327   7.438  71.744  1.00  0.00    -0.161 C  
BRANCH  13  14
HETATM   14  C   UNL     1     -10.081   6.722  70.632  1.00  0.00    -0.204 C  
BRANCH  14  15
HETATM   15  C   UNL     1      -9.904   5.209  70.725  1.00  0.00    -0.270 C  
BRANCH  15  16
HETATM   16  C   UNL     1      -8.686   4.771  69.919  1.00  0.00    -0.113 C  
BRANCH  16  17
HETATM   17  C   UNL     1      -8.584   5.521  68.596  1.00  0.00    -0.103 C  
HETATM   18  C   UNL     1      -9.221   4.744  67.470  1.00  0.00    -0.127 C  
HETATM   19  O   UNL     1      -9.757   3.653  67.572  1.00  0.00    -0.184 OA 
HETATM   20  O   UNL     1      -9.136   5.396  66.286  1.00  0.00    -0.134 OA 
ENDBRANCH  16  17
ENDBRANCH  15  16
ENDBRANCH  14  15
ENDBRANCH  13  14
ENDBRANCH  12  13
ENDBRANCH  11  12
ENDBRANCH  10  11
ENDBRANCH   8   9
ENDBRANCH   7   8
ENDBRANCH   5   6
ENDBRANCH   4   5
ENDBRANCH   3   4
ENDBRANCH   2   3
TORSDOF 13
ENDMDL
MODEL      441
REMARK 921   NORMALIZED FREE ENERGY PREDICTED BY IDOCK:   -2.17 KCAL/MOL
REMARK 922        TOTAL FREE ENERGY PREDICTED BY IDOCK:   -5.56 KCAL/MOL
REMARK 923 INTER-LIGAND FREE ENERGY PREDICTED BY IDOCK:   -4.12 KCAL/MOL
REMARK 924 INTRA-LIGAND FREE ENERGY PREDICTED BY IDOCK:   -1.43 KCAL/MOL
REMARK 927      BINDING AFFINITY PREDICTED BY RF-SCORE:    0.00 PKD
ROOT
HETATM    1  C   UNL     1     -10.100   3.964  64.249  1.00  0.00    -0.216 C  
HETATM    2  C   UNL     1      -8.754   4.209  64.908  1.00  0.00    -0.125 C  
ENDROOT
BRANCH   2   3
HETATM    3  C   UNL     1      -8.905   5.050  66.170  1.00  0.00    -0.125 C  
BRANCH   3   4
HETATM    4  C   UNL     1     -10.266   4.821  66.825  1.00  0.00    -0.253 C  
BRANCH   4   5
HETATM    5  C   UNL     1     -10.087   4.635  68.326  1.00  0.00    -0.070 C  
BRANCH   5   6
HETATM    6  C   UNL     1      -8.826   3.910  68.690  1.00  0.00    -0.150 C  
HETATM    7  C   UNL     1      -7.879   4.455  69.469  1.00  0.00    -0.057 C  
BRANCH   7   8
HETATM    8  C   UNL     1      -7.948   5.841  70.040  1.00  0.00    -0.099 C  
BRANCH   8   9
HETATM    9  C   UNL     1      -7.119   6.811  69.252  1.00  0.00    -0.087 C  
HETATM   10  C   UNL     1      -7.525   8.042  68.905  1.00  0.00    -0.093 C  
BRANCH  10  11
HETATM   11  C   UNL     1      -8.885   8.568  69.252  1.00  0.00    -0.142 C  
BRANCH  11  12
HETATM   12  C   UNL     1      -9.814   8.663  68.053  1.00  0.00    -0.201 C  
BRANCH  12  13
HETATM   13  C   UNL     1     -10.145  10.128  67.776  1.00  0.00    -0.216 C  
BRANCH  13  14
HETATM   14  C   UNL     1      -9.553  10.567  66.444  1.00  0.00    -0.220 C  
BRANCH  14  15
HETATM   15  C   UNL     1      -9.226  12.057  66.446  1.00  0.00    -0.216 C  
BRANCH  15  16
HETATM   16  C   UNL     1     -10.458  12.868  66.835  1.00  0.00    -0.252 C  
BRANCH  16  17
HETATM   17  C   UNL     1     -11.674  12.483  66.000  1.00  0.00    -0.472 C  
HETATM   18  C   UNL     1     -12.185  13.655  65.197  1.00  0.00    -0.433 C  
HETATM   19  O   UNL     1     -11.709  14.778  65.194  1.00  0.00    -0.358 OA 
HETATM   20  O   UNL     1     -13.268  13.330  64.451  1.00  0.00    -0.335 OA 
ENDBRANCH  16  17
ENDBRANCH  15  16
ENDBRANCH  14  15
ENDBRANCH  13  14
ENDBRANCH  12  13
ENDBRANCH  11  12
ENDBRANCH  10  11
ENDBRANCH   8   9
ENDBRANCH   7   8
ENDBRANCH   5   6
ENDBRANCH   4   5
ENDBRANCH   3   4
ENDBRANCH   2   3
TORSDOF 13
ENDMDL
MODEL      442
REMARK 921   NORMALIZED FREE ENERGY PREDICTED BY IDOCK:   -2.15 KCAL/MOL
REMARK 922        TOTAL FREE ENERGY PREDICTED BY IDOCK:   -5.53 KCAL/MOL
REMARK 923 INTER-LIGAND FREE ENERGY PREDICTED BY IDOCK:   -3.65 KCAL/MOL
REMARK 924 INTRA-LIGAND FREE ENERGY PREDICTED BY IDOCK:   -1.88 KCAL/MOL
REMARK 927      BINDING AFFINITY PREDICTED BY RF-SCORE:    0.00 PKD
ROOT
HETATM    1  C   UNL     1      -5.847  12.974  69.585  1.00  0.00    -0.111 C  
HETATM    2  C   UNL     1      -6.942  13.371  68.610  1.00  0.00    -0.101 C  
ENDROOT
BRANCH   2   3
HETATM    3  C   UNL     1      -7.581  12.144  67.973  1.00  0.00    -0.123 C  
BRANCH   3   4
HETATM    4  C   UNL     1      -6.547  11.313  67.217  1.00  0.00    -0.093 C  
BRANCH   4   5
HETATM    5  C   UNL     1      -6.695   9.844  67.591  1.00  0.00    -0.073 C  
BRANCH   5   6
HETATM    6  C   UNL     1      -7.063   9.631  69.029  1.00  0.00    -0.066 C  
HETATM    7  C   UNL     1      -7.284   8.411  69.544  1.00  0.00    -0.061 C  
BRANCH   7   8
HETATM    8  C   UNL     1      -7.219   7.136  68.757  1.00  0.00    -0.094 C  
BRANCH   8   9
HETATM    9  C   UNL     1      -7.348   5.929  69.637  1.00  0.00    -0.075 C  
HETATM   10  C   UNL     1      -8.519   5.415  70.045  1.00  0.00    -0.111 C  
BRANCH  10  11
HETATM   11  C   UNL     1      -9.837   6.025  69.678  1.00  0.00    -0.205 C  
BRANCH  11  12
HETATM   12  C   UNL     1     -10.391   5.506  68.360  1.00  0.00    -0.243 C  
BRANCH  12  13
HETATM   13  C   UNL     1     -11.006   6.660  67.573  1.00  0.00    -0.416 C  
BRANCH  13  14
HETATM   14  C   UNL     1      -9.940   7.383  66.764  1.00  0.00    -0.300 C  
BRANCH  14  15
HETATM   15  C   UNL     1     -10.257   8.870  66.630  1.00  0.00    -0.338 C  
BRANCH  15  16
HETATM   16  C   UNL     1      -9.547   9.453  65.412  1.00  0.00    -0.296 C  
BRANCH  16  17
HETATM   17  C   UNL     1     -10.401  10.502  64.709  1.00  0.00    -0.300 C  
HETATM   18  C   UNL     1      -9.625  11.209  63.624  1.00  0.00    -0.288 C  
HETATM   19  O   UNL     1      -8.463  10.992  63.323  1.00  0.00    -0.059 OA 
HETATM   20  O   UNL     1     -10.369  12.147  62.991  1.00  0.00    -0.297 OA 
ENDBRANCH  16  17
ENDBRANCH  15  16
ENDBRANCH  14  15
ENDBRANCH  13  14
ENDBRANCH  12  13
ENDBRANCH  11  12
ENDBRANCH  10  11
ENDBRANCH   8   9
ENDBRANCH   7   8
ENDBRANCH   5   6
ENDBRANCH   4   5
ENDBRANCH   3   4
ENDBRANCH   2   3
TORSDOF 13
ENDMDL
MODEL      443
REMARK 921   NORMALIZED FREE ENERGY PREDICTED BY IDOCK:   -2.12 KCAL/MOL
REMARK 922        TOTAL FREE ENERGY PREDICTED BY IDOCK:   -5.48 KCAL/MOL
REMARK 923 INTER-LIGAND FREE ENERGY PREDICTED BY IDOCK:   -5.12 KCAL/MOL
REMARK 924 INTRA-LIGAND FREE ENERGY PREDICTED BY IDOCK:   -0.36 KCAL/MOL
REMARK 927      BINDING AFFINITY PREDICTED BY RF-SCORE:    0.00 PKD
ROOT
HETATM    1  C   UNL     1     -10.924  10.954  67.525  1.00  0.00    -0.352 C  
HETATM    2  C   UNL     1     -10.142  10.185  68.575  1.00  0.00    -0.186 C  
ENDROOT
BRANCH   2   3
HETATM    3  C   UNL     1      -9.162   9.214  67.929  1.00  0.00    -0.144 C  
BRANCH   3   4
HETATM    4  C   UNL     1      -9.341   9.177  66.413  1.00  0.00    -0.261 C  
BRANCH   4   5
HETATM    5  C   UNL     1      -8.090   9.721  65.736  1.00  0.00    -0.119 C  
BRANCH   5   6
HETATM    6  C   UNL     1      -7.725   8.987  64.481  1.00  0.00    -0.116 C  
HETATM    7  C   UNL     1      -8.442   9.090  63.351  1.00  0.00    -0.176 C  
BRANCH   7   8
HETATM    8  C   UNL     1      -9.688   9.914  63.211  1.00  0.00     0.227 C  
BRANCH   8   9
HETATM    9  C   UNL     1      -9.464  11.338  63.623  1.00  0.00    -0.244 C  
HETATM   10  C   UNL     1     -10.435  12.262  63.703  1.00  0.00    -0.483 C  
BRANCH  10  11
HETATM   11  C   UNL     1     -11.862  11.961  63.355  1.00  0.00    -0.512 C  
BRANCH  11  12
HETATM   12  C   UNL     1     -12.857  12.828  64.109  1.00  0.00    -0.209 C  
BRANCH  12  13
HETATM   13  C   UNL     1     -12.326  14.257  64.200  1.00  0.00    -0.361 C  
BRANCH  13  14
HETATM   14  C   UNL     1     -11.960  14.601  65.636  1.00  0.00    -0.243 C  
BRANCH  14  15
HETATM   15  C   UNL     1     -10.477  14.361  65.905  1.00  0.00    -0.317 C  
BRANCH  15  16
HETATM   16  C   UNL     1      -9.961  15.355  66.941  1.00  0.00    -0.247 C  
BRANCH  16  17
HETATM   17  C   UNL     1     -10.263  16.795  66.541  1.00  0.00    -0.319 C  
HETATM   18  C   UNL     1     -10.756  17.601  67.718  1.00  0.00    -0.332 C  
HETATM   19  O   UNL     1     -10.904  17.185  68.855  1.00  0.00    -0.289 OA 
HETATM   20  O   UNL     1     -11.032  18.884  67.380  1.00  0.00    -0.437 OA 
ENDBRANCH  16  17
ENDBRANCH  15  16
ENDBRANCH  14  15
ENDBRANCH  13  14
ENDBRANCH  12  13
ENDBRANCH  11  12
ENDBRANCH  10  11
ENDBRANCH   8   9
ENDBRANCH   7   8
ENDBRANCH   5   6
ENDBRANCH   4   5
ENDBRANCH   3   4
ENDBRANCH   2   3
TORSDOF 13
ENDMDL
MODEL      444
REMARK 921   NORMALIZED FREE ENERGY PREDICTED BY IDOCK:   -2.12 KCAL/MOL
REMARK 922        TOTAL FREE ENERGY PREDICTED BY IDOCK:   -5.47 KCAL/MOL
REMARK 923 INTER-LIGAND FREE ENERGY PREDICTED BY IDOCK:   -4.87 KCAL/MOL
REMARK 924 INTRA-LIGAND FREE ENERGY PREDICTED BY IDOCK:   -0.60 KCAL/MOL
REMARK 927      BINDING AFFINITY PREDICTED BY RF-SCORE:    0.00 PKD
ROOT
HETATM    1  C   UNL     1      -7.750  15.320  67.856  1.00  0.00    -0.147 C  
HETATM    2  C   UNL     1      -9.138  14.704  67.870  1.00  0.00    -0.189 C  
ENDROOT
BRANCH   2   3
HETATM    3  C   UNL     1      -9.717  14.625  66.464  1.00  0.00    -0.297 C  
BRANCH   3   4
HETATM    4  C   UNL     1     -11.088  15.296  66.393  1.00  0.00    -0.273 C  
BRANCH   4   5
HETATM    5  C   UNL     1     -11.848  14.782  65.178  1.00  0.00    -0.313 C  
BRANCH   5   6
HETATM    6  C   UNL     1     -12.593  13.507  65.437  1.00  0.00    -0.531 C  
HETATM    7  C   UNL     1     -12.353  12.378  64.751  1.00  0.00    -0.497 C  
BRANCH   7   8
HETATM    8  C   UNL     1     -11.349  12.260  63.643  1.00  0.00    -0.547 C  
BRANCH   8   9
HETATM    9  C   UNL     1      -9.944  12.213  64.165  1.00  0.00    -0.279 C  
HETATM   10  C   UNL     1      -9.515  11.352  65.101  1.00  0.00    -0.223 C  
BRANCH  10  11
HETATM   11  C   UNL     1     -10.423  10.351  65.750  1.00  0.00    -0.187 C  
BRANCH  11  12
HETATM   12  C   UNL     1      -9.809   8.964  65.851  1.00  0.00    -0.200 C  
BRANCH  12  13
HETATM   13  C   UNL     1      -9.538   8.630  67.317  1.00  0.00    -0.216 C  
BRANCH  13  14
HETATM   14  C   UNL     1     -10.278   9.596  68.230  1.00  0.00    -0.216 C  
BRANCH  14  15
HETATM   15  C   UNL     1     -10.250   9.122  69.680  1.00  0.00    -0.211 C  
BRANCH  15  16
HETATM   16  C   UNL     1      -8.983   9.614  70.372  1.00  0.00    -0.239 C  
BRANCH  16  17
HETATM   17  C   UNL     1      -8.178  10.550  69.477  1.00  0.00    -0.092 C  
HETATM   18  C   UNL     1      -6.890  10.975  70.140  1.00  0.00     0.064 C  
HETATM   19  O   UNL     1      -6.512  10.632  71.248  1.00  0.00    -0.193 OA 
HETATM   20  O   UNL     1      -6.164  11.809  69.358  1.00  0.00    -0.081 OA 
ENDBRANCH  16  17
ENDBRANCH  15  16
ENDBRANCH  14  15
ENDBRANCH  13  14
ENDBRANCH  12  13
ENDBRANCH  11  12
ENDBRANCH  10  11
ENDBRANCH   8   9
ENDBRANCH   7   8
ENDBRANCH   5   6
ENDBRANCH   4   5
ENDBRANCH   3   4
ENDBRANCH   2   3
TORSDOF 13
ENDMDL
MODEL      445
REMARK 921   NORMALIZED FREE ENERGY PREDICTED BY IDOCK:   -2.11 KCAL/MOL
REMARK 922        TOTAL FREE ENERGY PREDICTED BY IDOCK:   -5.45 KCAL/MOL
REMARK 923 INTER-LIGAND FREE ENERGY PREDICTED BY IDOCK:   -3.20 KCAL/MOL
REMARK 924 INTRA-LIGAND FREE ENERGY PREDICTED BY IDOCK:   -2.26 KCAL/MOL
REMARK 927      BINDING AFFINITY PREDICTED BY RF-SCORE:    0.00 PKD
ROOT
HETATM    1  C   UNL     1     -10.516   8.931  66.978  1.00  0.00    -0.326 C  
HETATM    2  C   UNL     1     -10.500   7.413  66.992  1.00  0.00    -0.404 C  
ENDROOT
BRANCH   2   3
HETATM    3  C   UNL     1      -9.076   6.877  66.935  1.00  0.00    -0.152 C  
BRANCH   3   4
HETATM    4  C   UNL     1      -8.150   7.672  67.853  1.00  0.00    -0.123 C  
BRANCH   4   5
HETATM    5  C   UNL     1      -6.856   7.997  67.120  1.00  0.00    -0.073 C  
BRANCH   5   6
HETATM    6  C   UNL     1      -7.042   8.947  65.975  1.00  0.00    -0.088 C  
HETATM    7  C   UNL     1      -7.238  10.263  66.154  1.00  0.00    -0.121 C  
BRANCH   7   8
HETATM    8  C   UNL     1      -7.320  10.932  67.494  1.00  0.00    -0.096 C  
BRANCH   8   9
HETATM    9  C   UNL     1      -5.963  11.150  68.093  1.00  0.00    -0.045 C  
HETATM   10  C   UNL     1      -5.635  10.832  69.355  1.00  0.00    -0.037 C  
BRANCH  10  11
HETATM   11  C   UNL     1      -6.620  10.242  70.318  1.00  0.00    -0.142 C  
BRANCH  11  12
HETATM   12  C   UNL     1      -6.218   8.863  70.816  1.00  0.00    -0.043 C  
BRANCH  12  13
HETATM   13  C   UNL     1      -7.184   8.411  71.909  1.00  0.00    -0.111 C  
BRANCH  13  14
HETATM   14  C   UNL     1      -6.973   6.940  72.234  1.00  0.00    -0.062 C  
BRANCH  14  15
HETATM   15  C   UNL     1      -7.321   6.052  71.042  1.00  0.00    -0.080 C  
BRANCH  15  16
HETATM   16  C   UNL     1      -8.538   5.190  71.364  1.00  0.00    -0.132 C  
BRANCH  16  17
HETATM   17  C   UNL     1      -9.674   5.424  70.374  1.00  0.00    -0.254 C  
HETATM   18  C   UNL     1     -10.822   6.163  71.016  1.00  0.00    -0.279 C  
HETATM   19  O   UNL     1     -10.868   6.539  72.176  1.00  0.00    -0.218 OA 
HETATM   20  O   UNL     1     -11.842   6.377  70.150  1.00  0.00    -0.409 OA 
ENDBRANCH  16  17
ENDBRANCH  15  16
ENDBRANCH  14  15
ENDBRANCH  13  14
ENDBRANCH  12  13
ENDBRANCH  11  12
ENDBRANCH  10  11
ENDBRANCH   8   9
ENDBRANCH   7   8
ENDBRANCH   5   6
ENDBRANCH   4   5
ENDBRANCH   3   4
ENDBRANCH   2   3
TORSDOF 13
ENDMDL
MODEL      446
REMARK 921   NORMALIZED FREE ENERGY PREDICTED BY IDOCK:   -2.09 KCAL/MOL
REMARK 922        TOTAL FREE ENERGY PREDICTED BY IDOCK:   -5.41 KCAL/MOL
REMARK 923 INTER-LIGAND FREE ENERGY PREDICTED BY IDOCK:   -3.88 KCAL/MOL
REMARK 924 INTRA-LIGAND FREE ENERGY PREDICTED BY IDOCK:   -1.53 KCAL/MOL
REMARK 927      BINDING AFFINITY PREDICTED BY RF-SCORE:    0.00 PKD
ROOT
HETATM    1  C   UNL     1     -10.605   2.798  74.309  1.00  0.00    -0.223 C  
HETATM    2  C   UNL     1     -10.655   3.731  73.112  1.00  0.00    -0.268 C  
ENDROOT
BRANCH   2   3
HETATM    3  C   UNL     1      -9.738   4.931  73.313  1.00  0.00    -0.155 C  
BRANCH   3   4
HETATM    4  C   UNL     1     -10.469   6.239  73.017  1.00  0.00    -0.249 C  
BRANCH   4   5
HETATM    5  C   UNL     1     -11.569   5.992  71.994  1.00  0.00    -0.333 C  
BRANCH   5   6
HETATM    6  C   UNL     1     -11.320   6.663  70.677  1.00  0.00    -0.401 C  
HETATM    7  C   UNL     1     -10.703   6.045  69.658  1.00  0.00    -0.405 C  
BRANCH   7   8
HETATM    8  C   UNL     1     -10.171   4.643  69.716  1.00  0.00    -0.139 C  
BRANCH   8   9
HETATM    9  C   UNL     1      -8.699   4.593  69.434  1.00  0.00    -0.111 C  
HETATM   10  C   UNL     1      -8.169   4.296  68.237  1.00  0.00    -0.090 C  
BRANCH  10  11
HETATM   11  C   UNL     1      -9.013   3.950  67.048  1.00  0.00    -0.150 C  
BRANCH  11  12
HETATM   12  C   UNL     1      -9.253   5.130  66.120  1.00  0.00    -0.153 C  
BRANCH  12  13
HETATM   13  C   UNL     1      -7.946   5.892  65.913  1.00  0.00    -0.109 C  
BRANCH  13  14
HETATM   14  C   UNL     1      -8.066   6.849  64.735  1.00  0.00    -0.095 C  
BRANCH  14  15
HETATM   15  C   UNL     1      -7.659   8.266  65.126  1.00  0.00    -0.093 C  
BRANCH  15  16
HETATM   16  C   UNL     1      -8.541   8.774  66.263  1.00  0.00    -0.144 C  
BRANCH  16  17
HETATM   17  C   UNL     1      -8.469  10.291  66.399  1.00  0.00    -0.132 C  
HETATM   18  C   UNL     1      -9.715  10.846  67.044  1.00  0.00    -0.176 C  
HETATM   19  O   UNL     1     -10.675  10.193  67.420  1.00  0.00    -0.260 OA 
HETATM   20  O   UNL     1      -9.669  12.194  67.169  1.00  0.00    -0.195 OA 
ENDBRANCH  16  17
ENDBRANCH  15  16
ENDBRANCH  14  15
ENDBRANCH  13  14
ENDBRANCH  12  13
ENDBRANCH  11  12
ENDBRANCH  10  11
ENDBRANCH   8   9
ENDBRANCH   7   8
ENDBRANCH   5   6
ENDBRANCH   4   5
ENDBRANCH   3   4
ENDBRANCH   2   3
TORSDOF 13
ENDMDL
MODEL      447
REMARK 921   NORMALIZED FREE ENERGY PREDICTED BY IDOCK:   -2.08 KCAL/MOL
REMARK 922        TOTAL FREE ENERGY PREDICTED BY IDOCK:   -5.41 KCAL/MOL
REMARK 923 INTER-LIGAND FREE ENERGY PREDICTED BY IDOCK:   -3.96 KCAL/MOL
REMARK 924 INTRA-LIGAND FREE ENERGY PREDICTED BY IDOCK:   -1.46 KCAL/MOL
REMARK 927      BINDING AFFINITY PREDICTED BY RF-SCORE:    0.00 PKD
ROOT
HETATM    1  C   UNL     1      -5.718  12.231  69.627  1.00  0.00    -0.101 C  
HETATM    2  C   UNL     1      -6.359  13.407  68.911  1.00  0.00    -0.099 C  
ENDROOT
BRANCH   2   3
HETATM    3  C   UNL     1      -7.353  12.932  67.858  1.00  0.00    -0.127 C  
BRANCH   3   4
HETATM    4  C   UNL     1      -6.761  11.811  67.006  1.00  0.00    -0.139 C  
BRANCH   4   5
HETATM    5  C   UNL     1      -7.808  10.727  66.787  1.00  0.00    -0.135 C  
BRANCH   5   6
HETATM    6  C   UNL     1      -8.115   9.938  68.024  1.00  0.00    -0.108 C  
HETATM    7  C   UNL     1      -8.790   8.778  67.992  1.00  0.00    -0.141 C  
BRANCH   7   8
HETATM    8  C   UNL     1      -9.334   8.151  66.742  1.00  0.00    -0.233 C  
BRANCH   8   9
HETATM    9  C   UNL     1      -8.285   7.373  66.006  1.00  0.00    -0.130 C  
HETATM   10  C   UNL     1      -7.729   6.239  66.461  1.00  0.00    -0.099 C  
BRANCH  10  11
HETATM   11  C   UNL     1      -8.088   5.643  67.788  1.00  0.00    -0.101 C  
BRANCH  11  12
HETATM   12  C   UNL     1      -9.206   4.617  67.701  1.00  0.00    -0.148 C  
BRANCH  12  13
HETATM   13  C   UNL     1     -10.131   4.762  68.907  1.00  0.00    -0.149 C  
BRANCH  13  14
HETATM   14  C   UNL     1     -10.964   6.031  68.793  1.00  0.00    -0.384 C  
BRANCH  14  15
HETATM   15  C   UNL     1     -11.428   6.517  70.162  1.00  0.00    -0.477 C  
BRANCH  15  16
HETATM   16  C   UNL     1     -10.444   6.074  71.241  1.00  0.00    -0.283 C  
BRANCH  16  17
HETATM   17  C   UNL     1      -9.420   7.160  71.551  1.00  0.00    -0.161 C  
HETATM   18  C   UNL     1      -9.586   7.689  72.955  1.00  0.00    -0.218 C  
HETATM   19  O   UNL     1     -10.421   7.318  73.763  1.00  0.00    -0.370 OA 
HETATM   20  O   UNL     1      -8.685   8.659  73.246  1.00  0.00    -0.352 OA 
ENDBRANCH  16  17
ENDBRANCH  15  16
ENDBRANCH  14  15
ENDBRANCH  13  14
ENDBRANCH  12  13
ENDBRANCH  11  12
ENDBRANCH  10  11
ENDBRANCH   8   9
ENDBRANCH   7   8
ENDBRANCH   5   6
ENDBRANCH   4   5
ENDBRANCH   3   4
ENDBRANCH   2   3
TORSDOF 13
ENDMDL
MODEL      448
REMARK 921   NORMALIZED FREE ENERGY PREDICTED BY IDOCK:   -2.06 KCAL/MOL
REMARK 922        TOTAL FREE ENERGY PREDICTED BY IDOCK:   -5.36 KCAL/MOL
REMARK 923 INTER-LIGAND FREE ENERGY PREDICTED BY IDOCK:   -3.05 KCAL/MOL
REMARK 924 INTRA-LIGAND FREE ENERGY PREDICTED BY IDOCK:   -2.32 KCAL/MOL
REMARK 927      BINDING AFFINITY PREDICTED BY RF-SCORE:    0.00 PKD
ROOT
HETATM    1  C   UNL     1      -7.609  11.151  69.287  1.00  0.00    -0.057 C  
HETATM    2  C   UNL     1      -8.352   9.922  69.780  1.00  0.00    -0.196 C  
ENDROOT
BRANCH   2   3
HETATM    3  C   UNL     1      -7.569   8.650  69.482  1.00  0.00    -0.088 C  
BRANCH   3   4
HETATM    4  C   UNL     1      -7.595   7.694  70.672  1.00  0.00    -0.080 C  
BRANCH   4   5
HETATM    5  C   UNL     1      -7.045   8.396  71.906  1.00  0.00    -0.103 C  
BRANCH   5   6
HETATM    6  C   UNL     1      -5.600   8.095  72.168  1.00  0.00    -0.038 C  
HETATM    7  C   UNL     1      -5.204   7.218  73.104  1.00  0.00    -0.038 C  
BRANCH   7   8
HETATM    8  C   UNL     1      -6.137   6.464  74.006  1.00  0.00    -0.064 C  
BRANCH   8   9
HETATM    9  C   UNL     1      -6.469   5.109  73.458  1.00  0.00    -0.062 C  
HETATM   10  C   UNL     1      -7.705   4.717  73.114  1.00  0.00    -0.088 C  
BRANCH  10  11
HETATM   11  C   UNL     1      -8.904   5.602  73.273  1.00  0.00    -0.121 C  
BRANCH  11  12
HETATM   12  C   UNL     1      -9.898   5.476  72.130  1.00  0.00    -0.198 C  
BRANCH  12  13
HETATM   13  C   UNL     1      -9.565   4.241  71.296  1.00  0.00    -0.242 C  
BRANCH  13  14
HETATM   14  C   UNL     1      -9.684   4.551  69.811  1.00  0.00    -0.285 C  
BRANCH  14  15
HETATM   15  C   UNL     1     -10.578   5.763  69.566  1.00  0.00    -0.390 C  
BRANCH  15  16
HETATM   16  C   UNL     1     -10.711   6.027  68.069  1.00  0.00    -0.359 C  
BRANCH  16  17
HETATM   17  C   UNL     1      -9.354   6.022  67.373  1.00  0.00    -0.111 C  
HETATM   18  C   UNL     1      -9.379   5.173  66.125  1.00  0.00    -0.155 C  
HETATM   19  O   UNL     1     -10.343   4.557  65.701  1.00  0.00    -0.260 OA 
HETATM   20  O   UNL     1      -8.180   5.155  65.495  1.00  0.00    -0.113 OA 
ENDBRANCH  16  17
ENDBRANCH  15  16
ENDBRANCH  14  15
ENDBRANCH  13  14
ENDBRANCH  12  13
ENDBRANCH  11  12
ENDBRANCH  10  11
ENDBRANCH   8   9
ENDBRANCH   7   8
ENDBRANCH   5   6
ENDBRANCH   4   5
ENDBRANCH   3   4
ENDBRANCH   2   3
TORSDOF 13
ENDMDL
MODEL      449
REMARK 921   NORMALIZED FREE ENERGY PREDICTED BY IDOCK:   -2.05 KCAL/MOL
REMARK 922        TOTAL FREE ENERGY PREDICTED BY IDOCK:   -5.36 KCAL/MOL
REMARK 923 INTER-LIGAND FREE ENERGY PREDICTED BY IDOCK:   -4.14 KCAL/MOL
REMARK 924 INTRA-LIGAND FREE ENERGY PREDICTED BY IDOCK:   -1.22 KCAL/MOL
REMARK 927      BINDING AFFINITY PREDICTED BY RF-SCORE:    0.00 PKD
ROOT
HETATM    1  C   UNL     1      -9.603  11.734  63.256  1.00  0.00    -0.283 C  
HETATM    2  C   UNL     1     -10.628  11.118  64.192  1.00  0.00    -0.436 C  
ENDROOT
BRANCH   2   3
HETATM    3  C   UNL     1     -10.024   9.971  64.990  1.00  0.00    -0.320 C  
BRANCH   3   4
HETATM    4  C   UNL     1      -8.499  10.053  65.006  1.00  0.00    -0.167 C  
BRANCH   4   5
HETATM    5  C   UNL     1      -7.914   8.671  65.266  1.00  0.00    -0.114 C  
BRANCH   5   6
HETATM    6  C   UNL     1      -6.600   8.706  65.987  1.00  0.00    -0.057 C  
HETATM    7  C   UNL     1      -6.325   7.901  67.025  1.00  0.00    -0.055 C  
BRANCH   7   8
HETATM    8  C   UNL     1      -7.286   6.904  67.601  1.00  0.00    -0.096 C  
BRANCH   8   9
HETATM    9  C   UNL     1      -8.710   7.258  67.290  1.00  0.00    -0.121 C  
HETATM   10  C   UNL     1      -9.573   7.764  68.185  1.00  0.00    -0.161 C  
BRANCH  10  11
HETATM   11  C   UNL     1      -9.202   8.002  69.617  1.00  0.00    -0.152 C  
BRANCH  11  12
HETATM   12  C   UNL     1      -9.297   9.463  70.024  1.00  0.00    -0.253 C  
BRANCH  12  13
HETATM   13  C   UNL     1      -7.905  10.093  70.004  1.00  0.00    -0.131 C  
BRANCH  13  14
HETATM   14  C   UNL     1      -7.688  10.866  68.711  1.00  0.00    -0.129 C  
BRANCH  14  15
HETATM   15  C   UNL     1      -8.566  12.112  68.654  1.00  0.00     0.003 C  
BRANCH  15  16
HETATM   16  C   UNL     1      -8.990  12.394  67.216  1.00  0.00    -0.190 C  
BRANCH  16  17
HETATM   17  C   UNL     1      -9.971  13.558  67.134  1.00  0.00    -0.246 C  
HETATM   18  C   UNL     1     -11.399  13.084  67.254  1.00  0.00    -0.306 C  
HETATM   19  O   UNL     1     -11.756  11.927  67.398  1.00  0.00    -0.503 OA 
HETATM   20  O   UNL     1     -12.285  14.106  67.180  1.00  0.00    -0.421 OA 
ENDBRANCH  16  17
ENDBRANCH  15  16
ENDBRANCH  14  15
ENDBRANCH  13  14
ENDBRANCH  12  13
ENDBRANCH  11  12
ENDBRANCH  10  11
ENDBRANCH   8   9
ENDBRANCH   7   8
ENDBRANCH   5   6
ENDBRANCH   4   5
ENDBRANCH   3   4
ENDBRANCH   2   3
TORSDOF 13
ENDMDL
MODEL      450
REMARK 921   NORMALIZED FREE ENERGY PREDICTED BY IDOCK:   -2.05 KCAL/MOL
REMARK 922        TOTAL FREE ENERGY PREDICTED BY IDOCK:   -5.36 KCAL/MOL
REMARK 923 INTER-LIGAND FREE ENERGY PREDICTED BY IDOCK:   -3.80 KCAL/MOL
REMARK 924 INTRA-LIGAND FREE ENERGY PREDICTED BY IDOCK:   -1.56 KCAL/MOL
REMARK 927      BINDING AFFINITY PREDICTED BY RF-SCORE:    0.00 PKD
ROOT
HETATM    1  C   UNL     1     -10.130   6.703  67.334  1.00  0.00    -0.211 C  
HETATM    2  C   UNL     1      -9.706   8.003  66.675  1.00  0.00    -0.313 C  
ENDROOT
BRANCH   2   3
HETATM    3  C   UNL     1     -10.580   9.163  67.135  1.00  0.00    -0.286 C  
BRANCH   3   4
HETATM    4  C   UNL     1      -9.802  10.477  67.127  1.00  0.00    -0.213 C  
BRANCH   4   5
HETATM    5  C   UNL     1      -9.491  10.897  68.558  1.00  0.00    -0.185 C  
BRANCH   5   6
HETATM    6  C   UNL     1      -8.024  11.040  68.830  1.00  0.00    -0.144 C  
HETATM    7  C   UNL     1      -7.404  10.371  69.815  1.00  0.00    -0.157 C  
BRANCH   7   8
HETATM    8  C   UNL     1      -8.091   9.437  70.766  1.00  0.00    -0.157 C  
BRANCH   8   9
HETATM    9  C   UNL     1      -7.306   8.176  70.975  1.00  0.00    -0.058 C  
HETATM   10  C   UNL     1      -7.327   7.453  72.106  1.00  0.00    -0.072 C  
BRANCH  10  11
HETATM   11  C   UNL     1      -8.131   7.858  73.305  1.00  0.00    -0.218 C  
BRANCH  11  12
HETATM   12  C   UNL     1      -9.620   7.961  73.019  1.00  0.00    -0.341 C  
BRANCH  12  13
HETATM   13  C   UNL     1     -10.376   6.938  73.865  1.00  0.00    -0.398 C  
BRANCH  13  14
HETATM   14  C   UNL     1     -11.175   5.996  72.977  1.00  0.00    -0.232 C  
BRANCH  14  15
HETATM   15  C   UNL     1     -10.812   6.177  71.506  1.00  0.00    -0.313 C  
BRANCH  15  16
HETATM   16  C   UNL     1     -10.509   4.825  70.868  1.00  0.00    -0.107 C  
BRANCH  16  17
HETATM   17  C   UNL     1      -9.009   4.596  70.716  1.00  0.00    -0.166 C  
HETATM   18  C   UNL     1      -8.426   3.929  71.938  1.00  0.00    -0.098 C  
HETATM   19  O   UNL     1      -9.047   3.601  72.935  1.00  0.00    -0.098 OA 
HETATM   20  O   UNL     1      -7.093   3.721  71.820  1.00  0.00    -0.036 OA 
ENDBRANCH  16  17
ENDBRANCH  15  16
ENDBRANCH  14  15
ENDBRANCH  13  14
ENDBRANCH  12  13
ENDBRANCH  11  12
ENDBRANCH  10  11
ENDBRANCH   8   9
ENDBRANCH   7   8
ENDBRANCH   5   6
ENDBRANCH   4   5
ENDBRANCH   3   4
ENDBRANCH   2   3
TORSDOF 13
ENDMDL
MODEL      451
REMARK 921   NORMALIZED FREE ENERGY PREDICTED BY IDOCK:   -2.04 KCAL/MOL
REMARK 922        TOTAL FREE ENERGY PREDICTED BY IDOCK:   -5.33 KCAL/MOL
REMARK 923 INTER-LIGAND FREE ENERGY PREDICTED BY IDOCK:   -4.76 KCAL/MOL
REMARK 924 INTRA-LIGAND FREE ENERGY PREDICTED BY IDOCK:   -0.57 KCAL/MOL
REMARK 927      BINDING AFFINITY PREDICTED BY RF-SCORE:    0.00 PKD
ROOT
HETATM    1  C   UNL     1      -6.260   8.782  72.761  1.00  0.00    -0.039 C  
HETATM    2  C   UNL     1      -6.968   7.622  72.083  1.00  0.00    -0.065 C  
ENDROOT
BRANCH   2   3
HETATM    3  C   UNL     1      -6.714   7.625  70.582  1.00  0.00    -0.042 C  
BRANCH   3   4
HETATM    4  C   UNL     1      -6.604   9.050  70.043  1.00  0.00    -0.043 C  
BRANCH   4   5
HETATM    5  C   UNL     1      -7.887   9.423  69.313  1.00  0.00    -0.085 C  
BRANCH   5   6
HETATM    6  C   UNL     1      -7.827  10.767  68.652  1.00  0.00    -0.122 C  
HETATM    7  C   UNL     1      -8.676  11.131  67.679  1.00  0.00    -0.129 C  
BRANCH   7   8
HETATM    8  C   UNL     1      -9.754  10.248  67.122  1.00  0.00    -0.210 C  
BRANCH   8   9
HETATM    9  C   UNL     1     -10.081  10.595  65.700  1.00  0.00    -0.335 C  
HETATM   10  C   UNL     1     -10.628  11.758  65.315  1.00  0.00    -0.327 C  
BRANCH  10  11
HETATM   11  C   UNL     1     -11.001  12.834  66.290  1.00  0.00    -0.307 C  
BRANCH  11  12
HETATM   12  C   UNL     1     -10.067  14.032  66.245  1.00  0.00    -0.307 C  
BRANCH  12  13
HETATM   13  C   UNL     1     -10.708  15.152  65.428  1.00  0.00    -0.396 C  
BRANCH  13  14
HETATM   14  C   UNL     1     -10.051  16.487  65.745  1.00  0.00    -0.328 C  
BRANCH  14  15
HETATM   15  C   UNL     1      -8.611  16.301  66.212  1.00  0.00    -0.374 C  
BRANCH  15  16
HETATM   16  C   UNL     1      -8.225  17.410  67.187  1.00  0.00    -0.229 C  
BRANCH  16  17
HETATM   17  C   UNL     1      -8.680  18.779  66.694  1.00  0.00    -0.306 C  
HETATM   18  C   UNL     1      -9.714  19.380  67.614  1.00  0.00    -0.331 C  
HETATM   19  O   UNL     1     -10.151  18.864  68.630  1.00  0.00    -0.388 OA 
HETATM   20  O   UNL     1     -10.133  20.597  67.189  1.00  0.00    -0.396 OA 
ENDBRANCH  16  17
ENDBRANCH  15  16
ENDBRANCH  14  15
ENDBRANCH  13  14
ENDBRANCH  12  13
ENDBRANCH  11  12
ENDBRANCH  10  11
ENDBRANCH   8   9
ENDBRANCH   7   8
ENDBRANCH   5   6
ENDBRANCH   4   5
ENDBRANCH   3   4
ENDBRANCH   2   3
TORSDOF 13
ENDMDL
MODEL      452
REMARK 921   NORMALIZED FREE ENERGY PREDICTED BY IDOCK:   -2.04 KCAL/MOL
REMARK 922        TOTAL FREE ENERGY PREDICTED BY IDOCK:   -5.33 KCAL/MOL
REMARK 923 INTER-LIGAND FREE ENERGY PREDICTED BY IDOCK:   -3.83 KCAL/MOL
REMARK 924 INTRA-LIGAND FREE ENERGY PREDICTED BY IDOCK:   -1.50 KCAL/MOL
REMARK 927      BINDING AFFINITY PREDICTED BY RF-SCORE:    0.00 PKD
ROOT
HETATM    1  C   UNL     1      -9.669   9.970  65.160  1.00  0.00    -0.380 C  
HETATM    2  C   UNL     1      -9.488   9.666  66.637  1.00  0.00    -0.221 C  
ENDROOT
BRANCH   2   3
HETATM    3  C   UNL     1      -9.047   8.224  66.851  1.00  0.00    -0.181 C  
BRANCH   3   4
HETATM    4  C   UNL     1      -7.598   8.156  67.329  1.00  0.00    -0.097 C  
BRANCH   4   5
HETATM    5  C   UNL     1      -7.551   7.600  68.746  1.00  0.00    -0.102 C  
BRANCH   5   6
HETATM    6  C   UNL     1      -6.813   8.482  69.707  1.00  0.00    -0.043 C  
HETATM    7  C   UNL     1      -5.850   8.017  70.520  1.00  0.00    -0.029 C  
BRANCH   7   8
HETATM    8  C   UNL     1      -5.420   6.582  70.586  1.00  0.00    -0.019 C  
BRANCH   8   9
HETATM    9  C   UNL     1      -6.551   5.677  70.976  1.00  0.00    -0.048 C  
HETATM   10  C   UNL     1      -6.991   5.519  72.234  1.00  0.00    -0.081 C  
BRANCH  10  11
HETATM   11  C   UNL     1      -6.365   6.222  73.400  1.00  0.00    -0.065 C  
BRANCH  11  12
HETATM   12  C   UNL     1      -7.266   7.282  74.013  1.00  0.00    -0.100 C  
BRANCH  12  13
HETATM   13  C   UNL     1      -8.726   6.865  73.859  1.00  0.00    -0.183 C  
BRANCH  13  14
HETATM   14  C   UNL     1      -9.593   8.069  73.521  1.00  0.00    -0.195 C  
BRANCH  14  15
HETATM   15  C   UNL     1      -9.197   8.680  72.181  1.00  0.00    -0.326 C  
BRANCH  15  16
HETATM   16  C   UNL     1     -10.427   8.849  71.294  1.00  0.00    -0.357 C  
BRANCH  16  17
HETATM   17  C   UNL     1     -11.707   8.455  72.023  1.00  0.00    -0.417 C  
HETATM   18  C   UNL     1     -12.424   7.334  71.311  1.00  0.00    -0.366 C  
HETATM   19  O   UNL     1     -12.055   6.791  70.282  1.00  0.00    -0.328 OA 
HETATM   20  O   UNL     1     -13.567   6.974  71.944  1.00  0.00    -0.296 OA 
ENDBRANCH  16  17
ENDBRANCH  15  16
ENDBRANCH  14  15
ENDBRANCH  13  14
ENDBRANCH  12  13
ENDBRANCH  11  12
ENDBRANCH  10  11
ENDBRANCH   8   9
ENDBRANCH   7   8
ENDBRANCH   5   6
ENDBRANCH   4   5
ENDBRANCH   3   4
ENDBRANCH   2   3
TORSDOF 13
ENDMDL
MODEL      453
REMARK 921   NORMALIZED FREE ENERGY PREDICTED BY IDOCK:   -2.02 KCAL/MOL
REMARK 922        TOTAL FREE ENERGY PREDICTED BY IDOCK:   -5.29 KCAL/MOL
REMARK 923 INTER-LIGAND FREE ENERGY PREDICTED BY IDOCK:   -3.84 KCAL/MOL
REMARK 924 INTRA-LIGAND FREE ENERGY PREDICTED BY IDOCK:   -1.45 KCAL/MOL
REMARK 927      BINDING AFFINITY PREDICTED BY RF-SCORE:    0.00 PKD
ROOT
HETATM    1  C   UNL     1     -11.099  12.964  67.536  1.00  0.00    -0.302 C  
HETATM    2  C   UNL     1     -11.610  12.620  66.148  1.00  0.00    -0.445 C  
ENDROOT
BRANCH   2   3
HETATM    3  C   UNL     1     -10.497  12.049  65.279  1.00  0.00    -0.323 C  
BRANCH   3   4
HETATM    4  C   UNL     1     -10.779  10.596  64.904  1.00  0.00    -0.072 C  
BRANCH   4   5
HETATM    5  C   UNL     1      -9.604   9.721  65.320  1.00  0.00    -0.368 C  
BRANCH   5   6
HETATM    6  C   UNL     1      -8.271  10.312  64.975  1.00  0.00    -0.154 C  
HETATM    7  C   UNL     1      -7.189   9.556  64.727  1.00  0.00    -0.112 C  
BRANCH   7   8
HETATM    8  C   UNL     1      -7.172   8.057  64.790  1.00  0.00    -0.078 C  
BRANCH   8   9
HETATM    9  C   UNL     1      -7.531   7.439  63.472  1.00  0.00    -0.104 C  
HETATM   10  C   UNL     1      -7.822   6.140  63.302  1.00  0.00    -0.100 C  
BRANCH  10  11
HETATM   11  C   UNL     1      -7.787   5.154  64.430  1.00  0.00    -0.097 C  
BRANCH  11  12
HETATM   12  C   UNL     1      -9.147   4.547  64.736  1.00  0.00    -0.152 C  
BRANCH  12  13
HETATM   13  C   UNL     1      -9.524   4.841  66.186  1.00  0.00    -0.164 C  
BRANCH  13  14
HETATM   14  C   UNL     1      -8.330   4.626  67.104  1.00  0.00    -0.105 C  
BRANCH  14  15
HETATM   15  C   UNL     1      -8.198   5.757  68.119  1.00  0.00    -0.104 C  
BRANCH  15  16
HETATM   16  C   UNL     1      -9.577   6.203  68.594  1.00  0.00    -0.138 C  
BRANCH  16  17
HETATM   17  C   UNL     1      -9.832   5.801  70.043  1.00  0.00    -0.235 C  
HETATM   18  C   UNL     1     -11.178   6.289  70.521  1.00  0.00    -0.354 C  
HETATM   19  O   UNL     1     -11.981   6.926  69.861  1.00  0.00    -0.167 OA 
HETATM   20  O   UNL     1     -11.419   5.942  71.809  1.00  0.00    -0.269 OA 
ENDBRANCH  16  17
ENDBRANCH  15  16
ENDBRANCH  14  15
ENDBRANCH  13  14
ENDBRANCH  12  13
ENDBRANCH  11  12
ENDBRANCH  10  11
ENDBRANCH   8   9
ENDBRANCH   7   8
ENDBRANCH   5   6
ENDBRANCH   4   5
ENDBRANCH   3   4
ENDBRANCH   2   3
TORSDOF 13
ENDMDL
MODEL      454
REMARK 921   NORMALIZED FREE ENERGY PREDICTED BY IDOCK:   -2.01 KCAL/MOL
REMARK 922        TOTAL FREE ENERGY PREDICTED BY IDOCK:   -5.29 KCAL/MOL
REMARK 923 INTER-LIGAND FREE ENERGY PREDICTED BY IDOCK:   -4.03 KCAL/MOL
REMARK 924 INTRA-LIGAND FREE ENERGY PREDICTED BY IDOCK:   -1.26 KCAL/MOL
REMARK 927      BINDING AFFINITY PREDICTED BY RF-SCORE:    0.00 PKD
ROOT
HETATM    1  C   UNL     1      -8.480  15.620  67.916  1.00  0.00    -0.153 C  
HETATM    2  C   UNL     1      -9.762  14.860  67.625  1.00  0.00    -0.212 C  
ENDROOT
BRANCH   2   3
HETATM    3  C   UNL     1      -9.904  14.573  66.136  1.00  0.00    -0.339 C  
BRANCH   3   4
HETATM    4  C   UNL     1     -11.076  15.345  65.534  1.00  0.00    -0.301 C  
BRANCH   4   5
HETATM    5  C   UNL     1     -11.479  14.714  64.208  1.00  0.00    -0.174 C  
BRANCH   5   6
HETATM    6  C   UNL     1     -12.499  13.625  64.353  1.00  0.00    -0.316 C  
HETATM    7  C   UNL     1     -12.206  12.331  64.147  1.00  0.00    -0.539 C  
BRANCH   7   8
HETATM    8  C   UNL     1     -10.858  11.824  63.728  1.00  0.00    -0.490 C  
BRANCH   8   9
HETATM    9  C   UNL     1     -10.153  11.121  64.849  1.00  0.00    -0.345 C  
HETATM   10  C   UNL     1      -9.165  10.229  64.677  1.00  0.00    -0.290 C  
BRANCH  10  11
HETATM   11  C   UNL     1      -8.680   9.817  63.320  1.00  0.00    -0.232 C  
BRANCH  11  12
HETATM   12  C   UNL     1      -7.184  10.013  63.135  1.00  0.00    -0.132 C  
BRANCH  12  13
HETATM   13  C   UNL     1      -6.459   8.694  63.391  1.00  0.00    -0.089 C  
BRANCH  13  14
HETATM   14  C   UNL     1      -7.405   7.676  64.011  1.00  0.00    -0.092 C  
BRANCH  14  15
HETATM   15  C   UNL     1      -6.644   6.477  64.569  1.00  0.00    -0.038 C  
BRANCH  15  16
HETATM   16  C   UNL     1      -5.927   6.862  65.860  1.00  0.00    -0.035 C  
BRANCH  16  17
HETATM   17  C   UNL     1      -6.888   7.458  66.883  1.00  0.00    -0.070 C  
HETATM   18  C   UNL     1      -6.515   8.880  67.226  1.00  0.00    -0.061 C  
HETATM   19  O   UNL     1      -5.573   9.501  66.763  1.00  0.00    -0.045 OA 
HETATM   20  O   UNL     1      -7.357   9.424  68.137  1.00  0.00    -0.078 OA 
ENDBRANCH  16  17
ENDBRANCH  15  16
ENDBRANCH  14  15
ENDBRANCH  13  14
ENDBRANCH  12  13
ENDBRANCH  11  12
ENDBRANCH  10  11
ENDBRANCH   8   9
ENDBRANCH   7   8
ENDBRANCH   5   6
ENDBRANCH   4   5
ENDBRANCH   3   4
ENDBRANCH   2   3
TORSDOF 13
ENDMDL
MODEL      455
REMARK 921   NORMALIZED FREE ENERGY PREDICTED BY IDOCK:   -2.00 KCAL/MOL
REMARK 922        TOTAL FREE ENERGY PREDICTED BY IDOCK:   -5.26 KCAL/MOL
REMARK 923 INTER-LIGAND FREE ENERGY PREDICTED BY IDOCK:   -3.78 KCAL/MOL
REMARK 924 INTRA-LIGAND FREE ENERGY PREDICTED BY IDOCK:   -1.48 KCAL/MOL
REMARK 927      BINDING AFFINITY PREDICTED BY RF-SCORE:    0.00 PKD
ROOT
HETATM    1  C   UNL     1      -5.760   4.421  64.023  1.00  0.00    -0.014 C  
HETATM    2  C   UNL     1      -5.922   5.830  63.480  1.00  0.00    -0.021 C  
ENDROOT
BRANCH   2   3
HETATM    3  C   UNL     1      -7.230   6.453  63.952  1.00  0.00    -0.063 C  
BRANCH   3   4
HETATM    4  C   UNL     1      -8.042   6.988  62.774  1.00  0.00    -0.054 C  
BRANCH   4   5
HETATM    5  C   UNL     1      -7.731   8.464  62.566  1.00  0.00    -0.125 C  
BRANCH   5   6
HETATM    6  C   UNL     1      -8.954   9.329  62.515  1.00  0.00    -0.186 C  
HETATM    7  C   UNL     1      -9.301  10.148  63.520  1.00  0.00    -0.333 C  
BRANCH   7   8
HETATM    8  C   UNL     1      -8.540  10.278  64.807  1.00  0.00    -0.193 C  
BRANCH   8   9
HETATM    9  C   UNL     1      -9.424  10.074  66.001  1.00  0.00    -0.251 C  
HETATM   10  C   UNL     1      -9.196  10.612  67.209  1.00  0.00    -0.155 C  
BRANCH  10  11
HETATM   11  C   UNL     1      -7.997  11.465  67.496  1.00  0.00    -0.127 C  
BRANCH  11  12
HETATM   12  C   UNL     1      -8.272  12.953  67.351  1.00  0.00    -0.187 C  
BRANCH  12  13
HETATM   13  C   UNL     1      -8.717  13.525  68.695  1.00  0.00    -0.001 C  
BRANCH  13  14
HETATM   14  C   UNL     1     -10.198  13.872  68.664  1.00  0.00    -0.218 C  
BRANCH  14  15
HETATM   15  C   UNL     1     -10.423  15.310  68.207  1.00  0.00    -0.244 C  
BRANCH  15  16
HETATM   16  C   UNL     1     -11.454  15.351  67.083  1.00  0.00    -0.133 C  
BRANCH  16  17
HETATM   17  C   UNL     1     -11.859  13.951  66.636  1.00  0.00    -0.447 C  
HETATM   18  C   UNL     1     -11.304  13.627  65.270  1.00  0.00    -0.296 C  
HETATM   19  O   UNL     1     -10.618  14.367  64.585  1.00  0.00    -0.415 OA 
HETATM   20  O   UNL     1     -11.657  12.386  64.856  1.00  0.00    -0.321 OA 
ENDBRANCH  16  17
ENDBRANCH  15  16
ENDBRANCH  14  15
ENDBRANCH  13  14
ENDBRANCH  12  13
ENDBRANCH  11  12
ENDBRANCH  10  11
ENDBRANCH   8   9
ENDBRANCH   7   8
ENDBRANCH   5   6
ENDBRANCH   4   5
ENDBRANCH   3   4
ENDBRANCH   2   3
TORSDOF 13
ENDMDL
MODEL      456
REMARK 921   NORMALIZED FREE ENERGY PREDICTED BY IDOCK:   -2.00 KCAL/MOL
REMARK 922        TOTAL FREE ENERGY PREDICTED BY IDOCK:   -5.26 KCAL/MOL
REMARK 923 INTER-LIGAND FREE ENERGY PREDICTED BY IDOCK:   -4.12 KCAL/MOL
REMARK 924 INTRA-LIGAND FREE ENERGY PREDICTED BY IDOCK:   -1.14 KCAL/MOL
REMARK 927      BINDING AFFINITY PREDICTED BY RF-SCORE:    0.00 PKD
ROOT
HETATM    1  C   UNL     1     -12.024  12.019  64.027  1.00  0.00    -0.499 C  
HETATM    2  C   UNL     1     -12.419  12.804  65.265  1.00  0.00    -0.528 C  
ENDROOT
BRANCH   2   3
HETATM    3  C   UNL     1     -11.327  13.789  65.662  1.00  0.00    -0.311 C  
BRANCH   3   4
HETATM    4  C   UNL     1     -10.316  13.141  66.605  1.00  0.00    -0.265 C  
BRANCH   4   5
HETATM    5  C   UNL     1      -9.645  14.213  67.453  1.00  0.00    -0.229 C  
BRANCH   5   6
HETATM    6  C   UNL     1      -8.233  14.502  67.040  1.00  0.00    -0.164 C  
HETATM    7  C   UNL     1      -7.184  13.828  67.537  1.00  0.00    -0.173 C  
BRANCH   7   8
HETATM    8  C   UNL     1      -7.287  12.742  68.568  1.00  0.00    -0.115 C  
BRANCH   8   9
HETATM    9  C   UNL     1      -6.038  11.915  68.634  1.00  0.00    -0.052 C  
HETATM   10  C   UNL     1      -5.964  10.630  68.251  1.00  0.00    -0.046 C  
BRANCH  10  11
HETATM   11  C   UNL     1      -7.151   9.873  67.739  1.00  0.00    -0.087 C  
BRANCH  11  12
HETATM   12  C   UNL     1      -7.126   8.399  68.109  1.00  0.00    -0.085 C  
BRANCH  12  13
HETATM   13  C   UNL     1      -8.343   8.067  68.969  1.00  0.00    -0.129 C  
BRANCH  13  14
HETATM   14  C   UNL     1      -8.204   8.683  70.353  1.00  0.00    -0.122 C  
BRANCH  14  15
HETATM   15  C   UNL     1      -9.551   9.163  70.886  1.00  0.00    -0.347 C  
BRANCH  15  16
HETATM   16  C   UNL     1      -9.764   8.660  72.311  1.00  0.00    -0.357 C  
BRANCH  16  17
HETATM   17  C   UNL     1      -8.455   8.218  72.955  1.00  0.00    -0.262 C  
HETATM   18  C   UNL     1      -8.541   6.798  73.460  1.00  0.00    -0.122 C  
HETATM   19  O   UNL     1      -9.517   6.071  73.379  1.00  0.00    -0.138 OA 
HETATM   20  O   UNL     1      -7.386   6.390  74.039  1.00  0.00    -0.086 OA 
ENDBRANCH  16  17
ENDBRANCH  15  16
ENDBRANCH  14  15
ENDBRANCH  13  14
ENDBRANCH  12  13
ENDBRANCH  11  12
ENDBRANCH  10  11
ENDBRANCH   8   9
ENDBRANCH   7   8
ENDBRANCH   5   6
ENDBRANCH   4   5
ENDBRANCH   3   4
ENDBRANCH   2   3
TORSDOF 13
ENDMDL
MODEL      457
REMARK 921   NORMALIZED FREE ENERGY PREDICTED BY IDOCK:   -1.99 KCAL/MOL
REMARK 922        TOTAL FREE ENERGY PREDICTED BY IDOCK:   -5.25 KCAL/MOL
REMARK 923 INTER-LIGAND FREE ENERGY PREDICTED BY IDOCK:   -3.66 KCAL/MOL
REMARK 924 INTRA-LIGAND FREE ENERGY PREDICTED BY IDOCK:   -1.59 KCAL/MOL
REMARK 927      BINDING AFFINITY PREDICTED BY RF-SCORE:    0.00 PKD
ROOT
HETATM    1  C   UNL     1     -10.901   3.603  73.482  1.00  0.00    -0.322 C  
HETATM    2  C   UNL     1     -10.402   4.599  72.449  1.00  0.00    -0.262 C  
ENDROOT
BRANCH   2   3
HETATM    3  C   UNL     1      -9.951   5.895  73.110  1.00  0.00    -0.188 C  
BRANCH   3   4
HETATM    4  C   UNL     1     -11.091   6.910  73.171  1.00  0.00    -0.239 C  
BRANCH   4   5
HETATM    5  C   UNL     1     -11.891   6.860  71.876  1.00  0.00    -0.351 C  
BRANCH   5   6
HETATM    6  C   UNL     1     -11.706   8.074  71.015  1.00  0.00    -0.295 C  
HETATM    7  C   UNL     1     -10.891   8.084  69.949  1.00  0.00    -0.217 C  
BRANCH   7   8
HETATM    8  C   UNL     1     -10.059   6.916  69.508  1.00  0.00    -0.183 C  
BRANCH   8   9
HETATM    9  C   UNL     1      -8.635   7.044  69.961  1.00  0.00    -0.141 C  
HETATM   10  C   UNL     1      -7.647   7.555  69.209  1.00  0.00    -0.100 C  
BRANCH  10  11
HETATM   11  C   UNL     1      -7.869   8.031  67.805  1.00  0.00    -0.126 C  
BRANCH  11  12
HETATM   12  C   UNL     1      -7.066   7.253  66.775  1.00  0.00    -0.082 C  
BRANCH  12  13
HETATM   13  C   UNL     1      -7.988   6.296  66.024  1.00  0.00    -0.114 C  
BRANCH  13  14
HETATM   14  C   UNL     1      -7.790   4.869  66.514  1.00  0.00    -0.099 C  
BRANCH  14  15
HETATM   15  C   UNL     1      -7.765   3.881  65.351  1.00  0.00    -0.082 C  
BRANCH  15  16
HETATM   16  C   UNL     1      -8.998   4.069  64.472  1.00  0.00    -0.137 C  
BRANCH  16  17
HETATM   17  C   UNL     1      -9.685   2.741  64.171  1.00  0.00    -0.151 C  
HETATM   18  C   UNL     1     -10.763   2.903  63.128  1.00  0.00    -0.220 C  
HETATM   19  O   UNL     1     -11.070   3.946  62.576  1.00  0.00    -0.099 OA 
HETATM   20  O   UNL     1     -11.386   1.732  62.851  1.00  0.00    -0.245 OA 
ENDBRANCH  16  17
ENDBRANCH  15  16
ENDBRANCH  14  15
ENDBRANCH  13  14
ENDBRANCH  12  13
ENDBRANCH  11  12
ENDBRANCH  10  11
ENDBRANCH   8   9
ENDBRANCH   7   8
ENDBRANCH   5   6
ENDBRANCH   4   5
ENDBRANCH   3   4
ENDBRANCH   2   3
TORSDOF 13
ENDMDL
MODEL      458
REMARK 921   NORMALIZED FREE ENERGY PREDICTED BY IDOCK:   -1.99 KCAL/MOL
REMARK 922        TOTAL FREE ENERGY PREDICTED BY IDOCK:   -5.24 KCAL/MOL
REMARK 923 INTER-LIGAND FREE ENERGY PREDICTED BY IDOCK:   -4.00 KCAL/MOL
REMARK 924 INTRA-LIGAND FREE ENERGY PREDICTED BY IDOCK:   -1.25 KCAL/MOL
REMARK 927      BINDING AFFINITY PREDICTED BY RF-SCORE:    0.00 PKD
ROOT
HETATM    1  C   UNL     1      -6.824  17.387  69.272  1.00  0.00    -0.200 C  
HETATM    2  C   UNL     1      -7.283  15.969  68.982  1.00  0.00    -0.182 C  
ENDROOT
BRANCH   2   3
HETATM    3  C   UNL     1      -6.204  14.957  69.345  1.00  0.00    -0.114 C  
BRANCH   3   4
HETATM    4  C   UNL     1      -5.999  13.942  68.223  1.00  0.00    -0.117 C  
BRANCH   4   5
HETATM    5  C   UNL     1      -5.437  12.648  68.797  1.00  0.00    -0.062 C  
BRANCH   5   6
HETATM    6  C   UNL     1      -6.388  11.942  69.716  1.00  0.00    -0.118 C  
HETATM    7  C   UNL     1      -6.992  10.791  69.383  1.00  0.00    -0.116 C  
BRANCH   7   8
HETATM    8  C   UNL     1      -6.817  10.094  68.066  1.00  0.00    -0.071 C  
BRANCH   8   9
HETATM    9  C   UNL     1      -7.836  10.538  67.060  1.00  0.00    -0.114 C  
HETATM   10  C   UNL     1      -9.034   9.958  66.892  1.00  0.00    -0.154 C  
BRANCH  10  11
HETATM   11  C   UNL     1      -9.470   8.766  67.691  1.00  0.00    -0.168 C  
BRANCH  11  12
HETATM   12  C   UNL     1      -8.997   7.447  67.103  1.00  0.00    -0.134 C  
BRANCH  12  13
HETATM   13  C   UNL     1     -10.194   6.672  66.555  1.00  0.00    -0.129 C  
BRANCH  13  14
HETATM   14  C   UNL     1     -10.965   6.009  67.686  1.00  0.00    -0.334 C  
BRANCH  14  15
HETATM   15  C   UNL     1     -10.025   5.308  68.663  1.00  0.00    -0.234 C  
BRANCH  15  16
HETATM   16  C   UNL     1     -10.544   5.452  70.090  1.00  0.00    -0.344 C  
BRANCH  16  17
HETATM   17  C   UNL     1     -11.572   6.573  70.207  1.00  0.00    -0.473 C  
HETATM   18  C   UNL     1     -11.938   6.837  71.647  1.00  0.00    -0.347 C  
HETATM   19  O   UNL     1     -11.488   6.249  72.616  1.00  0.00    -0.267 OA 
HETATM   20  O   UNL     1     -12.853   7.829  71.768  1.00  0.00    -0.319 OA 
ENDBRANCH  16  17
ENDBRANCH  15  16
ENDBRANCH  14  15
ENDBRANCH  13  14
ENDBRANCH  12  13
ENDBRANCH  11  12
ENDBRANCH  10  11
ENDBRANCH   8   9
ENDBRANCH   7   8
ENDBRANCH   5   6
ENDBRANCH   4   5
ENDBRANCH   3   4
ENDBRANCH   2   3
TORSDOF 13
ENDMDL
MODEL      459
REMARK 921   NORMALIZED FREE ENERGY PREDICTED BY IDOCK:   -1.99 KCAL/MOL
REMARK 922        TOTAL FREE ENERGY PREDICTED BY IDOCK:   -5.24 KCAL/MOL
REMARK 923 INTER-LIGAND FREE ENERGY PREDICTED BY IDOCK:   -5.21 KCAL/MOL
REMARK 924 INTRA-LIGAND FREE ENERGY PREDICTED BY IDOCK:   -0.03 KCAL/MOL
REMARK 927      BINDING AFFINITY PREDICTED BY RF-SCORE:    0.00 PKD
ROOT
HETATM    1  C   UNL     1     -13.078  16.525  73.197  1.00  0.00     0.083 C  
HETATM    2  C   UNL     1     -12.628  15.288  73.955  1.00  0.00    -0.731 C  
ENDROOT
BRANCH   2   3
HETATM    3  C   UNL     1     -12.377  14.123  73.006  1.00  0.00     0.011 C  
BRANCH   3   4
HETATM    4  C   UNL     1     -11.823  14.611  71.668  1.00  0.00    -0.324 C  
BRANCH   4   5
HETATM    5  C   UNL     1     -12.896  14.494  70.595  1.00  0.00    -0.399 C  
BRANCH   5   6
HETATM    6  C   UNL     1     -12.343  14.445  69.203  1.00  0.00    -0.156 C  
HETATM    7  C   UNL     1     -11.574  15.422  68.697  1.00  0.00    -0.373 C  
BRANCH   7   8
HETATM    8  C   UNL     1     -11.201  16.673  69.435  1.00  0.00    -0.085 C  
BRANCH   8   9
HETATM    9  C   UNL     1     -10.508  17.661  68.545  1.00  0.00    -0.337 C  
HETATM   10  C   UNL     1      -9.603  17.329  67.610  1.00  0.00    -0.256 C  
BRANCH  10  11
HETATM   11  C   UNL     1      -9.167  15.914  67.380  1.00  0.00    -0.207 C  
BRANCH  11  12
HETATM   12  C   UNL     1      -9.230  15.499  65.919  1.00  0.00    -0.305 C  
BRANCH  12  13
HETATM   13  C   UNL     1     -10.654  15.674  65.397  1.00  0.00    -0.436 C  
BRANCH  13  14
HETATM   14  C   UNL     1     -11.237  14.334  64.975  1.00  0.00    -0.364 C  
BRANCH  14  15
HETATM   15  C   UNL     1     -10.145  13.374  64.511  1.00  0.00    -0.220 C  
BRANCH  15  16
HETATM   16  C   UNL     1     -10.353  11.997  65.135  1.00  0.00    -0.313 C  
BRANCH  16  17
HETATM   17  C   UNL     1      -9.051  11.207  65.206  1.00  0.00    -0.183 C  
HETATM   18  C   UNL     1      -8.918  10.259  64.040  1.00  0.00    -0.237 C  
HETATM   19  O   UNL     1      -9.729  10.117  63.139  1.00  0.00    -0.261 OA 
HETATM   20  O   UNL     1      -7.767   9.546  64.089  1.00  0.00    -0.113 OA 
ENDBRANCH  16  17
ENDBRANCH  15  16
ENDBRANCH  14  15
ENDBRANCH  13  14
ENDBRANCH  12  13
ENDBRANCH  11  12
ENDBRANCH  10  11
ENDBRANCH   8   9
ENDBRANCH   7   8
ENDBRANCH   5   6
ENDBRANCH   4   5
ENDBRANCH   3   4
ENDBRANCH   2   3
TORSDOF 13
ENDMDL
MODEL      460
REMARK 921   NORMALIZED FREE ENERGY PREDICTED BY IDOCK:   -1.97 KCAL/MOL
REMARK 922        TOTAL FREE ENERGY PREDICTED BY IDOCK:   -5.21 KCAL/MOL
REMARK 923 INTER-LIGAND FREE ENERGY PREDICTED BY IDOCK:   -3.82 KCAL/MOL
REMARK 924 INTRA-LIGAND FREE ENERGY PREDICTED BY IDOCK:   -1.39 KCAL/MOL
REMARK 927      BINDING AFFINITY PREDICTED BY RF-SCORE:    0.00 PKD
ROOT
HETATM    1  C   UNL     1     -11.605  12.150  65.095  1.00  0.00    -0.372 C  
HETATM    2  C   UNL     1     -11.706  13.199  66.188  1.00  0.00    -0.428 C  
ENDROOT
BRANCH   2   3
HETATM    3  C   UNL     1     -10.420  14.008  66.293  1.00  0.00    -0.286 C  
BRANCH   3   4
HETATM    4  C   UNL     1      -9.516  13.466  67.399  1.00  0.00    -0.222 C  
BRANCH   4   5
HETATM    5  C   UNL     1      -8.684  14.600  67.983  1.00  0.00    -0.167 C  
BRANCH   5   6
HETATM    6  C   UNL     1      -7.220  14.478  67.686  1.00  0.00    -0.206 C  
HETATM    7  C   UNL     1      -6.391  13.735  68.436  1.00  0.00    -0.099 C  
BRANCH   7   8
HETATM    8  C   UNL     1      -6.812  12.970  69.657  1.00  0.00     0.174 C  
BRANCH   8   9
HETATM    9  C   UNL     1      -5.706  12.102  70.179  1.00  0.00    -0.153 C  
HETATM   10  C   UNL     1      -5.327  10.944  69.618  1.00  0.00    -0.039 C  
BRANCH  10  11
HETATM   11  C   UNL     1      -6.003  10.377  68.407  1.00  0.00    -0.040 C  
BRANCH  11  12
HETATM   12  C   UNL     1      -6.218   8.874  68.490  1.00  0.00    -0.053 C  
BRANCH  12  13
HETATM   13  C   UNL     1      -7.693   8.554  68.258  1.00  0.00    -0.102 C  
BRANCH  13  14
HETATM   14  C   UNL     1      -8.569   9.343  69.220  1.00  0.00    -0.143 C  
BRANCH  14  15
HETATM   15  C   UNL     1      -9.746   9.991  68.496  1.00  0.00    -0.164 C  
BRANCH  15  16
HETATM   16  C   UNL     1     -10.995   9.940  69.371  1.00  0.00    -0.263 C  
BRANCH  16  17
HETATM   17  C   UNL     1     -10.648   9.710  70.838  1.00  0.00    -0.386 C  
HETATM   18  C   UNL     1     -11.087   8.342  71.300  1.00  0.00    -0.251 C  
HETATM   19  O   UNL     1     -11.648   7.504  70.614  1.00  0.00    -0.288 OA 
HETATM   20  O   UNL     1     -10.789   8.122  72.603  1.00  0.00    -0.337 OA 
ENDBRANCH  16  17
ENDBRANCH  15  16
ENDBRANCH  14  15
ENDBRANCH  13  14
ENDBRANCH  12  13
ENDBRANCH  11  12
ENDBRANCH  10  11
ENDBRANCH   8   9
ENDBRANCH   7   8
ENDBRANCH   5   6
ENDBRANCH   4   5
ENDBRANCH   3   4
ENDBRANCH   2   3
TORSDOF 13
ENDMDL
MODEL      461
REMARK 921   NORMALIZED FREE ENERGY PREDICTED BY IDOCK:   -1.92 KCAL/MOL
REMARK 922        TOTAL FREE ENERGY PREDICTED BY IDOCK:   -5.12 KCAL/MOL
REMARK 923 INTER-LIGAND FREE ENERGY PREDICTED BY IDOCK:   -3.92 KCAL/MOL
REMARK 924 INTRA-LIGAND FREE ENERGY PREDICTED BY IDOCK:   -1.20 KCAL/MOL
REMARK 927      BINDING AFFINITY PREDICTED BY RF-SCORE:    0.00 PKD
ROOT
HETATM    1  C   UNL     1     -10.896   3.542  73.609  1.00  0.00    -0.324 C  
HETATM    2  C   UNL     1     -10.333   4.374  72.471  1.00  0.00    -0.252 C  
ENDROOT
BRANCH   2   3
HETATM    3  C   UNL     1      -9.900   5.751  72.959  1.00  0.00    -0.179 C  
BRANCH   3   4
HETATM    4  C   UNL     1     -11.037   6.763  72.834  1.00  0.00    -0.277 C  
BRANCH   4   5
HETATM    5  C   UNL     1     -11.480   6.860  71.381  1.00  0.00    -0.321 C  
BRANCH   5   6
HETATM    6  C   UNL     1     -10.932   8.061  70.670  1.00  0.00    -0.250 C  
HETATM    7  C   UNL     1      -9.891   7.988  69.826  1.00  0.00    -0.183 C  
BRANCH   7   8
HETATM    8  C   UNL     1      -9.141   6.727  69.515  1.00  0.00    -0.141 C  
BRANCH   8   9
HETATM    9  C   UNL     1      -7.833   6.660  70.245  1.00  0.00    -0.107 C  
HETATM   10  C   UNL     1      -6.877   7.598  70.166  1.00  0.00    -0.050 C  
BRANCH  10  11
HETATM   11  C   UNL     1      -7.012   8.814  69.300  1.00  0.00    -0.058 C  
BRANCH  11  12
HETATM   12  C   UNL     1      -6.329   8.667  67.950  1.00  0.00    -0.057 C  
BRANCH  12  13
HETATM   13  C   UNL     1      -7.047   9.530  66.916  1.00  0.00    -0.086 C  
BRANCH  13  14
HETATM   14  C   UNL     1      -8.003   8.686  66.086  1.00  0.00    -0.106 C  
BRANCH  14  15
HETATM   15  C   UNL     1      -8.010   9.127  64.625  1.00  0.00    -0.125 C  
BRANCH  15  16
HETATM   16  C   UNL     1      -8.365  10.608  64.523  1.00  0.00    -0.043 C  
BRANCH  16  17
HETATM   17  C   UNL     1      -9.605  10.833  63.666  1.00  0.00    -0.347 C  
HETATM   18  C   UNL     1     -10.616  11.701  64.377  1.00  0.00    -0.323 C  
HETATM   19  O   UNL     1     -10.488  12.176  65.493  1.00  0.00    -0.248 OA 
HETATM   20  O   UNL     1     -11.727  11.909  63.630  1.00  0.00    -0.445 OA 
ENDBRANCH  16  17
ENDBRANCH  15  16
ENDBRANCH  14  15
ENDBRANCH  13  14
ENDBRANCH  12  13
ENDBRANCH  11  12
ENDBRANCH  10  11
ENDBRANCH   8   9
ENDBRANCH   7   8
ENDBRANCH   5   6
ENDBRANCH   4   5
ENDBRANCH   3   4
ENDBRANCH   2   3
TORSDOF 13
ENDMDL
MODEL      462
REMARK 921   NORMALIZED FREE ENERGY PREDICTED BY IDOCK:   -1.88 KCAL/MOL
REMARK 922        TOTAL FREE ENERGY PREDICTED BY IDOCK:   -5.05 KCAL/MOL
REMARK 923 INTER-LIGAND FREE ENERGY PREDICTED BY IDOCK:   -2.71 KCAL/MOL
REMARK 924 INTRA-LIGAND FREE ENERGY PREDICTED BY IDOCK:   -2.33 KCAL/MOL
REMARK 927      BINDING AFFINITY PREDICTED BY RF-SCORE:    0.00 PKD
ROOT
HETATM    1  C   UNL     1      -9.798  10.433  63.033  1.00  0.00    -0.192 C  
HETATM    2  C   UNL     1     -10.087  11.222  64.298  1.00  0.00    -0.366 C  
ENDROOT
BRANCH   2   3
HETATM    3  C   UNL     1      -9.566  10.493  65.530  1.00  0.00    -0.282 C  
BRANCH   3   4
HETATM    4  C   UNL     1      -8.049  10.622  65.647  1.00  0.00    -0.146 C  
BRANCH   4   5
HETATM    5  C   UNL     1      -7.392   9.299  65.278  1.00  0.00    -0.094 C  
BRANCH   5   6
HETATM    6  C   UNL     1      -6.670   8.653  66.422  1.00  0.00    -0.070 C  
HETATM    7  C   UNL     1      -7.170   7.602  67.090  1.00  0.00    -0.090 C  
BRANCH   7   8
HETATM    8  C   UNL     1      -8.499   6.970  66.799  1.00  0.00    -0.118 C  
BRANCH   8   9
HETATM    9  C   UNL     1      -9.568   7.465  67.727  1.00  0.00    -0.162 C  
HETATM   10  C   UNL     1     -10.014   6.786  68.795  1.00  0.00    -0.149 C  
BRANCH  10  11
HETATM   11  C   UNL     1      -9.498   5.425  69.156  1.00  0.00    -0.177 C  
BRANCH  11  12
HETATM   12  C   UNL     1      -8.766   5.397  70.488  1.00  0.00    -0.130 C  
BRANCH  12  13
HETATM   13  C   UNL     1      -7.266   5.244  70.245  1.00  0.00    -0.062 C  
BRANCH  13  14
HETATM   14  C   UNL     1      -6.591   6.607  70.197  1.00  0.00    -0.045 C  
BRANCH  14  15
HETATM   15  C   UNL     1      -7.114   7.525  71.298  1.00  0.00    -0.058 C  
BRANCH  15  16
HETATM   16  C   UNL     1      -7.833   8.724  70.689  1.00  0.00    -0.112 C  
BRANCH  16  17
HETATM   17  C   UNL     1      -6.850   9.761  70.155  1.00  0.00    -0.109 C  
HETATM   18  C   UNL     1      -7.526  10.730  69.216  1.00  0.00    -0.135 C  
HETATM   19  O   UNL     1      -8.705  10.714  68.904  1.00  0.00    -0.149 OA 
HETATM   20  O   UNL     1      -6.665  11.656  68.730  1.00  0.00    -0.065 OA 
ENDBRANCH  16  17
ENDBRANCH  15  16
ENDBRANCH  14  15
ENDBRANCH  13  14
ENDBRANCH  12  13
ENDBRANCH  11  12
ENDBRANCH  10  11
ENDBRANCH   8   9
ENDBRANCH   7   8
ENDBRANCH   5   6
ENDBRANCH   4   5
ENDBRANCH   3   4
ENDBRANCH   2   3
TORSDOF 13
ENDMDL
MODEL      463
REMARK 921   NORMALIZED FREE ENERGY PREDICTED BY IDOCK:   -1.81 KCAL/MOL
REMARK 922        TOTAL FREE ENERGY PREDICTED BY IDOCK:   -4.94 KCAL/MOL
REMARK 923 INTER-LIGAND FREE ENERGY PREDICTED BY IDOCK:   -3.36 KCAL/MOL
REMARK 924 INTRA-LIGAND FREE ENERGY PREDICTED BY IDOCK:   -1.58 KCAL/MOL
REMARK 927      BINDING AFFINITY PREDICTED BY RF-SCORE:    0.00 PKD
ROOT
HETATM    1  C   UNL     1      -9.412   5.198  71.063  1.00  0.00    -0.214 C  
HETATM    2  C   UNL     1      -8.391   5.646  70.031  1.00  0.00    -0.121 C  
ENDROOT
BRANCH   2   3
HETATM    3  C   UNL     1      -8.067   4.522  69.055  1.00  0.00    -0.073 C  
BRANCH   3   4
HETATM    4  C   UNL     1      -8.444   4.907  67.626  1.00  0.00    -0.104 C  
BRANCH   4   5
HETATM    5  C   UNL     1      -9.523   3.965  67.110  1.00  0.00    -0.231 C  
BRANCH   5   6
HETATM    6  C   UNL     1     -10.461   4.612  66.135  1.00  0.00    -0.281 C  
HETATM    7  C   UNL     1     -10.462   4.312  64.827  1.00  0.00    -0.158 C  
BRANCH   7   8
HETATM    8  C   UNL     1      -9.526   3.332  64.183  1.00  0.00    -0.138 C  
BRANCH   8   9
HETATM    9  C   UNL     1      -9.076   3.797  62.830  1.00  0.00    -0.102 C  
HETATM   10  C   UNL     1      -8.034   4.617  62.621  1.00  0.00    -0.071 C  
BRANCH  10  11
HETATM   11  C   UNL     1      -7.219   5.183  63.744  1.00  0.00    -0.050 C  
BRANCH  11  12
HETATM   12  C   UNL     1      -7.775   6.489  64.288  1.00  0.00    -0.105 C  
BRANCH  12  13
HETATM   13  C   UNL     1      -7.785   7.541  63.182  1.00  0.00    -0.130 C  
BRANCH  13  14
HETATM   14  C   UNL     1      -6.916   8.729  63.567  1.00  0.00    -0.089 C  
BRANCH  14  15
HETATM   15  C   UNL     1      -7.580   9.577  64.648  1.00  0.00    -0.113 C  
BRANCH  15  16
HETATM   16  C   UNL     1      -9.074   9.711  64.370  1.00  0.00    -0.279 C  
BRANCH  16  17
HETATM   17  C   UNL     1      -9.810  10.360  65.538  1.00  0.00    -0.332 C  
HETATM   18  C   UNL     1     -10.276   9.329  66.537  1.00  0.00    -0.246 C  
HETATM   19  O   UNL     1     -10.103   8.125  66.452  1.00  0.00    -0.241 OA 
HETATM   20  O   UNL     1     -10.935   9.889  67.580  1.00  0.00    -0.282 OA 
ENDBRANCH  16  17
ENDBRANCH  15  16
ENDBRANCH  14  15
ENDBRANCH  13  14
ENDBRANCH  12  13
ENDBRANCH  11  12
ENDBRANCH  10  11
ENDBRANCH   8   9
ENDBRANCH   7   8
ENDBRANCH   5   6
ENDBRANCH   4   5
ENDBRANCH   3   4
ENDBRANCH   2   3
TORSDOF 13
ENDMDL
MODEL      464
REMARK 921   NORMALIZED FREE ENERGY PREDICTED BY IDOCK:   -1.67 KCAL/MOL
REMARK 922        TOTAL FREE ENERGY PREDICTED BY IDOCK:   -4.68 KCAL/MOL
REMARK 923 INTER-LIGAND FREE ENERGY PREDICTED BY IDOCK:   -2.65 KCAL/MOL
REMARK 924 INTRA-LIGAND FREE ENERGY PREDICTED BY IDOCK:   -2.03 KCAL/MOL
REMARK 927      BINDING AFFINITY PREDICTED BY RF-SCORE:    0.00 PKD
ROOT
HETATM    1  C   UNL     1      -5.644   4.436  64.121  1.00  0.00    -0.014 C  
HETATM    2  C   UNL     1      -5.758   5.872  63.641  1.00  0.00    -0.021 C  
ENDROOT
BRANCH   2   3
HETATM    3  C   UNL     1      -7.049   6.514  64.133  1.00  0.00    -0.057 C  
BRANCH   3   4
HETATM    4  C   UNL     1      -7.903   7.002  62.964  1.00  0.00    -0.107 C  
BRANCH   4   5
HETATM    5  C   UNL     1      -7.664   8.489  62.740  1.00  0.00    -0.126 C  
BRANCH   5   6
HETATM    6  C   UNL     1      -8.902   9.321  62.893  1.00  0.00    -0.185 C  
HETATM    7  C   UNL     1      -9.134  10.077  63.978  1.00  0.00    -0.296 C  
BRANCH   7   8
HETATM    8  C   UNL     1      -8.217  10.162  65.162  1.00  0.00    -0.151 C  
BRANCH   8   9
HETATM    9  C   UNL     1      -8.974  10.349  66.442  1.00  0.00    -0.166 C  
HETATM   10  C   UNL     1      -9.298   9.352  67.279  1.00  0.00    -0.159 C  
BRANCH  10  11
HETATM   11  C   UNL     1      -8.954   7.921  66.997  1.00  0.00    -0.145 C  
BRANCH  11  12
HETATM   12  C   UNL     1      -7.521   7.567  67.360  1.00  0.00    -0.104 C  
BRANCH  12  13
HETATM   13  C   UNL     1      -7.514   6.395  68.338  1.00  0.00    -0.088 C  
BRANCH  13  14
HETATM   14  C   UNL     1      -7.859   5.098  67.620  1.00  0.00    -0.095 C  
BRANCH  14  15
HETATM   15  C   UNL     1      -9.011   4.371  68.307  1.00  0.00    -0.149 C  
BRANCH  15  16
HETATM   16  C   UNL     1      -9.754   3.493  67.305  1.00  0.00    -0.058 C  
BRANCH  16  17
HETATM   17  C   UNL     1      -9.065   3.483  65.944  1.00  0.00    -0.156 C  
HETATM   18  C   UNL     1      -9.973   4.015  64.863  1.00  0.00    -0.205 C  
HETATM   19  O   UNL     1     -11.116   4.411  65.023  1.00  0.00    -0.236 OA 
HETATM   20  O   UNL     1      -9.378   4.010  63.646  1.00  0.00    -0.132 OA 
ENDBRANCH  16  17
ENDBRANCH  15  16
ENDBRANCH  14  15
ENDBRANCH  13  14
ENDBRANCH  12  13
ENDBRANCH  11  12
ENDBRANCH  10  11
ENDBRANCH   8   9
ENDBRANCH   7   8
ENDBRANCH   5   6
ENDBRANCH   4   5
ENDBRANCH   3   4
ENDBRANCH   2   3
TORSDOF 13
ENDMDL
MODEL      465
REMARK 921   NORMALIZED FREE ENERGY PREDICTED BY IDOCK:   -1.63 KCAL/MOL
REMARK 922        TOTAL FREE ENERGY PREDICTED BY IDOCK:   -4.62 KCAL/MOL
REMARK 923 INTER-LIGAND FREE ENERGY PREDICTED BY IDOCK:   -3.77 KCAL/MOL
REMARK 924 INTRA-LIGAND FREE ENERGY PREDICTED BY IDOCK:   -0.85 KCAL/MOL
REMARK 927      BINDING AFFINITY PREDICTED BY RF-SCORE:    0.00 PKD
ROOT
HETATM    1  C   UNL     1     -10.802   5.968  69.766  1.00  0.00    -0.433 C  
HETATM    2  C   UNL     1      -9.836   7.100  70.070  1.00  0.00    -0.178 C  
ENDROOT
BRANCH   2   3
HETATM    3  C   UNL     1      -9.018   6.803  71.320  1.00  0.00    -0.139 C  
BRANCH   3   4
HETATM    4  C   UNL     1      -7.938   5.761  71.038  1.00  0.00    -0.115 C  
BRANCH   4   5
HETATM    5  C   UNL     1      -7.206   6.116  69.751  1.00  0.00    -0.074 C  
BRANCH   5   6
HETATM    6  C   UNL     1      -5.857   6.727  69.983  1.00  0.00    -0.023 C  
HETATM    7  C   UNL     1      -5.632   8.046  69.869  1.00  0.00    -0.023 C  
BRANCH   7   8
HETATM    8  C   UNL     1      -6.674   9.051  69.476  1.00  0.00    -0.047 C  
BRANCH   8   9
HETATM    9  C   UNL     1      -6.483  10.358  70.185  1.00  0.00    -0.137 C  
HETATM   10  C   UNL     1      -6.690  11.559  69.621  1.00  0.00    -0.083 C  
BRANCH  10  11
HETATM   11  C   UNL     1      -7.112  11.714  68.191  1.00  0.00    -0.078 C  
BRANCH  11  12
HETATM   12  C   UNL     1      -8.453  11.064  67.889  1.00  0.00    -0.128 C  
BRANCH  12  13
HETATM   13  C   UNL     1      -9.583  12.008  68.294  1.00  0.00    -0.204 C  
BRANCH  13  14
HETATM   14  C   UNL     1      -9.233  13.445  67.935  1.00  0.00    -0.216 C  
BRANCH  14  15
HETATM   15  C   UNL     1      -9.745  13.812  66.546  1.00  0.00    -0.301 C  
BRANCH  15  16
HETATM   16  C   UNL     1     -10.877  12.874  66.136  1.00  0.00    -0.300 C  
BRANCH  16  17
HETATM   17  C   UNL     1     -10.442  11.912  65.036  1.00  0.00    -0.333 C  
HETATM   18  C   UNL     1     -11.156  12.200  63.738  1.00  0.00    -0.436 C  
HETATM   19  O   UNL     1     -11.981  13.081  63.558  1.00  0.00    -0.514 OA 
HETATM   20  O   UNL     1     -10.784  11.351  62.750  1.00  0.00    -0.005 OA 
ENDBRANCH  16  17
ENDBRANCH  15  16
ENDBRANCH  14  15
ENDBRANCH  13  14
ENDBRANCH  12  13
ENDBRANCH  11  12
ENDBRANCH  10  11
ENDBRANCH   8   9
ENDBRANCH   7   8
ENDBRANCH   5   6
ENDBRANCH   4   5
ENDBRANCH   3   4
ENDBRANCH   2   3
TORSDOF 13
ENDMDL
MODEL      466
REMARK 921   NORMALIZED FREE ENERGY PREDICTED BY IDOCK:   -1.59 KCAL/MOL
REMARK 922        TOTAL FREE ENERGY PREDICTED BY IDOCK:   -4.55 KCAL/MOL
REMARK 923 INTER-LIGAND FREE ENERGY PREDICTED BY IDOCK:   -2.16 KCAL/MOL
REMARK 924 INTRA-LIGAND FREE ENERGY PREDICTED BY IDOCK:   -2.38 KCAL/MOL
REMARK 927      BINDING AFFINITY PREDICTED BY RF-SCORE:    0.00 PKD
ROOT
HETATM    1  C   UNL     1      -9.587  10.610  62.766  1.00  0.00    -0.333 C  
HETATM    2  C   UNL     1      -9.789  11.537  63.951  1.00  0.00    -0.326 C  
ENDROOT
BRANCH   2   3
HETATM    3  C   UNL     1      -9.666  10.781  65.267  1.00  0.00    -0.308 C  
BRANCH   3   4
HETATM    4  C   UNL     1     -11.034  10.330  65.775  1.00  0.00     0.361 C  
BRANCH   4   5
HETATM    5  C   UNL     1     -11.297  10.935  67.147  1.00  0.00    -0.168 C  
BRANCH   5   6
HETATM    6  C   UNL     1     -11.348   9.917  68.247  1.00  0.00    -0.045 C  
HETATM    7  C   UNL     1     -10.474   9.910  69.265  1.00  0.00    -0.240 C  
BRANCH   7   8
HETATM    8  C   UNL     1      -9.342  10.883  69.415  1.00  0.00     0.062 C  
BRANCH   8   9
HETATM    9  C   UNL     1      -8.089  10.386  68.760  1.00  0.00    -0.125 C  
HETATM   10  C   UNL     1      -7.162   9.636  69.377  1.00  0.00    -0.071 C  
BRANCH  10  11
HETATM   11  C   UNL     1      -7.277   9.238  70.817  1.00  0.00    -0.126 C  
BRANCH  11  12
HETATM   12  C   UNL     1      -7.550   7.755  71.008  1.00  0.00    -0.082 C  
BRANCH  12  13
HETATM   13  C   UNL     1      -9.040   7.537  71.262  1.00  0.00    -0.147 C  
BRANCH  13  14
HETATM   14  C   UNL     1      -9.676   6.789  70.100  1.00  0.00    -0.175 C  
BRANCH  14  15
HETATM   15  C   UNL     1      -8.635   6.392  69.058  1.00  0.00    -0.124 C  
BRANCH  15  16
HETATM   16  C   UNL     1      -9.145   6.707  67.655  1.00  0.00    -0.112 C  
BRANCH  16  17
HETATM   17  C   UNL     1      -8.082   7.401  66.811  1.00  0.00    -0.123 C  
HETATM   18  C   UNL     1      -8.138   6.947  65.372  1.00  0.00    -0.133 C  
HETATM   19  O   UNL     1      -8.921   6.132  64.912  1.00  0.00     0.114 OA 
HETATM   20  O   UNL     1      -7.197   7.552  64.608  1.00  0.00    -0.061 OA 
ENDBRANCH  16  17
ENDBRANCH  15  16
ENDBRANCH  14  15
ENDBRANCH  13  14
ENDBRANCH  12  13
ENDBRANCH  11  12
ENDBRANCH  10  11
ENDBRANCH   8   9
ENDBRANCH   7   8
ENDBRANCH   5   6
ENDBRANCH   4   5
ENDBRANCH   3   4
ENDBRANCH   2   3
TORSDOF 13
ENDMDL
MODEL      467
REMARK 921   NORMALIZED FREE ENERGY PREDICTED BY IDOCK:   -1.57 KCAL/MOL
REMARK 922        TOTAL FREE ENERGY PREDICTED BY IDOCK:   -4.52 KCAL/MOL
REMARK 923 INTER-LIGAND FREE ENERGY PREDICTED BY IDOCK:   -4.67 KCAL/MOL
REMARK 924 INTRA-LIGAND FREE ENERGY PREDICTED BY IDOCK:    0.15 KCAL/MOL
REMARK 927      BINDING AFFINITY PREDICTED BY RF-SCORE:    0.00 PKD
ROOT
HETATM    1  C   UNL     1     -11.858  15.280  71.831  1.00  0.00    -0.493 C  
HETATM    2  C   UNL     1     -12.274  15.952  70.535  1.00  0.00    -0.314 C  
ENDROOT
BRANCH   2   3
HETATM    3  C   UNL     1     -11.340  15.570  69.394  1.00  0.00    -0.321 C  
BRANCH   3   4
HETATM    4  C   UNL     1     -12.019  14.606  68.424  1.00  0.00    -0.289 C  
BRANCH   4   5
HETATM    5  C   UNL     1     -11.193  13.332  68.305  1.00  0.00    -0.309 C  
BRANCH   5   6
HETATM    6  C   UNL     1     -11.713  12.204  69.144  1.00  0.00    -0.384 C  
HETATM    7  C   UNL     1     -11.237  10.953  69.047  1.00  0.00    -0.327 C  
BRANCH   7   8
HETATM    8  C   UNL     1     -10.165  10.528  68.088  1.00  0.00    -0.187 C  
BRANCH   8   9
HETATM    9  C   UNL     1      -9.056  11.534  68.008  1.00  0.00    -0.174 C  
HETATM   10  C   UNL     1      -7.866  11.395  68.612  1.00  0.00    -0.139 C  
BRANCH  10  11
HETATM   11  C   UNL     1      -7.531  10.210  69.466  1.00  0.00    -0.133 C  
BRANCH  11  12
HETATM   12  C   UNL     1      -8.055   8.899  68.902  1.00  0.00    -0.112 C  
BRANCH  12  13
HETATM   13  C   UNL     1      -8.258   7.898  70.038  1.00  0.00    -0.119 C  
BRANCH  13  14
HETATM   14  C   UNL     1      -7.447   6.635  69.787  1.00  0.00    -0.092 C  
BRANCH  14  15
HETATM   15  C   UNL     1      -8.106   5.416  70.426  1.00  0.00    -0.101 C  
BRANCH  15  16
HETATM   16  C   UNL     1      -9.491   5.190  69.828  1.00  0.00    -0.210 C  
BRANCH  16  17
HETATM   17  C   UNL     1      -9.413   4.775  68.363  1.00  0.00    -0.196 C  
HETATM   18  C   UNL     1     -10.404   5.540  67.521  1.00  0.00    -0.214 C  
HETATM   19  O   UNL     1     -11.183   6.387  67.928  1.00  0.00    -0.319 OA 
HETATM   20  O   UNL     1     -10.350   5.181  66.215  1.00  0.00    -0.236 OA 
ENDBRANCH  16  17
ENDBRANCH  15  16
ENDBRANCH  14  15
ENDBRANCH  13  14
ENDBRANCH  12  13
ENDBRANCH  11  12
ENDBRANCH  10  11
ENDBRANCH   8   9
ENDBRANCH   7   8
ENDBRANCH   5   6
ENDBRANCH   4   5
ENDBRANCH   3   4
ENDBRANCH   2   3
TORSDOF 13
ENDMDL
MODEL      468
REMARK 921   NORMALIZED FREE ENERGY PREDICTED BY IDOCK:   -1.53 KCAL/MOL
REMARK 922        TOTAL FREE ENERGY PREDICTED BY IDOCK:   -4.43 KCAL/MOL
REMARK 923 INTER-LIGAND FREE ENERGY PREDICTED BY IDOCK:   -5.14 KCAL/MOL
REMARK 924 INTRA-LIGAND FREE ENERGY PREDICTED BY IDOCK:    0.71 KCAL/MOL
REMARK 927      BINDING AFFINITY PREDICTED BY RF-SCORE:    0.00 PKD
ROOT
HETATM    1  C   UNL     1      -5.444   9.064  73.101  1.00  0.00    -0.092 C  
HETATM    2  C   UNL     1      -5.817   8.159  71.940  1.00  0.00    -0.038 C  
ENDROOT
BRANCH   2   3
HETATM    3  C   UNL     1      -5.395   8.769  70.610  1.00  0.00    -0.027 C  
BRANCH   3   4
HETATM    4  C   UNL     1      -6.230  10.005  70.279  1.00  0.00    -0.094 C  
BRANCH   4   5
HETATM    5  C   UNL     1      -7.139   9.707  69.095  1.00  0.00    -0.062 C  
BRANCH   5   6
HETATM    6  C   UNL     1      -8.244  10.706  68.927  1.00  0.00    -0.145 C  
HETATM    7  C   UNL     1      -8.063  11.886  68.311  1.00  0.00    -0.154 C  
BRANCH   7   8
HETATM    8  C   UNL     1      -6.754  12.355  67.750  1.00  0.00    -0.115 C  
BRANCH   8   9
HETATM    9  C   UNL     1      -6.705  13.848  67.621  1.00  0.00    -0.189 C  
HETATM   10  C   UNL     1      -7.785  14.626  67.450  1.00  0.00    -0.226 C  
BRANCH  10  11
HETATM   11  C   UNL     1      -9.171  14.066  67.338  1.00  0.00    -0.216 C  
BRANCH  11  12
HETATM   12  C   UNL     1     -10.003  14.274  68.593  1.00  0.00    -0.234 C  
BRANCH  12  13
HETATM   13  C   UNL     1     -10.586  15.685  68.594  1.00  0.00    -0.243 C  
BRANCH  13  14
HETATM   14  C   UNL     1     -11.936  15.705  69.295  1.00  0.00    -0.338 C  
BRANCH  14  15
HETATM   15  C   UNL     1     -12.107  14.494  70.208  1.00  0.00    -0.386 C  
BRANCH  15  16
HETATM   16  C   UNL     1     -13.409  14.605  70.994  1.00  0.00    -0.410 C  
BRANCH  16  17
HETATM   17  C   UNL     1     -13.197  14.332  72.479  1.00  0.00    -0.581 C  
HETATM   18  C   UNL     1     -12.454  15.464  73.146  1.00  0.00    -0.456 C  
HETATM   19  O   UNL     1     -12.060  16.479  72.598  1.00  0.00    -0.502 OA 
HETATM   20  O   UNL     1     -12.254  15.236  74.467  1.00  0.00    -0.634 OA 
ENDBRANCH  16  17
ENDBRANCH  15  16
ENDBRANCH  14  15
ENDBRANCH  13  14
ENDBRANCH  12  13
ENDBRANCH  11  12
ENDBRANCH  10  11
ENDBRANCH   8   9
ENDBRANCH   7   8
ENDBRANCH   5   6
ENDBRANCH   4   5
ENDBRANCH   3   4
ENDBRANCH   2   3
TORSDOF 13
ENDMDL
MODEL      469
REMARK 921   NORMALIZED FREE ENERGY PREDICTED BY IDOCK:   -1.49 KCAL/MOL
REMARK 922        TOTAL FREE ENERGY PREDICTED BY IDOCK:   -4.36 KCAL/MOL
REMARK 923 INTER-LIGAND FREE ENERGY PREDICTED BY IDOCK:   -2.90 KCAL/MOL
REMARK 924 INTRA-LIGAND FREE ENERGY PREDICTED BY IDOCK:   -1.46 KCAL/MOL
REMARK 927      BINDING AFFINITY PREDICTED BY RF-SCORE:    0.00 PKD
ROOT
HETATM    1  C   UNL     1      -6.044  13.395  69.625  1.00  0.00    -0.123 C  
HETATM    2  C   UNL     1      -6.461  14.053  68.321  1.00  0.00    -0.116 C  
ENDROOT
BRANCH   2   3
HETATM    3  C   UNL     1      -7.110  13.047  67.380  1.00  0.00    -0.124 C  
BRANCH   3   4
HETATM    4  C   UNL     1      -6.599  11.632  67.648  1.00  0.00    -0.082 C  
BRANCH   4   5
HETATM    5  C   UNL     1      -7.691  10.623  67.321  1.00  0.00    -0.108 C  
BRANCH   5   6
HETATM    6  C   UNL     1      -8.962  11.255  66.840  1.00  0.00    -0.163 C  
HETATM    7  C   UNL     1     -10.172  10.741  67.110  1.00  0.00    -0.255 C  
BRANCH   7   8
HETATM    8  C   UNL     1     -10.400   9.478  67.888  1.00  0.00    -0.276 C  
BRANCH   8   9
HETATM    9  C   UNL     1     -10.866   9.761  69.285  1.00  0.00    -0.240 C  
HETATM   10  C   UNL     1     -11.086   8.816  70.212  1.00  0.00    -0.240 C  
BRANCH  10  11
HETATM   11  C   UNL     1     -10.912   7.354  69.929  1.00  0.00    -0.239 C  
BRANCH  11  12
HETATM   12  C   UNL     1      -9.548   6.823  70.341  1.00  0.00    -0.174 C  
BRANCH  12  13
HETATM   13  C   UNL     1      -8.823   6.269  69.117  1.00  0.00    -0.128 C  
BRANCH  13  14
HETATM   14  C   UNL     1      -9.774   6.166  67.933  1.00  0.00    -0.117 C  
BRANCH  14  15
HETATM   15  C   UNL     1      -9.609   4.838  67.201  1.00  0.00    -0.185 C  
BRANCH  15  16
HETATM   16  C   UNL     1      -8.642   4.997  66.032  1.00  0.00    -0.121 C  
BRANCH  16  17
HETATM   17  C   UNL     1      -8.873   6.304  65.281  1.00  0.00     0.059 C  
HETATM   18  C   UNL     1      -7.586   6.845  64.709  1.00  0.00    -0.108 C  
HETATM   19  O   UNL     1      -6.485   6.329  64.814  1.00  0.00    -0.033 OA 
HETATM   20  O   UNL     1      -7.773   8.009  64.040  1.00  0.00    -0.122 OA 
ENDBRANCH  16  17
ENDBRANCH  15  16
ENDBRANCH  14  15
ENDBRANCH  13  14
ENDBRANCH  12  13
ENDBRANCH  11  12
ENDBRANCH  10  11
ENDBRANCH   8   9
ENDBRANCH   7   8
ENDBRANCH   5   6
ENDBRANCH   4   5
ENDBRANCH   3   4
ENDBRANCH   2   3
TORSDOF 13
ENDMDL
MODEL      470
REMARK 921   NORMALIZED FREE ENERGY PREDICTED BY IDOCK:   -1.33 KCAL/MOL
REMARK 922        TOTAL FREE ENERGY PREDICTED BY IDOCK:   -4.09 KCAL/MOL
REMARK 923 INTER-LIGAND FREE ENERGY PREDICTED BY IDOCK:   -4.61 KCAL/MOL
REMARK 924 INTRA-LIGAND FREE ENERGY PREDICTED BY IDOCK:    0.52 KCAL/MOL
REMARK 927      BINDING AFFINITY PREDICTED BY RF-SCORE:    0.00 PKD
ROOT
HETATM    1  C   UNL     1     -10.122  15.049  70.436  1.00  0.00     0.247 C  
HETATM    2  C   UNL     1     -10.985  14.418  69.357  1.00  0.00    -0.261 C  
ENDROOT
BRANCH   2   3
HETATM    3  C   UNL     1     -10.135  13.914  68.198  1.00  0.00    -0.250 C  
BRANCH   3   4
HETATM    4  C   UNL     1     -10.677  14.409  66.859  1.00  0.00    -0.292 C  
BRANCH   4   5
HETATM    5  C   UNL     1     -11.719  15.494  67.098  1.00  0.00     0.132 C  
BRANCH   5   6
HETATM    6  C   UNL     1     -11.249  16.577  68.022  1.00  0.00    -0.202 C  
HETATM    7  C   UNL     1     -10.623  17.680  67.581  1.00  0.00    -0.364 C  
BRANCH   7   8
HETATM    8  C   UNL     1     -10.296  17.950  66.142  1.00  0.00    -0.352 C  
BRANCH   8   9
HETATM    9  C   UNL     1     -10.515  19.389  65.781  1.00  0.00    -0.478 C  
HETATM   10  C   UNL     1      -9.973  20.423  66.441  1.00  0.00    -0.402 C  
BRANCH  10  11
HETATM   11  C   UNL     1      -9.102  20.240  67.647  1.00  0.00    -0.423 C  
BRANCH  11  12
HETATM   12  C   UNL     1      -7.636  20.539  67.377  1.00  0.00    -0.380 C  
BRANCH  12  13
HETATM   13  C   UNL     1      -7.360  20.438  65.879  1.00  0.00    -0.178 C  
BRANCH  13  14
HETATM   14  C   UNL     1      -6.783  19.073  65.532  1.00  0.00    -0.295 C  
BRANCH  14  15
HETATM   15  C   UNL     1      -5.392  18.889  66.130  1.00  0.00    -0.177 C  
BRANCH  15  16
HETATM   16  C   UNL     1      -5.211  17.454  66.614  1.00  0.00    -0.217 C  
BRANCH  16  17
HETATM   17  C   UNL     1      -5.817  17.243  67.997  1.00  0.00    -0.126 C  
HETATM   18  C   UNL     1      -6.613  15.962  68.060  1.00  0.00    -0.131 C  
HETATM   19  O   UNL     1      -6.771  15.175  67.141  1.00  0.00    -0.279 OA 
HETATM   20  O   UNL     1      -7.162  15.761  69.282  1.00  0.00    -0.183 OA 
ENDBRANCH  16  17
ENDBRANCH  15  16
ENDBRANCH  14  15
ENDBRANCH  13  14
ENDBRANCH  12  13
ENDBRANCH  11  12
ENDBRANCH  10  11
ENDBRANCH   8   9
ENDBRANCH   7   8
ENDBRANCH   5   6
ENDBRANCH   4   5
ENDBRANCH   3   4
ENDBRANCH   2   3
TORSDOF 13
ENDMDL
MODEL      471
REMARK 921   NORMALIZED FREE ENERGY PREDICTED BY IDOCK:   -1.33 KCAL/MOL
REMARK 922        TOTAL FREE ENERGY PREDICTED BY IDOCK:   -4.08 KCAL/MOL
REMARK 923 INTER-LIGAND FREE ENERGY PREDICTED BY IDOCK:   -3.59 KCAL/MOL
REMARK 924 INTRA-LIGAND FREE ENERGY PREDICTED BY IDOCK:   -0.50 KCAL/MOL
REMARK 927      BINDING AFFINITY PREDICTED BY RF-SCORE:    0.00 PKD
ROOT
HETATM    1  C   UNL     1     -11.522  15.038  71.548  1.00  0.00    -0.377 C  
HETATM    2  C   UNL     1     -12.053  15.432  70.181  1.00  0.00    -0.400 C  
ENDROOT
BRANCH   2   3
HETATM    3  C   UNL     1     -11.156  14.902  69.070  1.00  0.00    -0.260 C  
BRANCH   3   4
HETATM    4  C   UNL     1     -11.756  13.654  68.425  1.00  0.00    -0.393 C  
BRANCH   4   5
HETATM    5  C   UNL     1     -11.226  12.410  69.126  1.00  0.00    -0.295 C  
BRANCH   5   6
HETATM    6  C   UNL     1     -12.257  11.714  69.963  1.00  0.00    -0.338 C  
HETATM    7  C   UNL     1     -12.418  10.381  69.950  1.00  0.00    -0.123 C  
BRANCH   7   8
HETATM    8  C   UNL     1     -11.622   9.442  69.092  1.00  0.00     0.417 C  
BRANCH   8   9
HETATM    9  C   UNL     1     -10.296  10.026  68.706  1.00  0.00    -0.216 C  
HETATM   10  C   UNL     1      -9.111   9.482  69.024  1.00  0.00    -0.144 C  
BRANCH  10  11
HETATM   11  C   UNL     1      -8.993   8.228  69.836  1.00  0.00    -0.139 C  
BRANCH  11  12
HETATM   12  C   UNL     1      -8.817   6.979  68.987  1.00  0.00    -0.134 C  
BRANCH  12  13
HETATM   13  C   UNL     1      -9.829   5.920  69.417  1.00  0.00    -0.207 C  
BRANCH  13  14
HETATM   14  C   UNL     1     -10.615   6.394  70.631  1.00  0.00    -0.288 C  
BRANCH  14  15
HETATM   15  C   UNL     1     -10.914   5.241  71.585  1.00  0.00    -0.121 C  
BRANCH  15  16
HETATM   16  C   UNL     1      -9.671   4.894  72.399  1.00  0.00    -0.200 C  
BRANCH  16  17
HETATM   17  C   UNL     1      -9.018   6.138  72.991  1.00  0.00    -0.131 C  
HETATM   18  C   UNL     1      -7.633   6.352  72.431  1.00  0.00    -0.097 C  
HETATM   19  O   UNL     1      -7.077   5.641  71.610  1.00  0.00    -0.075 OA 
HETATM   20  O   UNL     1      -7.036   7.453  72.949  1.00  0.00    -0.067 OA 
ENDBRANCH  16  17
ENDBRANCH  15  16
ENDBRANCH  14  15
ENDBRANCH  13  14
ENDBRANCH  12  13
ENDBRANCH  11  12
ENDBRANCH  10  11
ENDBRANCH   8   9
ENDBRANCH   7   8
ENDBRANCH   5   6
ENDBRANCH   4   5
ENDBRANCH   3   4
ENDBRANCH   2   3
TORSDOF 13
ENDMDL
MODEL      472
REMARK 921   NORMALIZED FREE ENERGY PREDICTED BY IDOCK:   -1.29 KCAL/MOL
REMARK 922        TOTAL FREE ENERGY PREDICTED BY IDOCK:   -4.02 KCAL/MOL
REMARK 923 INTER-LIGAND FREE ENERGY PREDICTED BY IDOCK:   -2.83 KCAL/MOL
REMARK 924 INTRA-LIGAND FREE ENERGY PREDICTED BY IDOCK:   -1.18 KCAL/MOL
REMARK 927      BINDING AFFINITY PREDICTED BY RF-SCORE:    0.00 PKD
ROOT
HETATM    1  C   UNL     1      -7.299  17.219  69.435  1.00  0.00     0.031 C  
HETATM    2  C   UNL     1      -7.708  15.819  69.012  1.00  0.00    -0.202 C  
ENDROOT
BRANCH   2   3
HETATM    3  C   UNL     1      -6.498  14.901  68.908  1.00  0.00    -0.088 C  
BRANCH   3   4
HETATM    4  C   UNL     1      -6.536  14.081  67.620  1.00  0.00    -0.156 C  
BRANCH   4   5
HETATM    5  C   UNL     1      -5.678  12.833  67.781  1.00  0.00    -0.131 C  
BRANCH   5   6
HETATM    6  C   UNL     1      -6.097  11.966  68.930  1.00  0.00    -0.062 C  
HETATM    7  C   UNL     1      -6.817  10.845  68.763  1.00  0.00    -0.070 C  
BRANCH   7   8
HETATM    8  C   UNL     1      -7.305  10.343  67.437  1.00  0.00    -0.093 C  
BRANCH   8   9
HETATM    9  C   UNL     1      -8.699  10.811  67.141  1.00  0.00    -0.131 C  
HETATM   10  C   UNL     1      -9.808  10.134  67.475  1.00  0.00    -0.211 C  
BRANCH  10  11
HETATM   11  C   UNL     1      -9.763   8.804  68.164  1.00  0.00    -0.177 C  
BRANCH  11  12
HETATM   12  C   UNL     1      -9.656   7.634  67.199  1.00  0.00    -0.211 C  
BRANCH  12  13
HETATM   13  C   UNL     1     -11.001   6.916  67.113  1.00  0.00    -0.427 C  
BRANCH  13  14
HETATM   14  C   UNL     1     -11.130   5.887  68.226  1.00  0.00    -0.139 C  
BRANCH  14  15
HETATM   15  C   UNL     1      -9.945   4.926  68.234  1.00  0.00    -0.177 C  
BRANCH  15  16
HETATM   16  C   UNL     1      -9.667   4.442  69.655  1.00  0.00    -0.289 C  
BRANCH  16  17
HETATM   17  C   UNL     1      -8.330   4.957  70.175  1.00  0.00    -0.081 C  
HETATM   18  C   UNL     1      -7.993   4.357  71.518  1.00  0.00    -0.083 C  
HETATM   19  O   UNL     1      -8.680   3.559  72.135  1.00  0.00    -0.085 OA 
HETATM   20  O   UNL     1      -6.808   4.806  71.996  1.00  0.00    -0.050 OA 
ENDBRANCH  16  17
ENDBRANCH  15  16
ENDBRANCH  14  15
ENDBRANCH  13  14
ENDBRANCH  12  13
ENDBRANCH  11  12
ENDBRANCH  10  11
ENDBRANCH   8   9
ENDBRANCH   7   8
ENDBRANCH   5   6
ENDBRANCH   4   5
ENDBRANCH   3   4
ENDBRANCH   2   3
TORSDOF 13
ENDMDL
MODEL      473
REMARK 921   NORMALIZED FREE ENERGY PREDICTED BY IDOCK:   -1.20 KCAL/MOL
REMARK 922        TOTAL FREE ENERGY PREDICTED BY IDOCK:   -3.86 KCAL/MOL
REMARK 923 INTER-LIGAND FREE ENERGY PREDICTED BY IDOCK:   -2.98 KCAL/MOL
REMARK 924 INTRA-LIGAND FREE ENERGY PREDICTED BY IDOCK:   -0.89 KCAL/MOL
REMARK 927      BINDING AFFINITY PREDICTED BY RF-SCORE:    0.00 PKD
ROOT
HETATM    1  C   UNL     1      -5.311   3.468  64.285  1.00  0.00    -0.009 C  
HETATM    2  C   UNL     1      -5.242   4.984  64.354  1.00  0.00    -0.009 C  
ENDROOT
BRANCH   2   3
HETATM    3  C   UNL     1      -6.581   5.576  64.771  1.00  0.00    -0.043 C  
BRANCH   3   4
HETATM    4  C   UNL     1      -6.956   6.767  63.891  1.00  0.00    -0.056 C  
BRANCH   4   5
HETATM    5  C   UNL     1      -7.090   8.017  64.749  1.00  0.00    -0.075 C  
BRANCH   5   6
HETATM    6  C   UNL     1      -8.422   8.692  64.615  1.00  0.00    -0.150 C  
HETATM    7  C   UNL     1      -9.350   8.656  65.583  1.00  0.00    -0.173 C  
BRANCH   7   8
HETATM    8  C   UNL     1      -9.188   7.928  66.885  1.00  0.00    -0.191 C  
BRANCH   8   9
HETATM    9  C   UNL     1      -9.318   6.444  66.714  1.00  0.00    -0.167 C  
HETATM   10  C   UNL     1      -9.975   5.641  67.565  1.00  0.00    -0.180 C  
BRANCH  10  11
HETATM   11  C   UNL     1     -10.632   6.155  68.811  1.00  0.00    -0.330 C  
BRANCH  11  12
HETATM   12  C   UNL     1      -9.639   6.645  69.852  1.00  0.00    -0.161 C  
BRANCH  12  13
HETATM   13  C   UNL     1      -8.572   5.577  70.085  1.00  0.00    -0.122 C  
BRANCH  13  14
HETATM   14  C   UNL     1      -9.101   4.486  71.004  1.00  0.00    -0.185 C  
BRANCH  14  15
HETATM   15  C   UNL     1      -8.198   4.297  72.220  1.00  0.00    -0.103 C  
BRANCH  15  16
HETATM   16  C   UNL     1      -8.887   4.823  73.476  1.00  0.00    -0.105 C  
BRANCH  16  17
HETATM   17  C   UNL     1     -10.290   5.337  73.176  1.00  0.00    -0.229 C  
HETATM   18  C   UNL     1     -10.388   6.828  73.390  1.00  0.00    -0.294 C  
HETATM   19  O   UNL     1      -9.480   7.557  73.754  1.00  0.00    -0.261 OA 
HETATM   20  O   UNL     1     -11.631   7.301  73.131  1.00  0.00    -0.134 OA 
ENDBRANCH  16  17
ENDBRANCH  15  16
ENDBRANCH  14  15
ENDBRANCH  13  14
ENDBRANCH  12  13
ENDBRANCH  11  12
ENDBRANCH  10  11
ENDBRANCH   8   9
ENDBRANCH   7   8
ENDBRANCH   5   6
ENDBRANCH   4   5
ENDBRANCH   3   4
ENDBRANCH   2   3
TORSDOF 13
ENDMDL
MODEL      474
REMARK 921   NORMALIZED FREE ENERGY PREDICTED BY IDOCK:   -1.16 KCAL/MOL
REMARK 922        TOTAL FREE ENERGY PREDICTED BY IDOCK:   -3.79 KCAL/MOL
REMARK 923 INTER-LIGAND FREE ENERGY PREDICTED BY IDOCK:   -2.64 KCAL/MOL
REMARK 924 INTRA-LIGAND FREE ENERGY PREDICTED BY IDOCK:   -1.15 KCAL/MOL
REMARK 927      BINDING AFFINITY PREDICTED BY RF-SCORE:    0.00 PKD
ROOT
HETATM    1  C   UNL     1      -7.347  17.729  68.504  1.00  0.00    -0.266 C  
HETATM    2  C   UNL     1      -8.201  16.476  68.575  1.00  0.00    -0.212 C  
ENDROOT
BRANCH   2   3
HETATM    3  C   UNL     1      -7.335  15.222  68.591  1.00  0.00    -0.120 C  
BRANCH   3   4
HETATM    4  C   UNL     1      -7.767  14.239  67.505  1.00  0.00    -0.208 C  
BRANCH   4   5
HETATM    5  C   UNL     1      -6.840  13.032  67.507  1.00  0.00    -0.156 C  
BRANCH   5   6
HETATM    6  C   UNL     1      -6.974  12.181  68.734  1.00  0.00    -0.101 C  
HETATM    7  C   UNL     1      -6.968  10.839  68.686  1.00  0.00    -0.070 C  
BRANCH   7   8
HETATM    8  C   UNL     1      -6.858  10.039  67.422  1.00  0.00    -0.082 C  
BRANCH   8   9
HETATM    9  C   UNL     1      -8.204   9.661  66.880  1.00  0.00    -0.113 C  
HETATM   10  C   UNL     1      -8.883   8.563  67.246  1.00  0.00    -0.137 C  
BRANCH  10  11
HETATM   11  C   UNL     1      -8.340   7.571  68.230  1.00  0.00    -0.125 C  
BRANCH  11  12
HETATM   12  C   UNL     1      -7.391   6.564  67.601  1.00  0.00    -0.095 C  
BRANCH  12  13
HETATM   13  C   UNL     1      -8.146   5.272  67.293  1.00  0.00    -0.101 C  
BRANCH  13  14
HETATM   14  C   UNL     1      -8.738   4.683  68.565  1.00  0.00    -0.113 C  
BRANCH  14  15
HETATM   15  C   UNL     1      -7.645   4.260  69.543  1.00  0.00    -0.054 C  
BRANCH  15  16
HETATM   16  C   UNL     1      -7.743   5.074  70.829  1.00  0.00    -0.078 C  
BRANCH  16  17
HETATM   17  C   UNL     1      -9.170   5.544  71.092  1.00  0.00    -0.173 C  
HETATM   18  C   UNL     1      -9.189   6.823  71.894  1.00  0.00    -0.142 C  
HETATM   19  O   UNL     1      -8.209   7.428  72.296  1.00  0.00    -0.099 OA 
HETATM   20  O   UNL     1     -10.450   7.254  72.139  1.00  0.00    -0.198 OA 
ENDBRANCH  16  17
ENDBRANCH  15  16
ENDBRANCH  14  15
ENDBRANCH  13  14
ENDBRANCH  12  13
ENDBRANCH  11  12
ENDBRANCH  10  11
ENDBRANCH   8   9
ENDBRANCH   7   8
ENDBRANCH   5   6
ENDBRANCH   4   5
ENDBRANCH   3   4
ENDBRANCH   2   3
TORSDOF 13
ENDMDL
MODEL      475
REMARK 921   NORMALIZED FREE ENERGY PREDICTED BY IDOCK:   -1.16 KCAL/MOL
REMARK 922        TOTAL FREE ENERGY PREDICTED BY IDOCK:   -3.78 KCAL/MOL
REMARK 923 INTER-LIGAND FREE ENERGY PREDICTED BY IDOCK:   -2.56 KCAL/MOL
REMARK 924 INTRA-LIGAND FREE ENERGY PREDICTED BY IDOCK:   -1.23 KCAL/MOL
REMARK 927      BINDING AFFINITY PREDICTED BY RF-SCORE:    0.00 PKD
ROOT
HETATM    1  C   UNL     1      -5.593   3.747  64.375  1.00  0.00    -0.013 C  
HETATM    2  C   UNL     1      -5.708   5.233  64.665  1.00  0.00    -0.017 C  
ENDROOT
BRANCH   2   3
HETATM    3  C   UNL     1      -7.096   5.584  65.186  1.00  0.00    -0.065 C  
BRANCH   3   4
HETATM    4  C   UNL     1      -7.615   6.871  64.548  1.00  0.00    -0.107 C  
BRANCH   4   5
HETATM    5  C   UNL     1      -7.812   7.933  65.621  1.00  0.00    -0.109 C  
BRANCH   5   6
HETATM    6  C   UNL     1      -9.065   8.736  65.442  1.00  0.00    -0.194 C  
HETATM    7  C   UNL     1      -9.890   9.023  66.461  1.00  0.00    -0.338 C  
BRANCH   7   8
HETATM    8  C   UNL     1      -9.682   8.563  67.873  1.00  0.00    -0.193 C  
BRANCH   8   9
HETATM    9  C   UNL     1     -10.453   7.311  68.171  1.00  0.00    -0.244 C  
HETATM   10  C   UNL     1     -11.027   7.042  69.354  1.00  0.00    -0.232 C  
BRANCH  10  11
HETATM   11  C   UNL     1     -10.928   7.972  70.526  1.00  0.00    -0.247 C  
BRANCH  11  12
HETATM   12  C   UNL     1     -10.303   7.325  71.751  1.00  0.00    -0.215 C  
BRANCH  12  13
HETATM   13  C   UNL     1      -8.998   8.039  72.098  1.00  0.00    -0.221 C  
BRANCH  13  14
HETATM   14  C   UNL     1      -7.801   7.205  71.665  1.00  0.00    -0.097 C  
BRANCH  14  15
HETATM   15  C   UNL     1      -6.671   7.281  72.688  1.00  0.00    -0.063 C  
BRANCH  15  16
HETATM   16  C   UNL     1      -6.299   5.882  73.168  1.00  0.00    -0.063 C  
BRANCH  16  17
HETATM   17  C   UNL     1      -7.267   4.828  72.641  1.00  0.00    -0.083 C  
HETATM   18  C   UNL     1      -6.552   3.790  71.810  1.00  0.00    -0.019 C  
HETATM   19  O   UNL     1      -5.355   3.767  71.573  1.00  0.00    -0.003 OA 
HETATM   20  O   UNL     1      -7.398   2.847  71.331  1.00  0.00    -0.032 OA 
ENDBRANCH  16  17
ENDBRANCH  15  16
ENDBRANCH  14  15
ENDBRANCH  13  14
ENDBRANCH  12  13
ENDBRANCH  11  12
ENDBRANCH  10  11
ENDBRANCH   8   9
ENDBRANCH   7   8
ENDBRANCH   5   6
ENDBRANCH   4   5
ENDBRANCH   3   4
ENDBRANCH   2   3
TORSDOF 13
ENDMDL
MODEL      476
REMARK 921   NORMALIZED FREE ENERGY PREDICTED BY IDOCK:   -1.13 KCAL/MOL
REMARK 922        TOTAL FREE ENERGY PREDICTED BY IDOCK:   -3.73 KCAL/MOL
REMARK 923 INTER-LIGAND FREE ENERGY PREDICTED BY IDOCK:   -2.29 KCAL/MOL
REMARK 924 INTRA-LIGAND FREE ENERGY PREDICTED BY IDOCK:   -1.44 KCAL/MOL
REMARK 927      BINDING AFFINITY PREDICTED BY RF-SCORE:    0.00 PKD
ROOT
HETATM    1  C   UNL     1      -5.760   4.421  64.023  1.00  0.00    -0.014 C  
HETATM    2  C   UNL     1      -5.922   5.830  63.480  1.00  0.00    -0.021 C  
ENDROOT
BRANCH   2   3
HETATM    3  C   UNL     1      -7.230   6.453  63.952  1.00  0.00    -0.063 C  
BRANCH   3   4
HETATM    4  C   UNL     1      -8.042   6.988  62.774  1.00  0.00    -0.054 C  
BRANCH   4   5
HETATM    5  C   UNL     1      -7.731   8.464  62.566  1.00  0.00    -0.125 C  
BRANCH   5   6
HETATM    6  C   UNL     1      -8.954   9.329  62.515  1.00  0.00    -0.186 C  
HETATM    7  C   UNL     1      -9.301  10.148  63.520  1.00  0.00    -0.333 C  
BRANCH   7   8
HETATM    8  C   UNL     1      -8.540  10.278  64.807  1.00  0.00    -0.193 C  
BRANCH   8   9
HETATM    9  C   UNL     1      -9.424  10.074  66.001  1.00  0.00    -0.251 C  
HETATM   10  C   UNL     1      -9.556   8.906  66.650  1.00  0.00    -0.281 C  
BRANCH  10  11
HETATM   11  C   UNL     1      -8.843   7.661  66.220  1.00  0.00    -0.182 C  
BRANCH  11  12
HETATM   12  C   UNL     1      -7.531   7.438  66.955  1.00  0.00    -0.098 C  
BRANCH  12  13
HETATM   13  C   UNL     1      -7.780   6.591  68.201  1.00  0.00    -0.105 C  
BRANCH  13  14
HETATM   14  C   UNL     1      -7.635   7.435  69.459  1.00  0.00    -0.099 C  
BRANCH  14  15
HETATM   15  C   UNL     1      -6.201   7.415  69.980  1.00  0.00    -0.027 C  
BRANCH  15  16
HETATM   16  C   UNL     1      -5.708   8.838  70.221  1.00  0.00    -0.027 C  
BRANCH  16  17
HETATM   17  C   UNL     1      -6.718   9.875  69.743  1.00  0.00    -0.076 C  
HETATM   18  C   UNL     1      -6.234  10.585  68.502  1.00  0.00    -0.046 C  
HETATM   19  O   UNL     1      -5.176  10.380  67.931  1.00  0.00    -0.038 OA 
HETATM   20  O   UNL     1      -7.119  11.513  68.065  1.00  0.00    -0.073 OA 
ENDBRANCH  16  17
ENDBRANCH  15  16
ENDBRANCH  14  15
ENDBRANCH  13  14
ENDBRANCH  12  13
ENDBRANCH  11  12
ENDBRANCH  10  11
ENDBRANCH   8   9
ENDBRANCH   7   8
ENDBRANCH   5   6
ENDBRANCH   4   5
ENDBRANCH   3   4
ENDBRANCH   2   3
TORSDOF 13
ENDMDL
MODEL      477
REMARK 921   NORMALIZED FREE ENERGY PREDICTED BY IDOCK:   -1.01 KCAL/MOL
REMARK 922        TOTAL FREE ENERGY PREDICTED BY IDOCK:   -3.52 KCAL/MOL
REMARK 923 INTER-LIGAND FREE ENERGY PREDICTED BY IDOCK:   -2.04 KCAL/MOL
REMARK 924 INTRA-LIGAND FREE ENERGY PREDICTED BY IDOCK:   -1.48 KCAL/MOL
REMARK 927      BINDING AFFINITY PREDICTED BY RF-SCORE:    0.00 PKD
ROOT
HETATM    1  C   UNL     1      -5.589   4.394  64.137  1.00  0.00    -0.014 C  
HETATM    2  C   UNL     1      -5.648   5.878  63.823  1.00  0.00    -0.017 C  
ENDROOT
BRANCH   2   3
HETATM    3  C   UNL     1      -6.813   6.546  64.542  1.00  0.00    -0.046 C  
BRANCH   3   4
HETATM    4  C   UNL     1      -7.754   7.230  63.552  1.00  0.00    -0.123 C  
BRANCH   4   5
HETATM    5  C   UNL     1      -7.362   8.693  63.399  1.00  0.00    -0.102 C  
BRANCH   5   6
HETATM    6  C   UNL     1      -8.462   9.645  63.760  1.00  0.00    -0.190 C  
HETATM    7  C   UNL     1      -8.435  10.389  64.877  1.00  0.00    -0.179 C  
BRANCH   7   8
HETATM    8  C   UNL     1      -7.338  10.341  65.899  1.00  0.00    -0.131 C  
BRANCH   8   9
HETATM    9  C   UNL     1      -7.848  10.623  67.280  1.00  0.00    -0.112 C  
HETATM   10  C   UNL     1      -8.064   9.680  68.211  1.00  0.00    -0.105 C  
BRANCH  10  11
HETATM   11  C   UNL     1      -7.839   8.222  67.947  1.00  0.00    -0.114 C  
BRANCH  11  12
HETATM   12  C   UNL     1      -6.374   7.821  68.014  1.00  0.00    -0.050 C  
BRANCH  12  13
HETATM   13  C   UNL     1      -5.922   7.774  69.472  1.00  0.00    -0.030 C  
BRANCH  13  14
HETATM   14  C   UNL     1      -6.430   6.509  70.148  1.00  0.00    -0.040 C  
BRANCH  14  15
HETATM   15  C   UNL     1      -6.737   6.753  71.623  1.00  0.00    -0.061 C  
BRANCH  15  16
HETATM   16  C   UNL     1      -7.793   5.765  72.112  1.00  0.00    -0.103 C  
BRANCH  16  17
HETATM   17  C   UNL     1      -8.156   4.748  71.035  1.00  0.00    -0.088 C  
HETATM   18  C   UNL     1      -9.608   4.858  70.640  1.00  0.00    -0.186 C  
HETATM   19  O   UNL     1     -10.415   5.648  71.102  1.00  0.00    -0.221 OA 
HETATM   20  O   UNL     1      -9.948   3.958  69.686  1.00  0.00    -0.129 OA 
ENDBRANCH  16  17
ENDBRANCH  15  16
ENDBRANCH  14  15
ENDBRANCH  13  14
ENDBRANCH  12  13
ENDBRANCH  11  12
ENDBRANCH  10  11
ENDBRANCH   8   9
ENDBRANCH   7   8
ENDBRANCH   5   6
ENDBRANCH   4   5
ENDBRANCH   3   4
ENDBRANCH   2   3
TORSDOF 13
ENDMDL
MODEL      478
REMARK 921   NORMALIZED FREE ENERGY PREDICTED BY IDOCK:   -0.92 KCAL/MOL
REMARK 922        TOTAL FREE ENERGY PREDICTED BY IDOCK:   -3.36 KCAL/MOL
REMARK 923 INTER-LIGAND FREE ENERGY PREDICTED BY IDOCK:   -3.74 KCAL/MOL
REMARK 924 INTRA-LIGAND FREE ENERGY PREDICTED BY IDOCK:    0.38 KCAL/MOL
REMARK 927      BINDING AFFINITY PREDICTED BY RF-SCORE:    0.00 PKD
ROOT
HETATM    1  C   UNL     1     -12.069  14.588  64.535  1.00  0.00    -0.501 C  
HETATM    2  C   UNL     1     -12.357  13.098  64.488  1.00  0.00    -0.447 C  
ENDROOT
BRANCH   2   3
HETATM    3  C   UNL     1     -11.067  12.288  64.500  1.00  0.00    -0.368 C  
BRANCH   3   4
HETATM    4  C   UNL     1     -11.016  11.348  65.703  1.00  0.00    -0.254 C  
BRANCH   4   5
HETATM    5  C   UNL     1      -9.933  11.809  66.668  1.00  0.00    -0.224 C  
BRANCH   5   6
HETATM    6  C   UNL     1      -8.575  11.263  66.344  1.00  0.00    -0.174 C  
HETATM    7  C   UNL     1      -7.951  10.367  67.126  1.00  0.00    -0.115 C  
BRANCH   7   8
HETATM    8  C   UNL     1      -8.511   9.830  68.410  1.00  0.00    -0.114 C  
BRANCH   8   9
HETATM    9  C   UNL     1      -8.991   8.418  68.262  1.00  0.00    -0.139 C  
HETATM   10  C   UNL     1     -10.022   7.896  68.946  1.00  0.00    -0.194 C  
BRANCH  10  11
HETATM   11  C   UNL     1     -10.791   8.680  69.965  1.00  0.00    -0.226 C  
BRANCH  11  12
HETATM   12  C   UNL     1     -10.980   7.934  71.276  1.00  0.00    -0.266 C  
BRANCH  12  13
HETATM   13  C   UNL     1      -9.648   7.331  71.719  1.00  0.00    -0.163 C  
BRANCH  13  14
HETATM   14  C   UNL     1      -9.631   5.831  71.466  1.00  0.00    -0.181 C  
BRANCH  14  15
HETATM   15  C   UNL     1      -8.239   5.350  71.066  1.00  0.00    -0.118 C  
BRANCH  15  16
HETATM   16  C   UNL     1      -7.233   6.491  71.186  1.00  0.00    -0.078 C  
BRANCH  16  17
HETATM   17  C   UNL     1      -6.292   6.291  72.370  1.00  0.00    -0.054 C  
HETATM   18  C   UNL     1      -6.472   4.928  72.993  1.00  0.00    -0.051 C  
HETATM   19  O   UNL     1      -7.259   4.073  72.622  1.00  0.00    -0.058 OA 
HETATM   20  O   UNL     1      -5.645   4.736  74.049  1.00  0.00    -0.016 OA 
ENDBRANCH  16  17
ENDBRANCH  15  16
ENDBRANCH  14  15
ENDBRANCH  13  14
ENDBRANCH  12  13
ENDBRANCH  11  12
ENDBRANCH  10  11
ENDBRANCH   8   9
ENDBRANCH   7   8
ENDBRANCH   5   6
ENDBRANCH   4   5
ENDBRANCH   3   4
ENDBRANCH   2   3
TORSDOF 13
ENDMDL
MODEL      479
REMARK 921   NORMALIZED FREE ENERGY PREDICTED BY IDOCK:   -0.83 KCAL/MOL
REMARK 922        TOTAL FREE ENERGY PREDICTED BY IDOCK:   -3.21 KCAL/MOL
REMARK 923 INTER-LIGAND FREE ENERGY PREDICTED BY IDOCK:   -3.68 KCAL/MOL
REMARK 924 INTRA-LIGAND FREE ENERGY PREDICTED BY IDOCK:    0.47 KCAL/MOL
REMARK 927      BINDING AFFINITY PREDICTED BY RF-SCORE:    0.00 PKD
ROOT
HETATM    1  C   UNL     1     -13.111  16.656  73.123  1.00  0.00     0.396 C  
HETATM    2  C   UNL     1     -12.643  15.471  73.949  1.00  0.00    -0.767 C  
ENDROOT
BRANCH   2   3
HETATM    3  C   UNL     1     -12.396  14.252  73.070  1.00  0.00    -0.100 C  
BRANCH   3   4
HETATM    4  C   UNL     1     -11.907  14.662  71.682  1.00  0.00    -0.324 C  
BRANCH   4   5
HETATM    5  C   UNL     1     -13.034  14.497  70.672  1.00  0.00    -0.358 C  
BRANCH   5   6
HETATM    6  C   UNL     1     -12.550  14.288  69.268  1.00  0.00     0.123 C  
HETATM    7  C   UNL     1     -11.736  15.158  68.648  1.00  0.00    -0.364 C  
BRANCH   7   8
HETATM    8  C   UNL     1     -11.242  16.436  69.259  1.00  0.00    -0.272 C  
BRANCH   8   9
HETATM    9  C   UNL     1     -10.365  17.203  68.314  1.00  0.00    -0.354 C  
HETATM   10  C   UNL     1      -9.130  16.821  67.953  1.00  0.00    -0.224 C  
BRANCH  10  11
HETATM   11  C   UNL     1      -8.481  15.582  68.491  1.00  0.00    -0.163 C  
BRANCH  11  12
HETATM   12  C   UNL     1      -8.067  14.604  67.404  1.00  0.00    -0.216 C  
BRANCH  12  13
HETATM   13  C   UNL     1      -9.307  14.097  66.671  1.00  0.00    -0.299 C  
BRANCH  13  14
HETATM   14  C   UNL     1      -9.434  12.588  66.816  1.00  0.00    -0.231 C  
BRANCH  14  15
HETATM   15  C   UNL     1      -8.066  11.923  66.933  1.00  0.00    -0.146 C  
BRANCH  15  16
HETATM   16  C   UNL     1      -8.175  10.433  66.624  1.00  0.00    -0.128 C  
BRANCH  16  17
HETATM   17  C   UNL     1      -7.473   9.585  67.679  1.00  0.00    -0.091 C  
HETATM   18  C   UNL     1      -7.775  10.078  69.073  1.00  0.00    -0.094 C  
HETATM   19  O   UNL     1      -8.485  11.029  69.354  1.00  0.00    -0.008 OA 
HETATM   20  O   UNL     1      -7.156   9.336  70.023  1.00  0.00    -0.055 OA 
ENDBRANCH  16  17
ENDBRANCH  15  16
ENDBRANCH  14  15
ENDBRANCH  13  14
ENDBRANCH  12  13
ENDBRANCH  11  12
ENDBRANCH  10  11
ENDBRANCH   8   9
ENDBRANCH   7   8
ENDBRANCH   5   6
ENDBRANCH   4   5
ENDBRANCH   3   4
ENDBRANCH   2   3
TORSDOF 13
ENDMDL
MODEL      480
REMARK 921   NORMALIZED FREE ENERGY PREDICTED BY IDOCK:   -0.71 KCAL/MOL
REMARK 922        TOTAL FREE ENERGY PREDICTED BY IDOCK:   -3.00 KCAL/MOL
REMARK 923 INTER-LIGAND FREE ENERGY PREDICTED BY IDOCK:   -3.24 KCAL/MOL
REMARK 924 INTRA-LIGAND FREE ENERGY PREDICTED BY IDOCK:    0.24 KCAL/MOL
REMARK 927      BINDING AFFINITY PREDICTED BY RF-SCORE:    0.00 PKD
ROOT
HETATM    1  C   UNL     1      -6.157  14.503  72.025  1.00  0.00     0.367 C  
HETATM    2  C   UNL     1      -5.915  14.748  70.546  1.00  0.00    -0.156 C  
ENDROOT
BRANCH   2   3
HETATM    3  C   UNL     1      -5.156  13.589  69.913  1.00  0.00    -0.083 C  
BRANCH   3   4
HETATM    4  C   UNL     1      -5.367  12.297  70.700  1.00  0.00    -0.153 C  
BRANCH   4   5
HETATM    5  C   UNL     1      -6.187  11.319  69.869  1.00  0.00    -0.137 C  
BRANCH   5   6
HETATM    6  C   UNL     1      -6.140  11.603  68.398  1.00  0.00    -0.049 C  
HETATM    7  C   UNL     1      -6.875  10.918  67.507  1.00  0.00    -0.079 C  
BRANCH   7   8
HETATM    8  C   UNL     1      -7.795   9.787  67.860  1.00  0.00    -0.090 C  
BRANCH   8   9
HETATM    9  C   UNL     1      -8.768  10.174  68.932  1.00  0.00    -0.149 C  
HETATM   10  C   UNL     1     -10.099  10.035  68.829  1.00  0.00    -0.197 C  
BRANCH  10  11
HETATM   11  C   UNL     1     -10.758   9.495  67.596  1.00  0.00    -0.314 C  
BRANCH  11  12
HETATM   12  C   UNL     1      -9.923   8.444  66.882  1.00  0.00    -0.341 C  
BRANCH  12  13
HETATM   13  C   UNL     1     -10.586   7.076  67.029  1.00  0.00    -0.412 C  
BRANCH  13  14
HETATM   14  C   UNL     1     -11.090   6.876  68.450  1.00  0.00    -0.142 C  
BRANCH  14  15
HETATM   15  C   UNL     1     -10.028   6.222  69.329  1.00  0.00    -0.186 C  
BRANCH  15  16
HETATM   16  C   UNL     1     -10.688   5.454  70.471  1.00  0.00    -0.266 C  
BRANCH  16  17
HETATM   17  C   UNL     1     -10.553   6.190  71.799  1.00  0.00    -0.268 C  
HETATM   18  C   UNL     1     -10.781   5.263  72.968  1.00  0.00    -0.257 C  
HETATM   19  O   UNL     1     -11.042   4.074  72.895  1.00  0.00    -0.116 OA 
HETATM   20  O   UNL     1     -10.668   5.903  74.157  1.00  0.00    -0.210 OA 
ENDBRANCH  16  17
ENDBRANCH  15  16
ENDBRANCH  14  15
ENDBRANCH  13  14
ENDBRANCH  12  13
ENDBRANCH  11  12
ENDBRANCH  10  11
ENDBRANCH   8   9
ENDBRANCH   7   8
ENDBRANCH   5   6
ENDBRANCH   4   5
ENDBRANCH   3   4
ENDBRANCH   2   3
TORSDOF 13
ENDMDL
MODEL      481
REMARK 921   NORMALIZED FREE ENERGY PREDICTED BY IDOCK:   -0.69 KCAL/MOL
REMARK 922        TOTAL FREE ENERGY PREDICTED BY IDOCK:   -2.96 KCAL/MOL
REMARK 923 INTER-LIGAND FREE ENERGY PREDICTED BY IDOCK:   -2.49 KCAL/MOL
REMARK 924 INTRA-LIGAND FREE ENERGY PREDICTED BY IDOCK:   -0.47 KCAL/MOL
REMARK 927      BINDING AFFINITY PREDICTED BY RF-SCORE:    0.00 PKD
ROOT
HETATM    1  C   UNL     1      -5.879  14.228  71.865  1.00  0.00    -0.053 C  
HETATM    2  C   UNL     1      -5.878  14.455  70.364  1.00  0.00    -0.158 C  
ENDROOT
BRANCH   2   3
HETATM    3  C   UNL     1      -5.309  13.250  69.626  1.00  0.00    -0.089 C  
BRANCH   3   4
HETATM    4  C   UNL     1      -5.546  11.961  70.410  1.00  0.00    -0.155 C  
BRANCH   4   5
HETATM    5  C   UNL     1      -6.489  11.054  69.631  1.00  0.00    -0.123 C  
BRANCH   5   6
HETATM    6  C   UNL     1      -6.699  11.490  68.213  1.00  0.00    -0.064 C  
HETATM    7  C   UNL     1      -7.421  10.774  67.336  1.00  0.00    -0.098 C  
BRANCH   7   8
HETATM    8  C   UNL     1      -8.072   9.460  67.651  1.00  0.00    -0.106 C  
BRANCH   8   9
HETATM    9  C   UNL     1      -9.232   9.622  68.588  1.00  0.00    -0.136 C  
HETATM   10  C   UNL     1     -10.486   9.234  68.309  1.00  0.00    -0.260 C  
BRANCH  10  11
HETATM   11  C   UNL     1     -10.864   8.614  66.998  1.00  0.00    -0.024 C  
BRANCH  11  12
HETATM   12  C   UNL     1      -9.841   7.610  66.494  1.00  0.00    -0.242 C  
BRANCH  12  13
HETATM   13  C   UNL     1     -10.418   6.199  66.587  1.00  0.00    -0.267 C  
BRANCH  13  14
HETATM   14  C   UNL     1     -10.980   5.943  67.977  1.00  0.00    -0.252 C  
BRANCH  14  15
HETATM   15  C   UNL     1     -10.037   5.079  68.809  1.00  0.00    -0.200 C  
BRANCH  15  16
HETATM   16  C   UNL     1      -8.793   5.874  69.192  1.00  0.00    -0.117 C  
BRANCH  16  17
HETATM   17  C   UNL     1      -7.523   5.241  68.634  1.00  0.00    -0.071 C  
HETATM   18  C   UNL     1      -6.293   5.753  69.343  1.00  0.00    -0.040 C  
HETATM   19  O   UNL     1      -6.282   6.569  70.250  1.00  0.00    -0.033 OA 
HETATM   20  O   UNL     1      -5.155   5.202  68.857  1.00  0.00     0.000 OA 
ENDBRANCH  16  17
ENDBRANCH  15  16
ENDBRANCH  14  15
ENDBRANCH  13  14
ENDBRANCH  12  13
ENDBRANCH  11  12
ENDBRANCH  10  11
ENDBRANCH   8   9
ENDBRANCH   7   8
ENDBRANCH   5   6
ENDBRANCH   4   5
ENDBRANCH   3   4
ENDBRANCH   2   3
TORSDOF 13
ENDMDL
MODEL      482
REMARK 921   NORMALIZED FREE ENERGY PREDICTED BY IDOCK:   -0.50 KCAL/MOL
REMARK 922        TOTAL FREE ENERGY PREDICTED BY IDOCK:   -2.62 KCAL/MOL
REMARK 923 INTER-LIGAND FREE ENERGY PREDICTED BY IDOCK:   -1.57 KCAL/MOL
REMARK 924 INTRA-LIGAND FREE ENERGY PREDICTED BY IDOCK:   -1.05 KCAL/MOL
REMARK 927      BINDING AFFINITY PREDICTED BY RF-SCORE:    0.00 PKD
ROOT
HETATM    1  C   UNL     1      -5.926  13.558  69.751  1.00  0.00    -0.123 C  
HETATM    2  C   UNL     1      -7.025  14.256  68.969  1.00  0.00    -0.112 C  
ENDROOT
BRANCH   2   3
HETATM    3  C   UNL     1      -8.004  13.248  68.381  1.00  0.00    -0.132 C  
BRANCH   3   4
HETATM    4  C   UNL     1      -7.270  12.132  67.642  1.00  0.00    -0.123 C  
BRANCH   4   5
HETATM    5  C   UNL     1      -7.758  10.779  68.142  1.00  0.00    -0.102 C  
BRANCH   5   6
HETATM    6  C   UNL     1      -8.316  10.824  69.533  1.00  0.00     0.064 C  
HETATM    7  C   UNL     1      -8.297   9.761  70.353  1.00  0.00    -0.106 C  
BRANCH   7   8
HETATM    8  C   UNL     1      -7.751   8.415  69.980  1.00  0.00    -0.090 C  
BRANCH   8   9
HETATM    9  C   UNL     1      -6.413   8.162  70.609  1.00  0.00    -0.036 C  
HETATM   10  C   UNL     1      -5.590   7.163  70.253  1.00  0.00    -0.023 C  
BRANCH  10  11
HETATM   11  C   UNL     1      -5.945   6.166  69.192  1.00  0.00    -0.024 C  
BRANCH  11  12
HETATM   12  C   UNL     1      -5.137   6.337  67.916  1.00  0.00    -0.004 C  
BRANCH  12  13
HETATM   13  C   UNL     1      -6.083   6.518  66.731  1.00  0.00    -0.032 C  
BRANCH  13  14
HETATM   14  C   UNL     1      -7.472   5.997  67.071  1.00  0.00    -0.084 C  
BRANCH  14  15
HETATM   15  C   UNL     1      -8.094   5.258  65.890  1.00  0.00    -0.110 C  
BRANCH  15  16
HETATM   16  C   UNL     1      -8.288   6.212  64.715  1.00  0.00    -0.070 C  
BRANCH  16  17
HETATM   17  C   UNL     1      -8.250   7.670  65.159  1.00  0.00    -0.130 C  
HETATM   18  C   UNL     1      -7.556   8.539  64.138  1.00  0.00    -0.123 C  
HETATM   19  O   UNL     1      -7.077   8.156  63.084  1.00  0.00    -0.084 OA 
HETATM   20  O   UNL     1      -7.511   9.839  64.519  1.00  0.00    -0.122 OA 
ENDBRANCH  16  17
ENDBRANCH  15  16
ENDBRANCH  14  15
ENDBRANCH  13  14
ENDBRANCH  12  13
ENDBRANCH  11  12
ENDBRANCH  10  11
ENDBRANCH   8   9
ENDBRANCH   7   8
ENDBRANCH   5   6
ENDBRANCH   4   5
ENDBRANCH   3   4
ENDBRANCH   2   3
TORSDOF 13
ENDMDL
MODEL      483
REMARK 921   NORMALIZED FREE ENERGY PREDICTED BY IDOCK:   -0.38 KCAL/MOL
REMARK 922        TOTAL FREE ENERGY PREDICTED BY IDOCK:   -2.42 KCAL/MOL
REMARK 923 INTER-LIGAND FREE ENERGY PREDICTED BY IDOCK:   -1.25 KCAL/MOL
REMARK 924 INTRA-LIGAND FREE ENERGY PREDICTED BY IDOCK:   -1.17 KCAL/MOL
REMARK 927      BINDING AFFINITY PREDICTED BY RF-SCORE:    0.00 PKD
ROOT
HETATM    1  C   UNL     1      -5.368   3.556  64.254  1.00  0.00    -0.009 C  
HETATM    2  C   UNL     1      -5.197   5.064  64.308  1.00  0.00    -0.009 C  
ENDROOT
BRANCH   2   3
HETATM    3  C   UNL     1      -6.525   5.757  64.587  1.00  0.00    -0.037 C  
BRANCH   3   4
HETATM    4  C   UNL     1      -6.673   7.024  63.747  1.00  0.00    -0.044 C  
BRANCH   4   5
HETATM    5  C   UNL     1      -6.788   8.235  64.662  1.00  0.00    -0.068 C  
BRANCH   5   6
HETATM    6  C   UNL     1      -7.923   9.147  64.305  1.00  0.00    -0.139 C  
HETATM    7  C   UNL     1      -9.066   9.186  65.008  1.00  0.00    -0.215 C  
BRANCH   7   8
HETATM    8  C   UNL     1      -9.357   8.321  66.199  1.00  0.00    -0.254 C  
BRANCH   8   9
HETATM    9  C   UNL     1     -10.029   7.039  65.807  1.00  0.00     0.805 C  
HETATM   10  C   UNL     1     -10.896   6.374  66.586  1.00  0.00    -0.252 C  
BRANCH  10  11
HETATM   11  C   UNL     1     -11.263   6.840  67.962  1.00  0.00    -0.159 C  
BRANCH  11  12
HETATM   12  C   UNL     1     -10.518   6.103  69.063  1.00  0.00    -0.305 C  
BRANCH  12  13
HETATM   13  C   UNL     1      -9.626   7.082  69.823  1.00  0.00    -0.151 C  
BRANCH  13  14
HETATM   14  C   UNL     1      -8.244   7.149  69.188  1.00  0.00    -0.122 C  
BRANCH  14  15
HETATM   15  C   UNL     1      -7.145   7.126  70.245  1.00  0.00    -0.066 C  
BRANCH  15  16
HETATM   16  C   UNL     1      -6.577   5.717  70.386  1.00  0.00    -0.046 C  
BRANCH  16  17
HETATM   17  C   UNL     1      -7.493   4.674  69.756  1.00  0.00    -0.055 C  
HETATM   18  C   UNL     1      -6.828   3.992  68.585  1.00  0.00    -0.047 C  
HETATM   19  O   UNL     1      -5.704   4.222  68.171  1.00  0.00    -0.019 OA 
HETATM   20  O   UNL     1      -7.631   3.063  68.011  1.00  0.00    -0.056 OA 
ENDBRANCH  16  17
ENDBRANCH  15  16
ENDBRANCH  14  15
ENDBRANCH  13  14
ENDBRANCH  12  13
ENDBRANCH  11  12
ENDBRANCH  10  11
ENDBRANCH   8   9
ENDBRANCH   7   8
ENDBRANCH   5   6
ENDBRANCH   4   5
ENDBRANCH   3   4
ENDBRANCH   2   3
TORSDOF 13
ENDMDL
MODEL      484
REMARK 921   NORMALIZED FREE ENERGY PREDICTED BY IDOCK:    0.57 KCAL/MOL
REMARK 922        TOTAL FREE ENERGY PREDICTED BY IDOCK:   -0.75 KCAL/MOL
REMARK 923 INTER-LIGAND FREE ENERGY PREDICTED BY IDOCK:   -0.68 KCAL/MOL
REMARK 924 INTRA-LIGAND FREE ENERGY PREDICTED BY IDOCK:   -0.07 KCAL/MOL
REMARK 927      BINDING AFFINITY PREDICTED BY RF-SCORE:    0.00 PKD
ROOT
HETATM    1  C   UNL     1      -5.935  13.534  69.761  1.00  0.00    -0.123 C  
HETATM    2  C   UNL     1      -7.017  14.187  68.919  1.00  0.00    -0.109 C  
ENDROOT
BRANCH   2   3
HETATM    3  C   UNL     1      -8.004  13.152  68.394  1.00  0.00    -0.130 C  
BRANCH   3   4
HETATM    4  C   UNL     1      -7.277  11.932  67.832  1.00  0.00    -0.095 C  
BRANCH   4   5
HETATM    5  C   UNL     1      -7.870  10.662  68.427  1.00  0.00    -0.113 C  
BRANCH   5   6
HETATM    6  C   UNL     1      -8.571  10.888  69.733  1.00  0.00     0.554 C  
HETATM    7  C   UNL     1      -8.692   9.927  70.662  1.00  0.00     0.325 C  
BRANCH   7   8
HETATM    8  C   UNL     1      -8.177   8.527  70.504  1.00  0.00    -0.116 C  
BRANCH   8   9
HETATM    9  C   UNL     1      -6.939   8.292  71.317  1.00  0.00    -0.061 C  
HETATM   10  C   UNL     1      -6.138   7.224  71.181  1.00  0.00    -0.036 C  
BRANCH  10  11
HETATM   11  C   UNL     1      -6.422   6.125  70.203  1.00  0.00    -0.043 C  
BRANCH  11  12
HETATM   12  C   UNL     1      -5.467   6.114  69.020  1.00  0.00    -0.008 C  
BRANCH  12  13
HETATM   13  C   UNL     1      -6.261   6.221  67.720  1.00  0.00    -0.032 C  
BRANCH  13  14
HETATM   14  C   UNL     1      -6.445   7.679  67.324  1.00  0.00    -0.058 C  
BRANCH  14  15
HETATM   15  C   UNL     1      -7.844   7.932  66.770  1.00  0.00    -0.103 C  
BRANCH  15  16
HETATM   16  C   UNL     1      -8.096   7.051  65.550  1.00  0.00    -0.132 C  
BRANCH  16  17
HETATM   17  C   UNL     1      -7.532   5.647  65.742  1.00  0.00    -0.078 C  
HETATM   18  C   UNL     1      -8.448   4.601  65.154  1.00  0.00    -0.130 C  
HETATM   19  O   UNL     1      -9.508   4.817  64.591  1.00  0.00    -0.105 OA 
HETATM   20  O   UNL     1      -7.963   3.346  65.318  1.00  0.00    -0.085 OA 
ENDBRANCH  16  17
ENDBRANCH  15  16
ENDBRANCH  14  15
ENDBRANCH  13  14
ENDBRANCH  12  13
ENDBRANCH  11  12
ENDBRANCH  10  11
ENDBRANCH   8   9
ENDBRANCH   7   8
ENDBRANCH   5   6
ENDBRANCH   4   5
ENDBRANCH   3   4
ENDBRANCH   2   3
TORSDOF 13
ENDMDL
MODEL      485
REMARK 921   NORMALIZED FREE ENERGY PREDICTED BY IDOCK:    0.68 KCAL/MOL
REMARK 922        TOTAL FREE ENERGY PREDICTED BY IDOCK:   -0.54 KCAL/MOL
REMARK 923 INTER-LIGAND FREE ENERGY PREDICTED BY IDOCK:   -1.02 KCAL/MOL
REMARK 924 INTRA-LIGAND FREE ENERGY PREDICTED BY IDOCK:    0.48 KCAL/MOL
REMARK 927      BINDING AFFINITY PREDICTED BY RF-SCORE:    0.00 PKD
ROOT
HETATM    1  C   UNL     1      -6.801  14.708  72.367  1.00  0.00     2.351 C  
HETATM    2  C   UNL     1      -5.927  14.925  71.144  1.00  0.00     0.109 C  
ENDROOT
BRANCH   2   3
HETATM    3  C   UNL     1      -5.176  13.653  70.773  1.00  0.00    -0.124 C  
BRANCH   3   4
HETATM    4  C   UNL     1      -6.020  12.411  71.054  1.00  0.00     0.403 C  
BRANCH   4   5
HETATM    5  C   UNL     1      -6.388  11.734  69.740  1.00  0.00    -0.125 C  
BRANCH   5   6
HETATM    6  C   UNL     1      -5.288  11.772  68.722  1.00  0.00    -0.049 C  
HETATM    7  C   UNL     1      -5.518  11.638  67.407  1.00  0.00    -0.080 C  
BRANCH   7   8
HETATM    8  C   UNL     1      -6.872  11.411  66.803  1.00  0.00    -0.132 C  
BRANCH   8   9
HETATM    9  C   UNL     1      -7.391  10.035  67.096  1.00  0.00    -0.091 C  
HETATM   10  C   UNL     1      -8.444   9.779  67.888  1.00  0.00    -0.125 C  
BRANCH  10  11
HETATM   11  C   UNL     1      -9.201  10.862  68.595  1.00  0.00    -0.187 C  
BRANCH  11  12
HETATM   12  C   UNL     1      -9.060  12.222  67.931  1.00  0.00    -0.190 C  
BRANCH  12  13
HETATM   13  C   UNL     1     -10.349  12.566  67.189  1.00  0.00    -0.230 C  
BRANCH  13  14
HETATM   14  C   UNL     1     -10.838  11.371  66.385  1.00  0.00    -0.323 C  
BRANCH  14  15
HETATM   15  C   UNL     1     -11.106  11.752  64.931  1.00  0.00    -0.345 C  
BRANCH  15  16
HETATM   16  C   UNL     1     -12.260  12.747  64.851  1.00  0.00    -0.519 C  
BRANCH  16  17
HETATM   17  C   UNL     1     -11.975  13.862  63.850  1.00  0.00    -0.372 C  
HETATM   18  C   UNL     1     -11.749  15.182  64.546  1.00  0.00    -0.328 C  
HETATM   19  O   UNL     1     -11.782  15.368  65.751  1.00  0.00    -0.038 OA 
HETATM   20  O   UNL     1     -11.497  16.185  63.670  1.00  0.00    -0.625 OA 
ENDBRANCH  16  17
ENDBRANCH  15  16
ENDBRANCH  14  15
ENDBRANCH  13  14
ENDBRANCH  12  13
ENDBRANCH  11  12
ENDBRANCH  10  11
ENDBRANCH   8   9
ENDBRANCH   7   8
ENDBRANCH   5   6
ENDBRANCH   4   5
ENDBRANCH   3   4
ENDBRANCH   2   3
TORSDOF 13
ENDMDL
MODEL      486
REMARK 921   NORMALIZED FREE ENERGY PREDICTED BY IDOCK:    0.68 KCAL/MOL
REMARK 922        TOTAL FREE ENERGY PREDICTED BY IDOCK:   -0.54 KCAL/MOL
REMARK 923 INTER-LIGAND FREE ENERGY PREDICTED BY IDOCK:   -1.16 KCAL/MOL
REMARK 924 INTRA-LIGAND FREE ENERGY PREDICTED BY IDOCK:    0.61 KCAL/MOL
REMARK 927      BINDING AFFINITY PREDICTED BY RF-SCORE:    0.00 PKD
ROOT
HETATM    1  C   UNL     1      -6.112  11.322  69.730  1.00  0.00    -0.112 C  
HETATM    2  C   UNL     1      -6.802  12.662  69.548  1.00  0.00     0.099 C  
ENDROOT
BRANCH   2   3
HETATM    3  C   UNL     1      -7.974  12.550  68.582  1.00  0.00    -0.029 C  
BRANCH   3   4
HETATM    4  C   UNL     1      -7.507  12.109  67.196  1.00  0.00    -0.129 C  
BRANCH   4   5
HETATM    5  C   UNL     1      -8.306  10.893  66.748  1.00  0.00    -0.138 C  
BRANCH   5   6
HETATM    6  C   UNL     1      -7.892   9.624  67.430  1.00  0.00    -0.095 C  
HETATM    7  C   UNL     1      -8.317   8.416  67.027  1.00  0.00    -0.114 C  
BRANCH   7   8
HETATM    8  C   UNL     1      -9.262   8.190  65.884  1.00  0.00    -0.158 C  
BRANCH   8   9
HETATM    9  C   UNL     1      -8.533   7.896  64.607  1.00  0.00     0.029 C  
HETATM   10  C   UNL     1      -7.221   7.622  64.534  1.00  0.00    -0.076 C  
BRANCH  10  11
HETATM   11  C   UNL     1      -6.333   7.612  65.740  1.00  0.00    -0.042 C  
BRANCH  11  12
HETATM   12  C   UNL     1      -5.892   6.215  66.147  1.00  0.00    -0.024 C  
BRANCH  12  13
HETATM   13  C   UNL     1      -5.758   6.142  67.666  1.00  0.00    -0.012 C  
BRANCH  13  14
HETATM   14  C   UNL     1      -6.971   5.456  68.277  1.00  0.00    -0.061 C  
BRANCH  14  15
HETATM   15  C   UNL     1      -6.609   4.737  69.574  1.00  0.00    -0.036 C  
BRANCH  15  16
HETATM   16  C   UNL     1      -5.738   5.634  70.449  1.00  0.00    -0.023 C  
BRANCH  16  17
HETATM   17  C   UNL     1      -6.470   6.910  70.853  1.00  0.00    -0.048 C  
HETATM   18  C   UNL     1      -6.356   7.164  72.336  1.00  0.00    -0.051 C  
HETATM   19  O   UNL     1      -5.763   6.460  73.137  1.00  0.00    -0.037 OA 
HETATM   20  O   UNL     1      -7.004   8.293  72.713  1.00  0.00    -0.095 OA 
ENDBRANCH  16  17
ENDBRANCH  15  16
ENDBRANCH  14  15
ENDBRANCH  13  14
ENDBRANCH  12  13
ENDBRANCH  11  12
ENDBRANCH  10  11
ENDBRANCH   8   9
ENDBRANCH   7   8
ENDBRANCH   5   6
ENDBRANCH   4   5
ENDBRANCH   3   4
ENDBRANCH   2   3
TORSDOF 13
ENDMDL
MODEL      487
REMARK 921   NORMALIZED FREE ENERGY PREDICTED BY IDOCK:    2.56 KCAL/MOL
REMARK 922        TOTAL FREE ENERGY PREDICTED BY IDOCK:    2.76 KCAL/MOL
REMARK 923 INTER-LIGAND FREE ENERGY PREDICTED BY IDOCK:   -0.66 KCAL/MOL
REMARK 924 INTRA-LIGAND FREE ENERGY PREDICTED BY IDOCK:    3.42 KCAL/MOL
REMARK 927      BINDING AFFINITY PREDICTED BY RF-SCORE:    0.00 PKD
ROOT
HETATM    1  C   UNL     1      -9.015   9.800  67.242  1.00  0.00    -0.146 C  
HETATM    2  C   UNL     1      -9.520  11.065  66.570  1.00  0.00    -0.211 C  
ENDROOT
BRANCH   2   3
HETATM    3  C   UNL     1      -9.876  10.808  65.112  1.00  0.00    -0.333 C  
BRANCH   3   4
HETATM    4  C   UNL     1     -11.287  11.298  64.793  1.00  0.00    -0.043 C  
BRANCH   4   5
HETATM    5  C   UNL     1     -11.345  12.813  64.926  1.00  0.00    -0.341 C  
BRANCH   5   6
HETATM    6  C   UNL     1     -10.137  13.507  64.372  1.00  0.00    -0.050 C  
HETATM    7  C   UNL     1      -9.185  14.036  65.156  1.00  0.00     1.115 C  
BRANCH   7   8
HETATM    8  C   UNL     1      -9.223  14.026  66.656  1.00  0.00    -0.262 C  
BRANCH   8   9
HETATM    9  C   UNL     1      -7.853  14.167  67.249  1.00  0.00    -0.154 C  
HETATM   10  C   UNL     1      -6.926  13.196  67.248  1.00  0.00    -0.021 C  
BRANCH  10  11
HETATM   11  C   UNL     1      -7.184  11.839  66.668  1.00  0.00     0.025 C  
BRANCH  11  12
HETATM   12  C   UNL     1      -5.952  11.215  66.033  1.00  0.00    -0.064 C  
BRANCH  12  13
HETATM   13  C   UNL     1      -6.289  10.734  64.624  1.00  0.00     0.212 C  
BRANCH  13  14
HETATM   14  C   UNL     1      -7.200   9.517  64.678  1.00  0.00    -0.113 C  
BRANCH  14  15
HETATM   15  C   UNL     1      -6.813   8.583  65.820  1.00  0.00    -0.067 C  
BRANCH  15  16
HETATM   16  C   UNL     1      -7.434   7.205  65.609  1.00  0.00    -0.082 C  
BRANCH  16  17
HETATM   17  C   UNL     1      -6.902   6.186  66.610  1.00  0.00    -0.062 C  
HETATM   18  C   UNL     1      -6.061   5.133  65.931  1.00  0.00    -0.030 C  
HETATM   19  O   UNL     1      -5.819   5.075  64.737  1.00  0.00    -0.017 OA 
HETATM   20  O   UNL     1      -5.583   4.217  66.807  1.00  0.00    -0.016 OA 
ENDBRANCH  16  17
ENDBRANCH  15  16
ENDBRANCH  14  15
ENDBRANCH  13  14
ENDBRANCH  12  13
ENDBRANCH  11  12
ENDBRANCH  10  11
ENDBRANCH   8   9
ENDBRANCH   7   8
ENDBRANCH   5   6
ENDBRANCH   4   5
ENDBRANCH   3   4
ENDBRANCH   2   3
TORSDOF 13
ENDMDL
MODEL      488
REMARK 921   NORMALIZED FREE ENERGY PREDICTED BY IDOCK:   12.01 KCAL/MOL
REMARK 922        TOTAL FREE ENERGY PREDICTED BY IDOCK:   19.39 KCAL/MOL
REMARK 923 INTER-LIGAND FREE ENERGY PREDICTED BY IDOCK:   10.08 KCAL/MOL
REMARK 924 INTRA-LIGAND FREE ENERGY PREDICTED BY IDOCK:    9.30 KCAL/MOL
REMARK 927      BINDING AFFINITY PREDICTED BY RF-SCORE:    0.00 PKD
ROOT
HETATM    1  C   UNL     1     -11.749  14.112  66.373  1.00  0.00    -0.404 C  
HETATM    2  C   UNL     1     -12.552  12.911  66.840  1.00  0.00     0.628 C  
ENDROOT
BRANCH   2   3
HETATM    3  C   UNL     1     -11.751  12.061  67.818  1.00  0.00    -0.379 C  
BRANCH   3   4
HETATM    4  C   UNL     1     -10.574  12.845  68.395  1.00  0.00    -0.267 C  
BRANCH   4   5
HETATM    5  C   UNL     1      -9.411  12.821  67.413  1.00  0.00    -0.193 C  
BRANCH   5   6
HETATM    6  C   UNL     1      -8.508  14.012  67.530  1.00  0.00    -0.201 C  
HETATM    7  C   UNL     1      -8.977  15.261  67.676  1.00  0.00    -0.182 C  
BRANCH   7   8
HETATM    8  C   UNL     1     -10.433  15.620  67.712  1.00  0.00    -0.273 C  
BRANCH   8   9
HETATM    9  C   UNL     1     -10.734  16.819  66.863  1.00  0.00    -0.139 C  
HETATM   10  C   UNL     1     -11.928  17.430  66.818  1.00  0.00     2.848 C  
BRANCH  10  11
HETATM   11  C   UNL     1     -13.109  16.948  67.603  1.00  0.00     5.579 C  
BRANCH  11  12
HETATM   12  C   UNL     1     -12.882  16.979  69.106  1.00  0.00     4.802 C  
BRANCH  12  13
HETATM   13  C   UNL     1     -11.805  15.965  69.483  1.00  0.00    -0.310 C  
BRANCH  13  14
HETATM   14  C   UNL     1     -12.369  14.552  69.457  1.00  0.00    -0.247 C  
BRANCH  14  15
HETATM   15  C   UNL     1     -12.736  14.075  70.859  1.00  0.00    -0.420 C  
BRANCH  15  16
HETATM   16  C   UNL     1     -13.979  14.806  71.356  1.00  0.00    -0.512 C  
BRANCH  16  17
HETATM   17  C   UNL     1     -13.635  16.176  71.931  1.00  0.00     0.480 C  
HETATM   18  C   UNL     1     -12.596  16.072  73.021  1.00  0.00    -0.503 C  
HETATM   19  O   UNL     1     -12.077  15.040  73.414  1.00  0.00    -0.384 OA 
HETATM   20  O   UNL     1     -12.281  17.281  73.545  1.00  0.00     0.161 OA 
ENDBRANCH  16  17
ENDBRANCH  15  16
ENDBRANCH  14  15
ENDBRANCH  13  14
ENDBRANCH  12  13
ENDBRANCH  11  12
ENDBRANCH  10  11
ENDBRANCH   8   9
ENDBRANCH   7   8
ENDBRANCH   5   6
ENDBRANCH   4   5
ENDBRANCH   3   4
ENDBRANCH   2   3
TORSDOF 13
ENDMDL
