MODEL        1
REMARK 921   NORMALIZED FREE ENERGY PREDICTED BY IDOCK:   -4.17 KCAL/MOL
REMARK 922        TOTAL FREE ENERGY PREDICTED BY IDOCK:   -5.65 KCAL/MOL
REMARK 923 INTER-LIGAND FREE ENERGY PREDICTED BY IDOCK:   -5.14 KCAL/MOL
REMARK 924 INTRA-LIGAND FREE ENERGY PREDICTED BY IDOCK:   -0.51 KCAL/MOL
REMARK 927      BINDING AFFINITY PREDICTED BY RF-SCORE:    0.00 PKD
ROOT
HETATM    1  O   UNL     1     -12.621  13.846  63.088  1.00  0.00    -0.775 OA 
HETATM    2  C   UNL     1     -12.324  12.659  63.667  1.00  0.00    -0.492 C  
HETATM    3  O   UNL     1     -13.167  11.971  64.219  1.00  0.00    -0.710 OA 
HETATM    4  C   UNL     1     -10.855  12.327  63.557  1.00  0.00    -0.508 C  
ENDROOT
BRANCH   4   5
HETATM    5  C   UNL     1     -10.503  11.004  64.241  1.00  0.00    -0.427 C  
BRANCH   5   6
HETATM    6  C   UNL     1      -9.814  11.194  65.597  1.00  0.00    -0.280 C  
BRANCH   6   7
HETATM    7  C   UNL     1     -10.800  11.257  66.773  1.00  0.00    -0.334 C  
BRANCH   7   8
HETATM    8  C   UNL     1     -10.462  12.343  67.808  1.00  0.00    -0.218 C  
HETATM    9  C   UNL     1     -11.662  13.251  68.117  1.00  0.00    -0.397 C  
HETATM   10  C   UNL     1     -11.981  14.180  66.946  1.00  0.00    -0.449 C  
HETATM   11  S   UNL     1     -10.419  14.825  66.295  1.00  0.00    -0.308 SA 
HETATM   12  S   UNL     1      -9.173  13.492  67.229  1.00  0.00    -0.242 SA 
ENDBRANCH   7   8
ENDBRANCH   6   7
ENDBRANCH   5   6
ENDBRANCH   4   5
TORSDOF 4
ENDMDL
MODEL        2
REMARK 921   NORMALIZED FREE ENERGY PREDICTED BY IDOCK:   -4.08 KCAL/MOL
REMARK 922        TOTAL FREE ENERGY PREDICTED BY IDOCK:   -5.54 KCAL/MOL
REMARK 923 INTER-LIGAND FREE ENERGY PREDICTED BY IDOCK:   -5.33 KCAL/MOL
REMARK 924 INTRA-LIGAND FREE ENERGY PREDICTED BY IDOCK:   -0.21 KCAL/MOL
REMARK 927      BINDING AFFINITY PREDICTED BY RF-SCORE:    0.00 PKD
ROOT
HETATM    1  O   UNL     1     -11.134  17.005  64.351  1.00  0.00    -1.144 OA 
HETATM    2  C   UNL     1     -11.598  15.733  64.361  1.00  0.00    -0.240 C  
HETATM    3  O   UNL     1     -12.655  15.419  63.839  1.00  0.00    -0.725 OA 
HETATM    4  C   UNL     1     -10.671  14.797  65.099  1.00  0.00    -0.433 C  
ENDROOT
BRANCH   4   5
HETATM    5  C   UNL     1     -11.206  13.365  65.148  1.00  0.00    -0.321 C  
BRANCH   5   6
HETATM    6  C   UNL     1     -11.796  12.990  66.513  1.00  0.00    -0.464 C  
BRANCH   6   7
HETATM    7  C   UNL     1     -11.712  14.129  67.540  1.00  0.00    -0.418 C  
BRANCH   7   8
HETATM    8  C   UNL     1     -10.976  13.743  68.835  1.00  0.00    -0.252 C  
HETATM    9  C   UNL     1     -11.939  13.289  69.943  1.00  0.00    -0.400 C  
HETATM   10  C   UNL     1     -12.741  14.462  70.507  1.00  0.00    -0.340 C  
HETATM   11  S   UNL     1     -11.617  15.867  70.715  1.00  0.00    -0.416 SA 
HETATM   12  S   UNL     1     -10.074  15.142  69.577  1.00  0.00    -0.181 SA 
ENDBRANCH   7   8
ENDBRANCH   6   7
ENDBRANCH   5   6
ENDBRANCH   4   5
TORSDOF 4
ENDMDL
MODEL        3
REMARK 921   NORMALIZED FREE ENERGY PREDICTED BY IDOCK:   -4.06 KCAL/MOL
REMARK 922        TOTAL FREE ENERGY PREDICTED BY IDOCK:   -5.52 KCAL/MOL
REMARK 923 INTER-LIGAND FREE ENERGY PREDICTED BY IDOCK:   -5.40 KCAL/MOL
REMARK 924 INTRA-LIGAND FREE ENERGY PREDICTED BY IDOCK:   -0.12 KCAL/MOL
REMARK 927      BINDING AFFINITY PREDICTED BY RF-SCORE:    0.00 PKD
ROOT
HETATM    1  O   UNL     1     -14.153  15.954  72.949  1.00  0.00    -0.561 OA 
HETATM    2  C   UNL     1     -13.683  14.907  72.232  1.00  0.00    -0.458 C  
HETATM    3  O   UNL     1     -13.773  13.754  72.620  1.00  0.00    -0.647 OA 
HETATM    4  C   UNL     1     -13.038  15.349  70.940  1.00  0.00    -0.528 C  
ENDROOT
BRANCH   4   5
HETATM    5  C   UNL     1     -12.472  14.175  70.139  1.00  0.00    -0.391 C  
BRANCH   5   6
HETATM    6  C   UNL     1     -11.575  14.619  68.977  1.00  0.00    -0.328 C  
BRANCH   6   7
HETATM    7  C   UNL     1     -11.702  13.721  67.738  1.00  0.00    -0.393 C  
BRANCH   7   8
HETATM    8  C   UNL     1     -11.871  14.500  66.422  1.00  0.00    -0.349 C  
HETATM    9  C   UNL     1     -12.892  13.844  65.480  1.00  0.00    -0.471 C  
HETATM   10  C   UNL     1     -12.350  12.547  64.879  1.00  0.00    -0.470 C  
HETATM   11  S   UNL     1     -10.626  12.824  64.399  1.00  0.00    -0.398 SA 
HETATM   12  S   UNL     1     -10.338  14.566  65.439  1.00  0.00    -0.406 SA 
ENDBRANCH   7   8
ENDBRANCH   6   7
ENDBRANCH   5   6
ENDBRANCH   4   5
TORSDOF 4
ENDMDL
MODEL        4
REMARK 921   NORMALIZED FREE ENERGY PREDICTED BY IDOCK:   -4.06 KCAL/MOL
REMARK 922        TOTAL FREE ENERGY PREDICTED BY IDOCK:   -5.51 KCAL/MOL
REMARK 923 INTER-LIGAND FREE ENERGY PREDICTED BY IDOCK:   -5.30 KCAL/MOL
REMARK 924 INTRA-LIGAND FREE ENERGY PREDICTED BY IDOCK:   -0.21 KCAL/MOL
REMARK 927      BINDING AFFINITY PREDICTED BY RF-SCORE:    0.00 PKD
ROOT
HETATM    1  O   UNL     1     -12.850  12.863  65.262  1.00  0.00    -0.668 OA 
HETATM    2  C   UNL     1     -12.243  14.028  64.937  1.00  0.00    -0.437 C  
HETATM    3  O   UNL     1     -12.655  14.756  64.049  1.00  0.00    -0.822 OA 
HETATM    4  C   UNL     1     -11.017  14.283  65.781  1.00  0.00    -0.305 C  
ENDROOT
BRANCH   4   5
HETATM    5  C   UNL     1     -10.303  15.580  65.397  1.00  0.00    -0.422 C  
BRANCH   5   6
HETATM    6  C   UNL     1     -10.278  16.611  66.532  1.00  0.00    -0.314 C  
BRANCH   6   7
HETATM    7  C   UNL     1     -10.447  18.056  66.040  1.00  0.00    -0.317 C  
BRANCH   7   8
HETATM    8  C   UNL     1     -10.632  19.079  67.174  1.00  0.00    -0.462 C  
HETATM    9  C   UNL     1      -9.799  20.351  66.957  1.00  0.00    -0.594 C  
HETATM   10  C   UNL     1      -8.307  20.089  67.162  1.00  0.00    -0.332 C  
HETATM   11  S   UNL     1      -8.114  19.042  68.627  1.00  0.00    -0.347 SA 
HETATM   12  S   UNL     1     -10.069  18.450  68.789  1.00  0.00    -0.285 SA 
ENDBRANCH   7   8
ENDBRANCH   6   7
ENDBRANCH   5   6
ENDBRANCH   4   5
TORSDOF 4
ENDMDL
MODEL        5
REMARK 921   NORMALIZED FREE ENERGY PREDICTED BY IDOCK:   -4.05 KCAL/MOL
REMARK 922        TOTAL FREE ENERGY PREDICTED BY IDOCK:   -5.50 KCAL/MOL
REMARK 923 INTER-LIGAND FREE ENERGY PREDICTED BY IDOCK:   -5.30 KCAL/MOL
REMARK 924 INTRA-LIGAND FREE ENERGY PREDICTED BY IDOCK:   -0.21 KCAL/MOL
REMARK 927      BINDING AFFINITY PREDICTED BY RF-SCORE:    0.00 PKD
ROOT
HETATM    1  O   UNL     1     -12.409  15.460  74.479  1.00  0.00    -0.646 OA 
HETATM    2  C   UNL     1     -12.732  15.096  73.216  1.00  0.00    -0.512 C  
HETATM    3  O   UNL     1     -13.533  14.207  72.975  1.00  0.00    -0.661 OA 
HETATM    4  C   UNL     1     -11.976  15.898  72.183  1.00  0.00    -0.612 C  
ENDROOT
BRANCH   4   5
HETATM    5  C   UNL     1     -12.308  15.468  70.753  1.00  0.00    -0.463 C  
BRANCH   5   6
HETATM    6  C   UNL     1     -11.074  15.405  69.844  1.00  0.00    -0.304 C  
BRANCH   6   7
HETATM    7  C   UNL     1     -11.293  16.079  68.481  1.00  0.00    -0.382 C  
BRANCH   7   8
HETATM    8  C   UNL     1      -9.989  16.510  67.787  1.00  0.00    -0.253 C  
HETATM    9  C   UNL     1      -9.174  17.499  68.634  1.00  0.00    -0.267 C  
HETATM   10  C   UNL     1      -9.838  18.874  68.690  1.00  0.00    -0.407 C  
HETATM   11  S   UNL     1     -10.433  19.282  67.028  1.00  0.00    -0.482 SA 
HETATM   12  S   UNL     1     -10.284  17.402  66.225  1.00  0.00    -0.308 SA 
ENDBRANCH   7   8
ENDBRANCH   6   7
ENDBRANCH   5   6
ENDBRANCH   4   5
TORSDOF 4
ENDMDL
MODEL        6
REMARK 921   NORMALIZED FREE ENERGY PREDICTED BY IDOCK:   -4.04 KCAL/MOL
REMARK 922        TOTAL FREE ENERGY PREDICTED BY IDOCK:   -5.49 KCAL/MOL
REMARK 923 INTER-LIGAND FREE ENERGY PREDICTED BY IDOCK:   -5.38 KCAL/MOL
REMARK 924 INTRA-LIGAND FREE ENERGY PREDICTED BY IDOCK:   -0.11 KCAL/MOL
REMARK 927      BINDING AFFINITY PREDICTED BY RF-SCORE:    0.00 PKD
ROOT
HETATM    1  O   UNL     1     -12.607  16.255  74.320  1.00  0.00    -0.687 OA 
HETATM    2  C   UNL     1     -13.074  15.960  73.084  1.00  0.00    -0.572 C  
HETATM    3  O   UNL     1     -14.266  15.870  72.840  1.00  0.00    -0.497 OA 
HETATM    4  C   UNL     1     -11.956  15.745  72.092  1.00  0.00    -0.580 C  
ENDROOT
BRANCH   4   5
HETATM    5  C   UNL     1     -12.474  15.375  70.701  1.00  0.00    -0.478 C  
BRANCH   5   6
HETATM    6  C   UNL     1     -11.412  14.698  69.826  1.00  0.00    -0.325 C  
BRANCH   6   7
HETATM    7  C   UNL     1     -12.010  13.920  68.644  1.00  0.00    -0.401 C  
BRANCH   7   8
HETATM    8  C   UNL     1     -11.762  14.582  67.278  1.00  0.00    -0.406 C  
HETATM    9  C   UNL     1     -12.535  13.893  66.144  1.00  0.00    -0.478 C  
HETATM   10  C   UNL     1     -11.946  12.521  65.814  1.00  0.00    -0.420 C  
HETATM   11  S   UNL     1     -10.140  12.668  65.807  1.00  0.00    -0.262 SA 
HETATM   12  S   UNL     1     -10.020  14.483  66.752  1.00  0.00    -0.272 SA 
ENDBRANCH   7   8
ENDBRANCH   6   7
ENDBRANCH   5   6
ENDBRANCH   4   5
TORSDOF 4
ENDMDL
MODEL        7
REMARK 921   NORMALIZED FREE ENERGY PREDICTED BY IDOCK:   -4.00 KCAL/MOL
REMARK 922        TOTAL FREE ENERGY PREDICTED BY IDOCK:   -5.44 KCAL/MOL
REMARK 923 INTER-LIGAND FREE ENERGY PREDICTED BY IDOCK:   -5.26 KCAL/MOL
REMARK 924 INTRA-LIGAND FREE ENERGY PREDICTED BY IDOCK:   -0.18 KCAL/MOL
REMARK 927      BINDING AFFINITY PREDICTED BY RF-SCORE:    0.00 PKD
ROOT
HETATM    1  O   UNL     1     -12.271  15.113  74.352  1.00  0.00    -0.634 OA 
HETATM    2  C   UNL     1     -12.770  14.895  73.112  1.00  0.00    -0.489 C  
HETATM    3  O   UNL     1     -13.581  14.015  72.879  1.00  0.00    -0.676 OA 
HETATM    4  C   UNL     1     -12.189  15.846  72.092  1.00  0.00    -0.578 C  
ENDROOT
BRANCH   4   5
HETATM    5  C   UNL     1     -12.720  15.584  70.682  1.00  0.00    -0.487 C  
BRANCH   5   6
HETATM    6  C   UNL     1     -11.757  14.755  69.823  1.00  0.00    -0.354 C  
BRANCH   6   7
HETATM    7  C   UNL     1     -11.984  14.935  68.315  1.00  0.00    -0.245 C  
BRANCH   7   8
HETATM    8  C   UNL     1     -11.954  13.616  67.522  1.00  0.00    -0.358 C  
HETATM    9  C   UNL     1     -10.533  13.052  67.378  1.00  0.00    -0.235 C  
HETATM   10  C   UNL     1      -9.691  13.887  66.414  1.00  0.00    -0.297 C  
HETATM   11  S   UNL     1     -10.718  14.306  64.982  1.00  0.00    -0.441 SA 
HETATM   12  S   UNL     1     -12.530  13.814  65.804  1.00  0.00    -0.471 SA 
ENDBRANCH   7   8
ENDBRANCH   6   7
ENDBRANCH   5   6
ENDBRANCH   4   5
TORSDOF 4
ENDMDL
MODEL        8
REMARK 921   NORMALIZED FREE ENERGY PREDICTED BY IDOCK:   -4.00 KCAL/MOL
REMARK 922        TOTAL FREE ENERGY PREDICTED BY IDOCK:   -5.44 KCAL/MOL
REMARK 923 INTER-LIGAND FREE ENERGY PREDICTED BY IDOCK:   -5.28 KCAL/MOL
REMARK 924 INTRA-LIGAND FREE ENERGY PREDICTED BY IDOCK:   -0.16 KCAL/MOL
REMARK 927      BINDING AFFINITY PREDICTED BY RF-SCORE:    0.00 PKD
ROOT
HETATM    1  O   UNL     1     -13.269  12.244  64.273  1.00  0.00    -0.785 OA 
HETATM    2  C   UNL     1     -12.361  12.720  65.157  1.00  0.00    -0.496 C  
HETATM    3  O   UNL     1     -11.251  12.230  65.282  1.00  0.00    -0.309 OA 
HETATM    4  C   UNL     1     -12.899  13.886  65.951  1.00  0.00    -0.387 C  
ENDROOT
BRANCH   4   5
HETATM    5  C   UNL     1     -11.892  14.407  66.978  1.00  0.00    -0.437 C  
BRANCH   5   6
HETATM    6  C   UNL     1     -12.013  13.715  68.341  1.00  0.00    -0.391 C  
BRANCH   6   7
HETATM    7  C   UNL     1     -12.261  14.695  69.497  1.00  0.00    -0.297 C  
BRANCH   7   8
HETATM    8  C   UNL     1     -11.933  14.114  70.883  1.00  0.00    -0.297 C  
HETATM    9  C   UNL     1     -13.082  13.267  71.451  1.00  0.00    -0.361 C  
HETATM   10  C   UNL     1     -14.267  14.136  71.871  1.00  0.00    -0.474 C  
HETATM   11  S   UNL     1     -13.623  15.596  72.728  1.00  0.00    -0.570 SA 
HETATM   12  S   UNL     1     -11.668  15.405  72.143  1.00  0.00    -0.475 SA 
ENDBRANCH   7   8
ENDBRANCH   6   7
ENDBRANCH   5   6
ENDBRANCH   4   5
TORSDOF 4
ENDMDL
MODEL        9
REMARK 921   NORMALIZED FREE ENERGY PREDICTED BY IDOCK:   -3.97 KCAL/MOL
REMARK 922        TOTAL FREE ENERGY PREDICTED BY IDOCK:   -5.40 KCAL/MOL
REMARK 923 INTER-LIGAND FREE ENERGY PREDICTED BY IDOCK:   -5.19 KCAL/MOL
REMARK 924 INTRA-LIGAND FREE ENERGY PREDICTED BY IDOCK:   -0.21 KCAL/MOL
REMARK 927      BINDING AFFINITY PREDICTED BY RF-SCORE:    0.00 PKD
ROOT
HETATM    1  O   UNL     1     -12.684  16.039  74.518  1.00  0.00    -0.683 OA 
HETATM    2  C   UNL     1     -12.876  15.459  73.310  1.00  0.00    -0.518 C  
HETATM    3  O   UNL     1     -13.549  14.451  73.168  1.00  0.00    -0.602 OA 
HETATM    4  C   UNL     1     -12.153  16.193  72.207  1.00  0.00    -0.616 C  
ENDROOT
BRANCH   4   5
HETATM    5  C   UNL     1     -12.334  15.524  70.844  1.00  0.00    -0.474 C  
BRANCH   5   6
HETATM    6  C   UNL     1     -11.072  15.582  69.974  1.00  0.00    -0.326 C  
BRANCH   6   7
HETATM    7  C   UNL     1     -11.358  15.978  68.519  1.00  0.00    -0.382 C  
BRANCH   7   8
HETATM    8  C   UNL     1     -10.506  15.215  67.490  1.00  0.00    -0.258 C  
HETATM    9  C   UNL     1     -11.263  14.954  66.179  1.00  0.00    -0.325 C  
HETATM   10  C   UNL     1     -12.354  13.899  66.360  1.00  0.00    -0.426 C  
HETATM   11  S   UNL     1     -11.681  12.558  67.374  1.00  0.00    -0.324 SA 
HETATM   12  S   UNL     1     -10.027  13.553  68.064  1.00  0.00    -0.254 SA 
ENDBRANCH   7   8
ENDBRANCH   6   7
ENDBRANCH   5   6
ENDBRANCH   4   5
TORSDOF 4
ENDMDL
MODEL       10
REMARK 921   NORMALIZED FREE ENERGY PREDICTED BY IDOCK:   -3.93 KCAL/MOL
REMARK 922        TOTAL FREE ENERGY PREDICTED BY IDOCK:   -5.36 KCAL/MOL
REMARK 923 INTER-LIGAND FREE ENERGY PREDICTED BY IDOCK:   -5.25 KCAL/MOL
REMARK 924 INTRA-LIGAND FREE ENERGY PREDICTED BY IDOCK:   -0.11 KCAL/MOL
REMARK 927      BINDING AFFINITY PREDICTED BY RF-SCORE:    0.00 PKD
ROOT
HETATM    1  O   UNL     1     -13.416  12.174  64.288  1.00  0.00    -0.708 OA 
HETATM    2  C   UNL     1     -12.482  12.812  65.032  1.00  0.00    -0.506 C  
HETATM    3  O   UNL     1     -12.168  12.438  66.150  1.00  0.00    -0.635 OA 
HETATM    4  C   UNL     1     -11.918  14.019  64.320  1.00  0.00    -0.463 C  
ENDROOT
BRANCH   4   5
HETATM    5  C   UNL     1     -10.888  14.767  65.168  1.00  0.00    -0.417 C  
BRANCH   5   6
HETATM    6  C   UNL     1     -11.031  16.292  65.079  1.00  0.00    -0.311 C  
BRANCH   6   7
HETATM    7  C   UNL     1      -9.965  17.047  65.886  1.00  0.00    -0.239 C  
BRANCH   7   8
HETATM    8  C   UNL     1     -10.519  18.247  66.674  1.00  0.00    -0.360 C  
HETATM    9  C   UNL     1      -9.948  19.585  66.183  1.00  0.00    -0.526 C  
HETATM   10  C   UNL     1      -8.479  19.748  66.572  1.00  0.00    -0.345 C  
HETATM   11  S   UNL     1      -8.281  19.178  68.280  1.00  0.00    -0.345 SA 
HETATM   12  S   UNL     1     -10.073  18.195  68.440  1.00  0.00    -0.393 SA 
ENDBRANCH   7   8
ENDBRANCH   6   7
ENDBRANCH   5   6
ENDBRANCH   4   5
TORSDOF 4
ENDMDL
MODEL       11
REMARK 921   NORMALIZED FREE ENERGY PREDICTED BY IDOCK:   -3.89 KCAL/MOL
REMARK 922        TOTAL FREE ENERGY PREDICTED BY IDOCK:   -5.31 KCAL/MOL
REMARK 923 INTER-LIGAND FREE ENERGY PREDICTED BY IDOCK:   -4.95 KCAL/MOL
REMARK 924 INTRA-LIGAND FREE ENERGY PREDICTED BY IDOCK:   -0.36 KCAL/MOL
REMARK 927      BINDING AFFINITY PREDICTED BY RF-SCORE:    0.00 PKD
ROOT
HETATM    1  O   UNL     1     -12.657  13.762  63.259  1.00  0.00    -0.830 OA 
HETATM    2  C   UNL     1     -11.840  13.355  64.258  1.00  0.00    -0.423 C  
HETATM    3  O   UNL     1     -10.642  13.190  64.098  1.00  0.00    -0.414 OA 
HETATM    4  C   UNL     1     -12.592  13.120  65.546  1.00  0.00    -0.468 C  
ENDROOT
BRANCH   4   5
HETATM    5  C   UNL     1     -11.683  12.624  66.672  1.00  0.00    -0.464 C  
BRANCH   5   6
HETATM    6  C   UNL     1     -11.857  13.413  67.975  1.00  0.00    -0.392 C  
BRANCH   6   7
HETATM    7  C   UNL     1     -11.644  14.924  67.801  1.00  0.00    -0.358 C  
BRANCH   7   8
HETATM    8  C   UNL     1     -10.174  15.321  67.581  1.00  0.00    -0.242 C  
HETATM    9  C   UNL     1      -9.661  16.288  68.658  1.00  0.00    -0.235 C  
HETATM   10  C   UNL     1     -10.273  17.680  68.503  1.00  0.00    -0.386 C  
HETATM   11  S   UNL     1     -10.274  18.103  66.741  1.00  0.00    -0.383 SA 
HETATM   12  S   UNL     1      -9.914  16.220  66.017  1.00  0.00    -0.353 SA 
ENDBRANCH   7   8
ENDBRANCH   6   7
ENDBRANCH   5   6
ENDBRANCH   4   5
TORSDOF 4
ENDMDL
MODEL       12
REMARK 921   NORMALIZED FREE ENERGY PREDICTED BY IDOCK:   -3.89 KCAL/MOL
REMARK 922        TOTAL FREE ENERGY PREDICTED BY IDOCK:   -5.31 KCAL/MOL
REMARK 923 INTER-LIGAND FREE ENERGY PREDICTED BY IDOCK:   -5.10 KCAL/MOL
REMARK 924 INTRA-LIGAND FREE ENERGY PREDICTED BY IDOCK:   -0.21 KCAL/MOL
REMARK 927      BINDING AFFINITY PREDICTED BY RF-SCORE:    0.00 PKD
ROOT
HETATM    1  O   UNL     1     -11.613   7.656  72.727  1.00  0.00    -0.337 OA 
HETATM    2  C   UNL     1     -12.387   8.520  72.030  1.00  0.00    -0.365 C  
HETATM    3  O   UNL     1     -13.590   8.363  71.902  1.00  0.00    -0.352 OA 
HETATM    4  C   UNL     1     -11.582   9.651  71.436  1.00  0.00    -0.472 C  
ENDROOT
BRANCH   4   5
HETATM    5  C   UNL     1     -12.444  10.612  70.615  1.00  0.00    -0.462 C  
BRANCH   5   6
HETATM    6  C   UNL     1     -12.696  11.948  71.326  1.00  0.00    -0.401 C  
BRANCH   6   7
HETATM    7  C   UNL     1     -12.188  13.160  70.532  1.00  0.00    -0.405 C  
BRANCH   7   8
HETATM    8  C   UNL     1     -13.133  14.373  70.581  1.00  0.00    -0.223 C  
HETATM    9  C   UNL     1     -12.373  15.707  70.635  1.00  0.00    -0.457 C  
HETATM   10  C   UNL     1     -11.703  15.918  71.992  1.00  0.00    -0.492 C  
HETATM   11  S   UNL     1     -12.869  15.414  73.283  1.00  0.00    -0.571 SA 
HETATM   12  S   UNL     1     -14.175  14.395  72.076  1.00  0.00    -0.560 SA 
ENDBRANCH   7   8
ENDBRANCH   6   7
ENDBRANCH   5   6
ENDBRANCH   4   5
TORSDOF 4
ENDMDL
MODEL       13
REMARK 921   NORMALIZED FREE ENERGY PREDICTED BY IDOCK:   -3.88 KCAL/MOL
REMARK 922        TOTAL FREE ENERGY PREDICTED BY IDOCK:   -5.30 KCAL/MOL
REMARK 923 INTER-LIGAND FREE ENERGY PREDICTED BY IDOCK:   -5.03 KCAL/MOL
REMARK 924 INTRA-LIGAND FREE ENERGY PREDICTED BY IDOCK:   -0.27 KCAL/MOL
REMARK 927      BINDING AFFINITY PREDICTED BY RF-SCORE:    0.00 PKD
ROOT
HETATM    1  O   UNL     1     -14.262  13.509  72.576  1.00  0.00    -0.734 OA 
HETATM    2  C   UNL     1     -13.704  14.702  72.264  1.00  0.00    -0.460 C  
HETATM    3  O   UNL     1     -14.308  15.756  72.377  1.00  0.00    -0.514 OA 
HETATM    4  C   UNL     1     -12.289  14.551  71.757  1.00  0.00    -0.408 C  
ENDROOT
BRANCH   4   5
HETATM    5  C   UNL     1     -11.663  15.891  71.367  1.00  0.00    -0.530 C  
BRANCH   5   6
HETATM    6  C   UNL     1     -10.824  15.811  70.086  1.00  0.00    -0.360 C  
BRANCH   6   7
HETATM    7  C   UNL     1     -11.661  15.509  68.834  1.00  0.00    -0.384 C  
BRANCH   7   8
HETATM    8  C   UNL     1     -11.286  14.186  68.143  1.00  0.00    -0.290 C  
HETATM    9  C   UNL     1      -9.784  14.090  67.836  1.00  0.00    -0.229 C  
HETATM   10  C   UNL     1      -9.380  15.032  66.703  1.00  0.00    -0.266 C  
HETATM   11  S   UNL     1     -10.642  14.933  65.408  1.00  0.00    -0.406 SA 
HETATM   12  S   UNL     1     -12.085  13.991  66.517  1.00  0.00    -0.447 SA 
ENDBRANCH   7   8
ENDBRANCH   6   7
ENDBRANCH   5   6
ENDBRANCH   4   5
TORSDOF 4
ENDMDL
MODEL       14
REMARK 921   NORMALIZED FREE ENERGY PREDICTED BY IDOCK:   -3.87 KCAL/MOL
REMARK 922        TOTAL FREE ENERGY PREDICTED BY IDOCK:   -5.29 KCAL/MOL
REMARK 923 INTER-LIGAND FREE ENERGY PREDICTED BY IDOCK:   -5.13 KCAL/MOL
REMARK 924 INTRA-LIGAND FREE ENERGY PREDICTED BY IDOCK:   -0.16 KCAL/MOL
REMARK 927      BINDING AFFINITY PREDICTED BY RF-SCORE:    0.00 PKD
ROOT
HETATM    1  O   UNL     1     -12.953  12.473  64.929  1.00  0.00    -0.821 OA 
HETATM    2  C   UNL     1     -12.398  13.701  64.803  1.00  0.00    -0.390 C  
HETATM    3  O   UNL     1     -12.672  14.452  63.881  1.00  0.00    -0.771 OA 
HETATM    4  C   UNL     1     -11.413  13.994  65.909  1.00  0.00    -0.330 C  
ENDROOT
BRANCH   4   5
HETATM    5  C   UNL     1     -10.753  15.365  65.755  1.00  0.00    -0.360 C  
BRANCH   5   6
HETATM    6  C   UNL     1      -9.315  15.402  66.286  1.00  0.00    -0.351 C  
BRANCH   6   7
HETATM    7  C   UNL     1      -8.733  16.822  66.356  1.00  0.00    -0.337 C  
BRANCH   7   8
HETATM    8  C   UNL     1      -9.251  17.646  67.547  1.00  0.00    -0.243 C  
HETATM    9  C   UNL     1     -10.312  18.676  67.129  1.00  0.00    -0.442 C  
HETATM   10  C   UNL     1      -9.696  19.829  66.337  1.00  0.00    -0.428 C  
HETATM   11  S   UNL     1      -8.147  20.306  67.146  1.00  0.00    -0.325 SA 
HETATM   12  S   UNL     1      -7.946  18.647  68.333  1.00  0.00    -0.332 SA 
ENDBRANCH   7   8
ENDBRANCH   6   7
ENDBRANCH   5   6
ENDBRANCH   4   5
TORSDOF 4
ENDMDL
MODEL       15
REMARK 921   NORMALIZED FREE ENERGY PREDICTED BY IDOCK:   -3.86 KCAL/MOL
REMARK 922        TOTAL FREE ENERGY PREDICTED BY IDOCK:   -5.27 KCAL/MOL
REMARK 923 INTER-LIGAND FREE ENERGY PREDICTED BY IDOCK:   -4.95 KCAL/MOL
REMARK 924 INTRA-LIGAND FREE ENERGY PREDICTED BY IDOCK:   -0.32 KCAL/MOL
REMARK 927      BINDING AFFINITY PREDICTED BY RF-SCORE:    0.00 PKD
ROOT
HETATM    1  O   UNL     1     -12.133  16.137  64.074  1.00  0.00    -0.889 OA 
HETATM    2  C   UNL     1     -12.223  14.805  64.297  1.00  0.00    -0.379 C  
HETATM    3  O   UNL     1     -12.503  14.011  63.414  1.00  0.00    -0.826 OA 
HETATM    4  C   UNL     1     -11.958  14.452  65.741  1.00  0.00    -0.362 C  
ENDROOT
BRANCH   4   5
HETATM    5  C   UNL     1     -12.093  12.953  66.011  1.00  0.00    -0.484 C  
BRANCH   5   6
HETATM    6  C   UNL     1     -11.609  12.548  67.408  1.00  0.00    -0.434 C  
BRANCH   6   7
HETATM    7  C   UNL     1     -11.898  13.610  68.479  1.00  0.00    -0.406 C  
BRANCH   7   8
HETATM    8  C   UNL     1     -10.671  13.987  69.326  1.00  0.00    -0.115 C  
HETATM    9  C   UNL     1     -10.837  15.344  70.027  1.00  0.00    -0.320 C  
HETATM   10  C   UNL     1     -10.762  16.503  69.034  1.00  0.00    -0.332 C  
HETATM   11  S   UNL     1      -9.409  16.169  67.877  1.00  0.00    -0.213 SA 
HETATM   12  S   UNL     1      -9.159  14.186  68.327  1.00  0.00    -0.191 SA 
ENDBRANCH   7   8
ENDBRANCH   6   7
ENDBRANCH   5   6
ENDBRANCH   4   5
TORSDOF 4
ENDMDL
MODEL       16
REMARK 921   NORMALIZED FREE ENERGY PREDICTED BY IDOCK:   -3.85 KCAL/MOL
REMARK 922        TOTAL FREE ENERGY PREDICTED BY IDOCK:   -5.26 KCAL/MOL
REMARK 923 INTER-LIGAND FREE ENERGY PREDICTED BY IDOCK:   -5.13 KCAL/MOL
REMARK 924 INTRA-LIGAND FREE ENERGY PREDICTED BY IDOCK:   -0.12 KCAL/MOL
REMARK 927      BINDING AFFINITY PREDICTED BY RF-SCORE:    0.00 PKD
ROOT
HETATM    1  O   UNL     1     -14.110  13.627  72.686  1.00  0.00    -0.746 OA 
HETATM    2  C   UNL     1     -13.507  14.268  71.657  1.00  0.00    -0.376 C  
HETATM    3  O   UNL     1     -13.762  15.425  71.368  1.00  0.00    -0.487 OA 
HETATM    4  C   UNL     1     -12.527  13.377  70.931  1.00  0.00    -0.439 C  
ENDROOT
BRANCH   4   5
HETATM    5  C   UNL     1     -11.867  14.082  69.744  1.00  0.00    -0.385 C  
BRANCH   5   6
HETATM    6  C   UNL     1     -11.612  13.145  68.557  1.00  0.00    -0.361 C  
BRANCH   6   7
HETATM    7  C   UNL     1     -12.025  13.752  67.208  1.00  0.00    -0.436 C  
BRANCH   7   8
HETATM    8  C   UNL     1     -10.870  13.860  66.197  1.00  0.00    -0.290 C  
HETATM    9  C   UNL     1     -11.137  14.915  65.113  1.00  0.00    -0.399 C  
HETATM   10  C   UNL     1     -12.219  14.457  64.137  1.00  0.00    -0.363 C  
HETATM   11  S   UNL     1     -11.923  12.715  63.741  1.00  0.00    -0.553 SA 
HETATM   12  S   UNL     1     -10.606  12.319  65.261  1.00  0.00    -0.298 SA 
ENDBRANCH   7   8
ENDBRANCH   6   7
ENDBRANCH   5   6
ENDBRANCH   4   5
TORSDOF 4
ENDMDL
MODEL       17
REMARK 921   NORMALIZED FREE ENERGY PREDICTED BY IDOCK:   -3.84 KCAL/MOL
REMARK 922        TOTAL FREE ENERGY PREDICTED BY IDOCK:   -5.24 KCAL/MOL
REMARK 923 INTER-LIGAND FREE ENERGY PREDICTED BY IDOCK:   -4.90 KCAL/MOL
REMARK 924 INTRA-LIGAND FREE ENERGY PREDICTED BY IDOCK:   -0.34 KCAL/MOL
REMARK 927      BINDING AFFINITY PREDICTED BY RF-SCORE:    0.00 PKD
ROOT
HETATM    1  O   UNL     1      -9.922  16.865  65.455  1.00  0.00    -0.572 OA 
HETATM    2  C   UNL     1     -10.940  16.168  64.900  1.00  0.00    -0.349 C  
HETATM    3  O   UNL     1     -11.557  16.572  63.928  1.00  0.00    -1.175 OA 
HETATM    4  C   UNL     1     -11.211  14.877  65.635  1.00  0.00    -0.347 C  
ENDROOT
BRANCH   4   5
HETATM    5  C   UNL     1     -12.384  14.099  65.036  1.00  0.00    -0.452 C  
BRANCH   5   6
HETATM    6  C   UNL     1     -12.229  12.579  65.174  1.00  0.00    -0.509 C  
BRANCH   6   7
HETATM    7  C   UNL     1     -10.764  12.120  65.180  1.00  0.00    -0.333 C  
BRANCH   7   8
HETATM    8  C   UNL     1     -10.456  11.043  66.236  1.00  0.00    -0.254 C  
HETATM    9  C   UNL     1     -11.056  11.382  67.609  1.00  0.00    -0.325 C  
HETATM   10  C   UNL     1     -10.314  12.539  68.278  1.00  0.00    -0.236 C  
HETATM   11  S   UNL     1      -8.537  12.290  68.030  1.00  0.00    -0.182 SA 
HETATM   12  S   UNL     1      -8.672  10.866  66.562  1.00  0.00    -0.168 SA 
ENDBRANCH   7   8
ENDBRANCH   6   7
ENDBRANCH   5   6
ENDBRANCH   4   5
TORSDOF 4
ENDMDL
MODEL       18
REMARK 921   NORMALIZED FREE ENERGY PREDICTED BY IDOCK:   -3.82 KCAL/MOL
REMARK 922        TOTAL FREE ENERGY PREDICTED BY IDOCK:   -5.22 KCAL/MOL
REMARK 923 INTER-LIGAND FREE ENERGY PREDICTED BY IDOCK:   -4.99 KCAL/MOL
REMARK 924 INTRA-LIGAND FREE ENERGY PREDICTED BY IDOCK:   -0.23 KCAL/MOL
REMARK 927      BINDING AFFINITY PREDICTED BY RF-SCORE:    0.00 PKD
ROOT
HETATM    1  O   UNL     1     -14.348  13.549  72.579  1.00  0.00    -0.713 OA 
HETATM    2  C   UNL     1     -13.791  14.458  71.746  1.00  0.00    -0.443 C  
HETATM    3  O   UNL     1     -14.259  15.573  71.586  1.00  0.00    -0.482 OA 
HETATM    4  C   UNL     1     -12.565  13.915  71.051  1.00  0.00    -0.444 C  
ENDROOT
BRANCH   4   5
HETATM    5  C   UNL     1     -11.949  14.923  70.079  1.00  0.00    -0.377 C  
BRANCH   5   6
HETATM    6  C   UNL     1     -11.042  14.268  69.031  1.00  0.00    -0.284 C  
BRANCH   6   7
HETATM    7  C   UNL     1     -11.377  14.691  67.593  1.00  0.00    -0.350 C  
BRANCH   7   8
HETATM    8  C   UNL     1     -12.205  13.651  66.818  1.00  0.00    -0.369 C  
HETATM    9  C   UNL     1     -11.545  12.265  66.810  1.00  0.00    -0.434 C  
HETATM   10  C   UNL     1     -10.302  12.238  65.921  1.00  0.00    -0.252 C  
HETATM   11  S   UNL     1     -10.678  13.141  64.396  1.00  0.00    -0.408 SA 
HETATM   12  S   UNL     1     -12.384  14.068  65.053  1.00  0.00    -0.433 SA 
ENDBRANCH   7   8
ENDBRANCH   6   7
ENDBRANCH   5   6
ENDBRANCH   4   5
TORSDOF 4
ENDMDL
MODEL       19
REMARK 921   NORMALIZED FREE ENERGY PREDICTED BY IDOCK:   -3.82 KCAL/MOL
REMARK 922        TOTAL FREE ENERGY PREDICTED BY IDOCK:   -5.21 KCAL/MOL
REMARK 923 INTER-LIGAND FREE ENERGY PREDICTED BY IDOCK:   -5.00 KCAL/MOL
REMARK 924 INTRA-LIGAND FREE ENERGY PREDICTED BY IDOCK:   -0.21 KCAL/MOL
REMARK 927      BINDING AFFINITY PREDICTED BY RF-SCORE:    0.00 PKD
ROOT
HETATM    1  O   UNL     1     -12.606  14.464  63.864  1.00  0.00    -0.814 OA 
HETATM    2  C   UNL     1     -11.720  15.368  64.344  1.00  0.00    -0.258 C  
HETATM    3  O   UNL     1     -11.674  16.518  63.939  1.00  0.00    -1.148 OA 
HETATM    4  C   UNL     1     -10.815  14.772  65.396  1.00  0.00    -0.372 C  
ENDROOT
BRANCH   4   5
HETATM    5  C   UNL     1      -9.786  15.776  65.918  1.00  0.00    -0.389 C  
BRANCH   5   6
HETATM    6  C   UNL     1     -10.307  16.613  67.092  1.00  0.00    -0.300 C  
BRANCH   6   7
HETATM    7  C   UNL     1      -9.587  17.962  67.240  1.00  0.00    -0.273 C  
BRANCH   7   8
HETATM    8  C   UNL     1      -8.053  17.849  67.233  1.00  0.00    -0.212 C  
HETATM    9  C   UNL     1      -7.433  18.214  68.590  1.00  0.00    -0.300 C  
HETATM   10  C   UNL     1      -7.525  19.714  68.866  1.00  0.00    -0.323 C  
HETATM   11  S   UNL     1      -7.106  20.597  67.341  1.00  0.00    -0.356 SA 
HETATM   12  S   UNL     1      -7.267  19.003  66.062  1.00  0.00    -0.258 SA 
ENDBRANCH   7   8
ENDBRANCH   6   7
ENDBRANCH   5   6
ENDBRANCH   4   5
TORSDOF 4
ENDMDL
MODEL       20
REMARK 921   NORMALIZED FREE ENERGY PREDICTED BY IDOCK:   -3.80 KCAL/MOL
REMARK 922        TOTAL FREE ENERGY PREDICTED BY IDOCK:   -5.20 KCAL/MOL
REMARK 923 INTER-LIGAND FREE ENERGY PREDICTED BY IDOCK:   -4.97 KCAL/MOL
REMARK 924 INTRA-LIGAND FREE ENERGY PREDICTED BY IDOCK:   -0.23 KCAL/MOL
REMARK 927      BINDING AFFINITY PREDICTED BY RF-SCORE:    0.00 PKD
ROOT
HETATM    1  O   UNL     1     -13.280  11.569  71.910  1.00  0.00    -0.485 OA 
HETATM    2  C   UNL     1     -13.386  12.918  71.866  1.00  0.00    -0.435 C  
HETATM    3  O   UNL     1     -14.130  13.540  72.605  1.00  0.00    -0.762 OA 
HETATM    4  C   UNL     1     -12.502  13.522  70.800  1.00  0.00    -0.428 C  
ENDROOT
BRANCH   4   5
HETATM    5  C   UNL     1     -12.642  15.043  70.718  1.00  0.00    -0.429 C  
BRANCH   5   6
HETATM    6  C   UNL     1     -12.013  15.636  69.452  1.00  0.00    -0.349 C  
BRANCH   6   7
HETATM    7  C   UNL     1     -11.296  14.590  68.586  1.00  0.00    -0.300 C  
BRANCH   7   8
HETATM    8  C   UNL     1     -11.394  14.863  67.076  1.00  0.00    -0.342 C  
HETATM    9  C   UNL     1     -12.409  13.945  66.379  1.00  0.00    -0.468 C  
HETATM   10  C   UNL     1     -11.901  12.507  66.292  1.00  0.00    -0.390 C  
HETATM   11  S   UNL     1     -10.152  12.553  65.820  1.00  0.00    -0.258 SA 
HETATM   12  S   UNL     1      -9.829  14.541  66.198  1.00  0.00    -0.324 SA 
ENDBRANCH   7   8
ENDBRANCH   6   7
ENDBRANCH   5   6
ENDBRANCH   4   5
TORSDOF 4
ENDMDL
MODEL       21
REMARK 921   NORMALIZED FREE ENERGY PREDICTED BY IDOCK:   -3.78 KCAL/MOL
REMARK 922        TOTAL FREE ENERGY PREDICTED BY IDOCK:   -5.17 KCAL/MOL
REMARK 923 INTER-LIGAND FREE ENERGY PREDICTED BY IDOCK:   -5.06 KCAL/MOL
REMARK 924 INTRA-LIGAND FREE ENERGY PREDICTED BY IDOCK:   -0.11 KCAL/MOL
REMARK 927      BINDING AFFINITY PREDICTED BY RF-SCORE:    0.00 PKD
ROOT
HETATM    1  O   UNL     1     -14.279  15.775  72.727  1.00  0.00    -0.539 OA 
HETATM    2  C   UNL     1     -13.567  15.007  71.870  1.00  0.00    -0.420 C  
HETATM    3  O   UNL     1     -13.002  15.470  70.892  1.00  0.00    -0.463 OA 
HETATM    4  C   UNL     1     -13.585  13.550  72.265  1.00  0.00    -0.690 C  
ENDROOT
BRANCH   4   5
HETATM    5  C   UNL     1     -12.813  12.669  71.280  1.00  0.00    -0.344 C  
BRANCH   5   6
HETATM    6  C   UNL     1     -12.939  11.172  71.589  1.00  0.00    -0.548 C  
BRANCH   6   7
HETATM    7  C   UNL     1     -12.036  10.295  70.710  1.00  0.00    -0.456 C  
BRANCH   7   8
HETATM    8  C   UNL     1     -11.059   9.415  71.509  1.00  0.00    -0.376 C  
HETATM    9  C   UNL     1      -9.972   8.791  70.621  1.00  0.00    -0.242 C  
HETATM   10  C   UNL     1     -10.541   7.696  69.720  1.00  0.00    -0.244 C  
HETATM   11  S   UNL     1     -11.684   6.692  70.704  1.00  0.00    -0.366 SA 
HETATM   12  S   UNL     1     -11.875   7.982  72.285  1.00  0.00    -0.374 SA 
ENDBRANCH   7   8
ENDBRANCH   6   7
ENDBRANCH   5   6
ENDBRANCH   4   5
TORSDOF 4
ENDMDL
MODEL       22
REMARK 921   NORMALIZED FREE ENERGY PREDICTED BY IDOCK:   -3.78 KCAL/MOL
REMARK 922        TOTAL FREE ENERGY PREDICTED BY IDOCK:   -5.16 KCAL/MOL
REMARK 923 INTER-LIGAND FREE ENERGY PREDICTED BY IDOCK:   -4.88 KCAL/MOL
REMARK 924 INTRA-LIGAND FREE ENERGY PREDICTED BY IDOCK:   -0.29 KCAL/MOL
REMARK 927      BINDING AFFINITY PREDICTED BY RF-SCORE:    0.00 PKD
ROOT
HETATM    1  O   UNL     1     -10.595  14.751  64.878  1.00  0.00    -0.414 OA 
HETATM    2  C   UNL     1     -10.857  16.078  64.930  1.00  0.00    -0.372 C  
HETATM    3  O   UNL     1     -11.495  16.654  64.064  1.00  0.00    -1.192 OA 
HETATM    4  C   UNL     1     -10.254  16.728  66.153  1.00  0.00    -0.363 C  
ENDROOT
BRANCH   4   5
HETATM    5  C   UNL     1     -10.513  18.234  66.202  1.00  0.00    -0.403 C  
BRANCH   5   6
HETATM    6  C   UNL     1     -10.348  18.826  67.606  1.00  0.00    -0.476 C  
BRANCH   6   7
HETATM    7  C   UNL     1      -9.065  18.361  68.311  1.00  0.00    -0.330 C  
BRANCH   7   8
HETATM    8  C   UNL     1      -8.085  19.502  68.632  1.00  0.00    -0.340 C  
HETATM    9  C   UNL     1      -7.746  20.348  67.395  1.00  0.00    -0.364 C  
HETATM   10  C   UNL     1      -6.855  19.584  66.417  1.00  0.00    -0.207 C  
HETATM   11  S   UNL     1      -5.586  18.712  67.371  1.00  0.00    -0.141 SA 
HETATM   12  S   UNL     1      -6.466  18.898  69.213  1.00  0.00    -0.277 SA 
ENDBRANCH   7   8
ENDBRANCH   6   7
ENDBRANCH   5   6
ENDBRANCH   4   5
TORSDOF 4
ENDMDL
MODEL       23
REMARK 921   NORMALIZED FREE ENERGY PREDICTED BY IDOCK:   -3.75 KCAL/MOL
REMARK 922        TOTAL FREE ENERGY PREDICTED BY IDOCK:   -5.14 KCAL/MOL
REMARK 923 INTER-LIGAND FREE ENERGY PREDICTED BY IDOCK:   -4.86 KCAL/MOL
REMARK 924 INTRA-LIGAND FREE ENERGY PREDICTED BY IDOCK:   -0.28 KCAL/MOL
REMARK 927      BINDING AFFINITY PREDICTED BY RF-SCORE:    0.00 PKD
ROOT
HETATM    1  O   UNL     1     -12.706  14.302  63.320  1.00  0.00    -0.665 OA 
HETATM    2  C   UNL     1     -12.304  13.577  64.391  1.00  0.00    -0.337 C  
HETATM    3  O   UNL     1     -13.044  12.798  64.968  1.00  0.00    -0.811 OA 
HETATM    4  C   UNL     1     -10.872  13.871  64.769  1.00  0.00    -0.430 C  
ENDROOT
BRANCH   4   5
HETATM    5  C   UNL     1     -10.420  13.084  66.000  1.00  0.00    -0.289 C  
BRANCH   5   6
HETATM    6  C   UNL     1      -9.986  13.985  67.163  1.00  0.00    -0.252 C  
BRANCH   6   7
HETATM    7  C   UNL     1     -10.572  13.552  68.515  1.00  0.00    -0.257 C  
BRANCH   7   8
HETATM    8  C   UNL     1     -11.905  14.237  68.861  1.00  0.00    -0.336 C  
HETATM    9  C   UNL     1     -11.833  15.764  68.719  1.00  0.00    -0.321 C  
HETATM   10  C   UNL     1     -10.988  16.394  69.825  1.00  0.00    -0.341 C  
HETATM   11  S   UNL     1     -11.412  15.586  71.390  1.00  0.00    -0.431 SA 
HETATM   12  S   UNL     1     -12.401  13.976  70.595  1.00  0.00    -0.391 SA 
ENDBRANCH   7   8
ENDBRANCH   6   7
ENDBRANCH   5   6
ENDBRANCH   4   5
TORSDOF 4
ENDMDL
MODEL       24
REMARK 921   NORMALIZED FREE ENERGY PREDICTED BY IDOCK:   -3.75 KCAL/MOL
REMARK 922        TOTAL FREE ENERGY PREDICTED BY IDOCK:   -5.13 KCAL/MOL
REMARK 923 INTER-LIGAND FREE ENERGY PREDICTED BY IDOCK:   -5.01 KCAL/MOL
REMARK 924 INTRA-LIGAND FREE ENERGY PREDICTED BY IDOCK:   -0.12 KCAL/MOL
REMARK 927      BINDING AFFINITY PREDICTED BY RF-SCORE:    0.00 PKD
ROOT
HETATM    1  O   UNL     1     -13.357  10.008  72.314  1.00  0.00    -0.429 OA 
HETATM    2  C   UNL     1     -12.997  11.143  71.669  1.00  0.00    -0.443 C  
HETATM    3  O   UNL     1     -13.310  12.251  72.071  1.00  0.00    -0.506 OA 
HETATM    4  C   UNL     1     -12.202  10.857  70.418  1.00  0.00    -0.453 C  
ENDROOT
BRANCH   4   5
HETATM    5  C   UNL     1     -11.822  12.132  69.663  1.00  0.00    -0.391 C  
BRANCH   5   6
HETATM    6  C   UNL     1     -11.547  11.888  68.174  1.00  0.00    -0.400 C  
BRANCH   6   7
HETATM    7  C   UNL     1     -11.642  13.164  67.325  1.00  0.00    -0.404 C  
BRANCH   7   8
HETATM    8  C   UNL     1     -10.610  13.229  66.185  1.00  0.00    -0.287 C  
HETATM    9  C   UNL     1     -10.887  14.383  65.210  1.00  0.00    -0.370 C  
HETATM   10  C   UNL     1     -12.121  14.110  64.351  1.00  0.00    -0.463 C  
HETATM   11  S   UNL     1     -12.066  12.380  63.816  1.00  0.00    -0.572 SA 
HETATM   12  S   UNL     1     -10.630  11.742  65.131  1.00  0.00    -0.294 SA 
ENDBRANCH   7   8
ENDBRANCH   6   7
ENDBRANCH   5   6
ENDBRANCH   4   5
TORSDOF 4
ENDMDL
MODEL       25
REMARK 921   NORMALIZED FREE ENERGY PREDICTED BY IDOCK:   -3.75 KCAL/MOL
REMARK 922        TOTAL FREE ENERGY PREDICTED BY IDOCK:   -5.13 KCAL/MOL
REMARK 923 INTER-LIGAND FREE ENERGY PREDICTED BY IDOCK:   -4.87 KCAL/MOL
REMARK 924 INTRA-LIGAND FREE ENERGY PREDICTED BY IDOCK:   -0.26 KCAL/MOL
REMARK 927      BINDING AFFINITY PREDICTED BY RF-SCORE:    0.00 PKD
ROOT
HETATM    1  O   UNL     1     -12.023  11.687  63.271  1.00  0.00    -0.378 OA 
HETATM    2  C   UNL     1     -11.955  12.993  63.621  1.00  0.00    -0.539 C  
HETATM    3  O   UNL     1     -12.763  13.818  63.229  1.00  0.00    -0.783 OA 
HETATM    4  C   UNL     1     -10.771  13.280  64.514  1.00  0.00    -0.428 C  
ENDROOT
BRANCH   4   5
HETATM    5  C   UNL     1     -10.665  14.760  64.885  1.00  0.00    -0.438 C  
BRANCH   5   6
HETATM    6  C   UNL     1     -11.130  15.054  66.316  1.00  0.00    -0.334 C  
BRANCH   6   7
HETATM    7  C   UNL     1     -11.675  13.815  67.041  1.00  0.00    -0.420 C  
BRANCH   7   8
HETATM    8  C   UNL     1     -10.857  13.414  68.282  1.00  0.00    -0.256 C  
HETATM    9  C   UNL     1     -11.744  13.157  69.509  1.00  0.00    -0.382 C  
HETATM   10  C   UNL     1     -12.330  14.455  70.064  1.00  0.00    -0.336 C  
HETATM   11  S   UNL     1     -11.025  15.712  70.057  1.00  0.00    -0.357 SA 
HETATM   12  S   UNL     1      -9.715  14.725  68.827  1.00  0.00    -0.216 SA 
ENDBRANCH   7   8
ENDBRANCH   6   7
ENDBRANCH   5   6
ENDBRANCH   4   5
TORSDOF 4
ENDMDL
MODEL       26
REMARK 921   NORMALIZED FREE ENERGY PREDICTED BY IDOCK:   -3.75 KCAL/MOL
REMARK 922        TOTAL FREE ENERGY PREDICTED BY IDOCK:   -5.13 KCAL/MOL
REMARK 923 INTER-LIGAND FREE ENERGY PREDICTED BY IDOCK:   -4.94 KCAL/MOL
REMARK 924 INTRA-LIGAND FREE ENERGY PREDICTED BY IDOCK:   -0.19 KCAL/MOL
REMARK 927      BINDING AFFINITY PREDICTED BY RF-SCORE:    0.00 PKD
ROOT
HETATM    1  O   UNL     1     -13.245  12.310  64.400  1.00  0.00    -0.806 OA 
HETATM    2  C   UNL     1     -12.616  13.502  64.522  1.00  0.00    -0.206 C  
HETATM    3  O   UNL     1     -12.496  14.277  63.587  1.00  0.00    -0.816 OA 
HETATM    4  C   UNL     1     -12.086  13.723  65.918  1.00  0.00    -0.464 C  
ENDROOT
BRANCH   4   5
HETATM    5  C   UNL     1     -11.342  15.052  66.056  1.00  0.00    -0.270 C  
BRANCH   5   6
HETATM    6  C   UNL     1     -10.887  15.339  67.493  1.00  0.00    -0.304 C  
BRANCH   6   7
HETATM    7  C   UNL     1     -10.632  16.829  67.760  1.00  0.00    -0.341 C  
BRANCH   7   8
HETATM    8  C   UNL     1      -9.796  17.521  66.669  1.00  0.00    -0.306 C  
HETATM    9  C   UNL     1      -8.377  17.863  67.147  1.00  0.00    -0.239 C  
HETATM   10  C   UNL     1      -8.384  19.012  68.154  1.00  0.00    -0.312 C  
HETATM   11  S   UNL     1      -9.540  20.276  67.562  1.00  0.00    -0.421 SA 
HETATM   12  S   UNL     1     -10.492  19.126  66.159  1.00  0.00    -0.453 SA 
ENDBRANCH   7   8
ENDBRANCH   6   7
ENDBRANCH   5   6
ENDBRANCH   4   5
TORSDOF 4
ENDMDL
MODEL       27
REMARK 921   NORMALIZED FREE ENERGY PREDICTED BY IDOCK:   -3.74 KCAL/MOL
REMARK 922        TOTAL FREE ENERGY PREDICTED BY IDOCK:   -5.12 KCAL/MOL
REMARK 923 INTER-LIGAND FREE ENERGY PREDICTED BY IDOCK:   -5.00 KCAL/MOL
REMARK 924 INTRA-LIGAND FREE ENERGY PREDICTED BY IDOCK:   -0.11 KCAL/MOL
REMARK 927      BINDING AFFINITY PREDICTED BY RF-SCORE:    0.00 PKD
ROOT
HETATM    1  O   UNL     1     -12.588  14.275  63.650  1.00  0.00    -0.831 OA 
HETATM    2  C   UNL     1     -12.186  13.172  64.325  1.00  0.00    -0.396 C  
HETATM    3  O   UNL     1     -11.940  12.116  63.767  1.00  0.00    -0.438 OA 
HETATM    4  C   UNL     1     -12.107  13.417  65.814  1.00  0.00    -0.481 C  
ENDROOT
BRANCH   4   5
HETATM    5  C   UNL     1     -11.689  12.166  66.589  1.00  0.00    -0.385 C  
BRANCH   5   6
HETATM    6  C   UNL     1     -11.692  12.373  68.108  1.00  0.00    -0.408 C  
BRANCH   6   7
HETATM    7  C   UNL     1     -12.030  11.096  68.891  1.00  0.00    -0.367 C  
BRANCH   7   8
HETATM    8  C   UNL     1     -11.543  11.116  70.350  1.00  0.00    -0.259 C  
HETATM    9  C   UNL     1     -10.778   9.839  70.730  1.00  0.00    -0.393 C  
HETATM   10  C   UNL     1     -11.713   8.636  70.845  1.00  0.00    -0.252 C  
HETATM   11  S   UNL     1     -13.210   9.165  71.718  1.00  0.00    -0.423 SA 
HETATM   12  S   UNL     1     -12.913  11.186  71.550  1.00  0.00    -0.368 SA 
ENDBRANCH   7   8
ENDBRANCH   6   7
ENDBRANCH   5   6
ENDBRANCH   4   5
TORSDOF 4
ENDMDL
MODEL       28
REMARK 921   NORMALIZED FREE ENERGY PREDICTED BY IDOCK:   -3.73 KCAL/MOL
REMARK 922        TOTAL FREE ENERGY PREDICTED BY IDOCK:   -5.11 KCAL/MOL
REMARK 923 INTER-LIGAND FREE ENERGY PREDICTED BY IDOCK:   -4.95 KCAL/MOL
REMARK 924 INTRA-LIGAND FREE ENERGY PREDICTED BY IDOCK:   -0.16 KCAL/MOL
REMARK 927      BINDING AFFINITY PREDICTED BY RF-SCORE:    0.00 PKD
ROOT
HETATM    1  O   UNL     1     -12.923  16.166  74.313  1.00  0.00    -0.646 OA 
HETATM    2  C   UNL     1     -12.971  15.553  73.108  1.00  0.00    -0.521 C  
HETATM    3  O   UNL     1     -13.732  14.628  72.874  1.00  0.00    -0.529 OA 
HETATM    4  C   UNL     1     -11.975  16.136  72.134  1.00  0.00    -0.623 C  
ENDROOT
BRANCH   4   5
HETATM    5  C   UNL     1     -11.997  15.424  70.780  1.00  0.00    -0.402 C  
BRANCH   5   6
HETATM    6  C   UNL     1     -10.839  15.841  69.865  1.00  0.00    -0.330 C  
BRANCH   6   7
HETATM    7  C   UNL     1     -11.291  16.192  68.440  1.00  0.00    -0.345 C  
BRANCH   7   8
HETATM    8  C   UNL     1     -10.431  17.276  67.766  1.00  0.00    -0.371 C  
HETATM    9  C   UNL     1     -10.258  17.033  66.259  1.00  0.00    -0.336 C  
HETATM   10  C   UNL     1      -9.340  15.844  65.982  1.00  0.00    -0.349 C  
HETATM   11  S   UNL     1      -7.930  15.942  67.116  1.00  0.00    -0.232 SA 
HETATM   12  S   UNL     1      -8.726  17.321  68.407  1.00  0.00    -0.266 SA 
ENDBRANCH   7   8
ENDBRANCH   6   7
ENDBRANCH   5   6
ENDBRANCH   4   5
TORSDOF 4
ENDMDL
MODEL       29
REMARK 921   NORMALIZED FREE ENERGY PREDICTED BY IDOCK:   -3.70 KCAL/MOL
REMARK 922        TOTAL FREE ENERGY PREDICTED BY IDOCK:   -5.07 KCAL/MOL
REMARK 923 INTER-LIGAND FREE ENERGY PREDICTED BY IDOCK:   -4.87 KCAL/MOL
REMARK 924 INTRA-LIGAND FREE ENERGY PREDICTED BY IDOCK:   -0.20 KCAL/MOL
REMARK 927      BINDING AFFINITY PREDICTED BY RF-SCORE:    0.00 PKD
ROOT
HETATM    1  O   UNL     1     -13.258   9.918  72.204  1.00  0.00    -0.438 OA 
HETATM    2  C   UNL     1     -12.948  11.049  71.528  1.00  0.00    -0.448 C  
HETATM    3  O   UNL     1     -13.322  12.152  71.893  1.00  0.00    -0.463 OA 
HETATM    4  C   UNL     1     -12.123  10.766  70.295  1.00  0.00    -0.433 C  
ENDROOT
BRANCH   4   5
HETATM    5  C   UNL     1     -11.799  12.035  69.506  1.00  0.00    -0.390 C  
BRANCH   5   6
HETATM    6  C   UNL     1     -10.718  11.819  68.440  1.00  0.00    -0.249 C  
BRANCH   6   7
HETATM    7  C   UNL     1     -11.167  12.231  67.031  1.00  0.00    -0.367 C  
BRANCH   7   8
HETATM    8  C   UNL     1     -12.028  13.506  67.003  1.00  0.00    -0.394 C  
HETATM    9  C   UNL     1     -12.766  13.685  65.668  1.00  0.00    -0.505 C  
HETATM   10  C   UNL     1     -11.807  14.064  64.540  1.00  0.00    -0.434 C  
HETATM   11  S   UNL     1     -10.644  15.298  65.178  1.00  0.00    -0.424 SA 
HETATM   12  S   UNL     1     -11.039  15.028  67.171  1.00  0.00    -0.328 SA 
ENDBRANCH   7   8
ENDBRANCH   6   7
ENDBRANCH   5   6
ENDBRANCH   4   5
TORSDOF 4
ENDMDL
MODEL       30
REMARK 921   NORMALIZED FREE ENERGY PREDICTED BY IDOCK:   -3.70 KCAL/MOL
REMARK 922        TOTAL FREE ENERGY PREDICTED BY IDOCK:   -5.07 KCAL/MOL
REMARK 923 INTER-LIGAND FREE ENERGY PREDICTED BY IDOCK:   -4.69 KCAL/MOL
REMARK 924 INTRA-LIGAND FREE ENERGY PREDICTED BY IDOCK:   -0.38 KCAL/MOL
REMARK 927      BINDING AFFINITY PREDICTED BY RF-SCORE:    0.00 PKD
ROOT
HETATM    1  O   UNL     1     -12.987  12.072  63.225  1.00  0.00    -0.736 OA 
HETATM    2  C   UNL     1     -11.859  12.710  63.616  1.00  0.00    -0.530 C  
HETATM    3  O   UNL     1     -10.745  12.283  63.365  1.00  0.00    -0.446 OA 
HETATM    4  C   UNL     1     -12.161  13.968  64.396  1.00  0.00    -0.486 C  
ENDROOT
BRANCH   4   5
HETATM    5  C   UNL     1     -10.892  14.677  64.874  1.00  0.00    -0.436 C  
BRANCH   5   6
HETATM    6  C   UNL     1     -10.972  15.128  66.337  1.00  0.00    -0.329 C  
BRANCH   6   7
HETATM    7  C   UNL     1     -11.737  14.142  67.232  1.00  0.00    -0.421 C  
BRANCH   7   8
HETATM    8  C   UNL     1     -10.865  13.484  68.316  1.00  0.00    -0.259 C  
HETATM    9  C   UNL     1      -9.567  12.893  67.745  1.00  0.00    -0.212 C  
HETATM   10  C   UNL     1      -9.837  11.640  66.914  1.00  0.00    -0.198 C  
HETATM   11  S   UNL     1     -11.057  10.630  67.793  1.00  0.00    -0.306 SA 
HETATM   12  S   UNL     1     -11.685  12.065  69.114  1.00  0.00    -0.332 SA 
ENDBRANCH   7   8
ENDBRANCH   6   7
ENDBRANCH   5   6
ENDBRANCH   4   5
TORSDOF 4
ENDMDL
MODEL       31
REMARK 921   NORMALIZED FREE ENERGY PREDICTED BY IDOCK:   -3.63 KCAL/MOL
REMARK 922        TOTAL FREE ENERGY PREDICTED BY IDOCK:   -4.98 KCAL/MOL
REMARK 923 INTER-LIGAND FREE ENERGY PREDICTED BY IDOCK:   -4.85 KCAL/MOL
REMARK 924 INTRA-LIGAND FREE ENERGY PREDICTED BY IDOCK:   -0.13 KCAL/MOL
REMARK 927      BINDING AFFINITY PREDICTED BY RF-SCORE:    0.00 PKD
ROOT
HETATM    1  O   UNL     1     -10.339  17.586  65.444  1.00  0.00    -0.629 OA 
HETATM    2  C   UNL     1     -10.834  16.537  64.745  1.00  0.00    -0.127 C  
HETATM    3  O   UNL     1     -11.638  16.676  63.838  1.00  0.00    -1.204 OA 
HETATM    4  C   UNL     1     -10.289  15.218  65.240  1.00  0.00    -0.430 C  
ENDROOT
BRANCH   4   5
HETATM    5  C   UNL     1     -10.871  14.025  64.480  1.00  0.00    -0.362 C  
BRANCH   5   6
HETATM    6  C   UNL     1     -10.804  12.716  65.277  1.00  0.00    -0.319 C  
BRANCH   6   7
HETATM    7  C   UNL     1     -11.621  12.757  66.576  1.00  0.00    -0.435 C  
BRANCH   7   8
HETATM    8  C   UNL     1     -10.776  13.027  67.833  1.00  0.00    -0.235 C  
HETATM    9  C   UNL     1      -9.808  11.876  68.147  1.00  0.00    -0.192 C  
HETATM   10  C   UNL     1     -10.549  10.643  68.663  1.00  0.00    -0.203 C  
HETATM   11  S   UNL     1     -11.814  11.194  69.837  1.00  0.00    -0.394 SA 
HETATM   12  S   UNL     1     -11.786  13.183  69.342  1.00  0.00    -0.322 SA 
ENDBRANCH   7   8
ENDBRANCH   6   7
ENDBRANCH   5   6
ENDBRANCH   4   5
TORSDOF 4
ENDMDL
MODEL       32
REMARK 921   NORMALIZED FREE ENERGY PREDICTED BY IDOCK:   -3.62 KCAL/MOL
REMARK 922        TOTAL FREE ENERGY PREDICTED BY IDOCK:   -4.97 KCAL/MOL
REMARK 923 INTER-LIGAND FREE ENERGY PREDICTED BY IDOCK:   -4.80 KCAL/MOL
REMARK 924 INTRA-LIGAND FREE ENERGY PREDICTED BY IDOCK:   -0.17 KCAL/MOL
REMARK 927      BINDING AFFINITY PREDICTED BY RF-SCORE:    0.00 PKD
ROOT
HETATM    1  O   UNL     1     -12.916  11.883  63.266  1.00  0.00    -0.707 OA 
HETATM    2  C   UNL     1     -11.728  12.403  63.653  1.00  0.00    -0.514 C  
HETATM    3  O   UNL     1     -10.678  11.793  63.537  1.00  0.00    -0.382 OA 
HETATM    4  C   UNL     1     -11.879  13.783  64.246  1.00  0.00    -0.451 C  
ENDROOT
BRANCH   4   5
HETATM    5  C   UNL     1     -10.546  14.365  64.719  1.00  0.00    -0.417 C  
BRANCH   5   6
HETATM    6  C   UNL     1     -10.669  15.801  65.241  1.00  0.00    -0.446 C  
BRANCH   6   7
HETATM    7  C   UNL     1      -9.404  16.295  65.958  1.00  0.00    -0.361 C  
BRANCH   7   8
HETATM    8  C   UNL     1      -9.593  16.513  67.470  1.00  0.00    -0.231 C  
HETATM    9  C   UNL     1     -10.673  17.560  67.780  1.00  0.00    -0.333 C  
HETATM   10  C   UNL     1     -10.206  18.972  67.429  1.00  0.00    -0.394 C  
HETATM   11  S   UNL     1      -8.491  19.154  67.983  1.00  0.00    -0.320 SA 
HETATM   12  S   UNL     1      -8.097  17.165  68.280  1.00  0.00    -0.248 SA 
ENDBRANCH   7   8
ENDBRANCH   6   7
ENDBRANCH   5   6
ENDBRANCH   4   5
TORSDOF 4
ENDMDL
MODEL       33
REMARK 921   NORMALIZED FREE ENERGY PREDICTED BY IDOCK:   -3.58 KCAL/MOL
REMARK 922        TOTAL FREE ENERGY PREDICTED BY IDOCK:   -4.92 KCAL/MOL
REMARK 923 INTER-LIGAND FREE ENERGY PREDICTED BY IDOCK:   -4.72 KCAL/MOL
REMARK 924 INTRA-LIGAND FREE ENERGY PREDICTED BY IDOCK:   -0.20 KCAL/MOL
REMARK 927      BINDING AFFINITY PREDICTED BY RF-SCORE:    0.00 PKD
ROOT
HETATM    1  O   UNL     1     -11.283  16.601  64.081  1.00  0.00    -1.103 OA 
HETATM    2  C   UNL     1     -11.887  15.458  64.483  1.00  0.00    -0.256 C  
HETATM    3  O   UNL     1     -12.712  14.878  63.796  1.00  0.00    -0.754 OA 
HETATM    4  C   UNL     1     -11.431  15.028  65.856  1.00  0.00    -0.224 C  
ENDROOT
BRANCH   4   5
HETATM    5  C   UNL     1     -12.135  13.757  66.334  1.00  0.00    -0.483 C  
BRANCH   5   6
HETATM    6  C   UNL     1     -11.780  13.380  67.778  1.00  0.00    -0.394 C  
BRANCH   6   7
HETATM    7  C   UNL     1     -11.595  11.870  67.980  1.00  0.00    -0.401 C  
BRANCH   7   8
HETATM    8  C   UNL     1     -10.124  11.418  67.963  1.00  0.00    -0.180 C  
HETATM    9  C   UNL     1      -9.516  11.455  66.553  1.00  0.00    -0.218 C  
HETATM   10  C   UNL     1     -10.079  10.345  65.667  1.00  0.00    -0.269 C  
HETATM   11  S   UNL     1     -10.159   8.824  66.648  1.00  0.00    -0.270 SA 
HETATM   12  S   UNL     1      -9.913   9.686  68.491  1.00  0.00    -0.172 SA 
ENDBRANCH   7   8
ENDBRANCH   6   7
ENDBRANCH   5   6
ENDBRANCH   4   5
TORSDOF 4
ENDMDL
MODEL       34
REMARK 921   NORMALIZED FREE ENERGY PREDICTED BY IDOCK:   -3.57 KCAL/MOL
REMARK 922        TOTAL FREE ENERGY PREDICTED BY IDOCK:   -4.92 KCAL/MOL
REMARK 923 INTER-LIGAND FREE ENERGY PREDICTED BY IDOCK:   -4.73 KCAL/MOL
REMARK 924 INTRA-LIGAND FREE ENERGY PREDICTED BY IDOCK:   -0.19 KCAL/MOL
REMARK 927      BINDING AFFINITY PREDICTED BY RF-SCORE:    0.00 PKD
ROOT
HETATM    1  O   UNL     1     -14.058  13.296  72.665  1.00  0.00    -0.744 OA 
HETATM    2  C   UNL     1     -13.762  14.428  71.984  1.00  0.00    -0.442 C  
HETATM    3  O   UNL     1     -14.357  15.476  72.168  1.00  0.00    -0.548 OA 
HETATM    4  C   UNL     1     -12.647  14.215  70.988  1.00  0.00    -0.439 C  
ENDROOT
BRANCH   4   5
HETATM    5  C   UNL     1     -12.329  15.480  70.189  1.00  0.00    -0.384 C  
BRANCH   5   6
HETATM    6  C   UNL     1     -10.959  16.078  70.531  1.00  0.00    -0.322 C  
BRANCH   6   7
HETATM    7  C   UNL     1     -10.075  16.308  69.297  1.00  0.00    -0.267 C  
BRANCH   7   8
HETATM    8  C   UNL     1     -10.690  17.270  68.265  1.00  0.00    -0.349 C  
HETATM    9  C   UNL     1     -10.379  16.855  66.819  1.00  0.00    -0.298 C  
HETATM   10  C   UNL     1      -8.911  17.092  66.468  1.00  0.00    -0.262 C  
HETATM   11  S   UNL     1      -8.422  18.702  67.141  1.00  0.00    -0.271 SA 
HETATM   12  S   UNL     1     -10.023  18.961  68.394  1.00  0.00    -0.405 SA 
ENDBRANCH   7   8
ENDBRANCH   6   7
ENDBRANCH   5   6
ENDBRANCH   4   5
TORSDOF 4
ENDMDL
MODEL       35
REMARK 921   NORMALIZED FREE ENERGY PREDICTED BY IDOCK:   -3.57 KCAL/MOL
REMARK 922        TOTAL FREE ENERGY PREDICTED BY IDOCK:   -4.91 KCAL/MOL
REMARK 923 INTER-LIGAND FREE ENERGY PREDICTED BY IDOCK:   -4.69 KCAL/MOL
REMARK 924 INTRA-LIGAND FREE ENERGY PREDICTED BY IDOCK:   -0.22 KCAL/MOL
REMARK 927      BINDING AFFINITY PREDICTED BY RF-SCORE:    0.00 PKD
ROOT
HETATM    1  O   UNL     1     -10.965  19.689  67.490  1.00  0.00    -0.419 OA 
HETATM    2  C   UNL     1     -10.499  18.666  66.735  1.00  0.00    -0.408 C  
HETATM    3  O   UNL     1     -10.475  18.711  65.516  1.00  0.00    -0.585 OA 
HETATM    4  C   UNL     1     -10.050  17.497  67.578  1.00  0.00    -0.326 C  
ENDROOT
BRANCH   4   5
HETATM    5  C   UNL     1      -9.556  16.323  66.732  1.00  0.00    -0.254 C  
BRANCH   5   6
HETATM    6  C   UNL     1     -10.552  15.158  66.683  1.00  0.00    -0.304 C  
BRANCH   6   7
HETATM    7  C   UNL     1     -10.851  14.677  65.256  1.00  0.00    -0.387 C  
BRANCH   7   8
HETATM    8  C   UNL     1     -11.921  13.574  65.184  1.00  0.00    -0.368 C  
HETATM    9  C   UNL     1     -11.658  12.437  66.183  1.00  0.00    -0.452 C  
HETATM   10  C   UNL     1     -10.461  11.585  65.764  1.00  0.00    -0.259 C  
HETATM   11  S   UNL     1     -10.567  11.302  63.977  1.00  0.00    -0.386 SA 
HETATM   12  S   UNL     1     -11.966  12.741  63.564  1.00  0.00    -0.543 SA 
ENDBRANCH   7   8
ENDBRANCH   6   7
ENDBRANCH   5   6
ENDBRANCH   4   5
TORSDOF 4
ENDMDL
MODEL       36
REMARK 921   NORMALIZED FREE ENERGY PREDICTED BY IDOCK:   -3.57 KCAL/MOL
REMARK 922        TOTAL FREE ENERGY PREDICTED BY IDOCK:   -4.91 KCAL/MOL
REMARK 923 INTER-LIGAND FREE ENERGY PREDICTED BY IDOCK:   -4.76 KCAL/MOL
REMARK 924 INTRA-LIGAND FREE ENERGY PREDICTED BY IDOCK:   -0.15 KCAL/MOL
REMARK 927      BINDING AFFINITY PREDICTED BY RF-SCORE:    0.00 PKD
ROOT
HETATM    1  O   UNL     1     -13.102  12.644  64.786  1.00  0.00    -0.852 OA 
HETATM    2  C   UNL     1     -12.391  13.781  64.607  1.00  0.00    -0.372 C  
HETATM    3  O   UNL     1     -12.706  14.628  63.788  1.00  0.00    -0.778 OA 
HETATM    4  C   UNL     1     -11.185  13.844  65.514  1.00  0.00    -0.307 C  
ENDROOT
BRANCH   4   5
HETATM    5  C   UNL     1     -10.354  15.110  65.294  1.00  0.00    -0.425 C  
BRANCH   5   6
HETATM    6  C   UNL     1     -10.240  15.979  66.552  1.00  0.00    -0.301 C  
BRANCH   6   7
HETATM    7  C   UNL     1      -9.556  17.329  66.293  1.00  0.00    -0.268 C  
BRANCH   7   8
HETATM    8  C   UNL     1      -8.194  17.478  66.993  1.00  0.00    -0.218 C  
HETATM    9  C   UNL     1      -8.332  17.920  68.458  1.00  0.00    -0.305 C  
HETATM   10  C   UNL     1      -8.776  19.379  68.566  1.00  0.00    -0.367 C  
HETATM   11  S   UNL     1      -7.848  20.343  67.345  1.00  0.00    -0.304 SA 
HETATM   12  S   UNL     1      -7.150  18.766  66.237  1.00  0.00    -0.259 SA 
ENDBRANCH   7   8
ENDBRANCH   6   7
ENDBRANCH   5   6
ENDBRANCH   4   5
TORSDOF 4
ENDMDL
MODEL       37
REMARK 921   NORMALIZED FREE ENERGY PREDICTED BY IDOCK:   -3.56 KCAL/MOL
REMARK 922        TOTAL FREE ENERGY PREDICTED BY IDOCK:   -4.90 KCAL/MOL
REMARK 923 INTER-LIGAND FREE ENERGY PREDICTED BY IDOCK:   -4.43 KCAL/MOL
REMARK 924 INTRA-LIGAND FREE ENERGY PREDICTED BY IDOCK:   -0.47 KCAL/MOL
REMARK 927      BINDING AFFINITY PREDICTED BY RF-SCORE:    0.00 PKD
ROOT
HETATM    1  O   UNL     1     -12.039  12.148  65.542  1.00  0.00    -0.517 OA 
HETATM    2  C   UNL     1     -12.141  13.488  65.381  1.00  0.00    -0.415 C  
HETATM    3  O   UNL     1     -13.194  14.087  65.525  1.00  0.00    -0.710 OA 
HETATM    4  C   UNL     1     -10.822  14.114  64.993  1.00  0.00    -0.408 C  
ENDROOT
BRANCH   4   5
HETATM    5  C   UNL     1     -10.935  15.624  64.773  1.00  0.00    -0.418 C  
BRANCH   5   6
HETATM    6  C   UNL     1     -10.264  16.443  65.882  1.00  0.00    -0.379 C  
BRANCH   6   7
HETATM    7  C   UNL     1      -8.987  15.789  66.429  1.00  0.00    -0.366 C  
BRANCH   7   8
HETATM    8  C   UNL     1      -8.860  15.859  67.960  1.00  0.00    -0.178 C  
HETATM    9  C   UNL     1      -8.761  14.468  68.604  1.00  0.00    -0.172 C  
HETATM   10  C   UNL     1     -10.094  13.724  68.545  1.00  0.00    -0.225 C  
HETATM   11  S   UNL     1     -11.414  14.892  68.961  1.00  0.00    -0.320 SA 
HETATM   12  S   UNL     1     -10.318  16.612  68.754  1.00  0.00    -0.322 SA 
ENDBRANCH   7   8
ENDBRANCH   6   7
ENDBRANCH   5   6
ENDBRANCH   4   5
TORSDOF 4
ENDMDL
MODEL       38
REMARK 921   NORMALIZED FREE ENERGY PREDICTED BY IDOCK:   -3.56 KCAL/MOL
REMARK 922        TOTAL FREE ENERGY PREDICTED BY IDOCK:   -4.90 KCAL/MOL
REMARK 923 INTER-LIGAND FREE ENERGY PREDICTED BY IDOCK:   -4.44 KCAL/MOL
REMARK 924 INTRA-LIGAND FREE ENERGY PREDICTED BY IDOCK:   -0.46 KCAL/MOL
REMARK 927      BINDING AFFINITY PREDICTED BY RF-SCORE:    0.00 PKD
ROOT
HETATM    1  O   UNL     1      -7.696  18.328  65.687  1.00  0.00    -0.529 OA 
HETATM    2  C   UNL     1      -8.876  18.257  66.345  1.00  0.00    -0.240 C  
HETATM    3  O   UNL     1      -9.947  18.440  65.791  1.00  0.00    -0.523 OA 
HETATM    4  C   UNL     1      -8.690  17.952  67.813  1.00  0.00    -0.250 C  
ENDROOT
BRANCH   4   5
HETATM    5  C   UNL     1     -10.016  17.906  68.573  1.00  0.00    -0.379 C  
BRANCH   5   6
HETATM    6  C   UNL     1     -10.396  16.493  69.031  1.00  0.00    -0.296 C  
BRANCH   6   7
HETATM    7  C   UNL     1     -11.279  15.746  68.021  1.00  0.00    -0.338 C  
BRANCH   7   8
HETATM    8  C   UNL     1     -10.572  14.565  67.334  1.00  0.00    -0.271 C  
HETATM    9  C   UNL     1     -10.141  14.895  65.897  1.00  0.00    -0.348 C  
HETATM   10  C   UNL     1     -11.342  14.987  64.956  1.00  0.00    -0.394 C  
HETATM   11  S   UNL     1     -12.468  13.621  65.342  1.00  0.00    -0.495 SA 
HETATM   12  S   UNL     1     -11.651  13.108  67.150  1.00  0.00    -0.380 SA 
ENDBRANCH   7   8
ENDBRANCH   6   7
ENDBRANCH   5   6
ENDBRANCH   4   5
TORSDOF 4
ENDMDL
MODEL       39
REMARK 921   NORMALIZED FREE ENERGY PREDICTED BY IDOCK:   -3.53 KCAL/MOL
REMARK 922        TOTAL FREE ENERGY PREDICTED BY IDOCK:   -4.86 KCAL/MOL
REMARK 923 INTER-LIGAND FREE ENERGY PREDICTED BY IDOCK:   -4.54 KCAL/MOL
REMARK 924 INTRA-LIGAND FREE ENERGY PREDICTED BY IDOCK:   -0.32 KCAL/MOL
REMARK 927      BINDING AFFINITY PREDICTED BY RF-SCORE:    0.00 PKD
ROOT
HETATM    1  O   UNL     1     -12.661  13.967  63.357  1.00  0.00    -0.853 OA 
HETATM    2  C   UNL     1     -12.319  12.662  63.467  1.00  0.00    -0.496 C  
HETATM    3  O   UNL     1     -13.147  11.766  63.469  1.00  0.00    -0.617 OA 
HETATM    4  C   UNL     1     -10.826  12.476  63.603  1.00  0.00    -0.486 C  
ENDROOT
BRANCH   4   5
HETATM    5  C   UNL     1     -10.433  11.007  63.765  1.00  0.00    -0.408 C  
BRANCH   5   6
HETATM    6  C   UNL     1     -10.372  10.560  65.231  1.00  0.00    -0.300 C  
BRANCH   6   7
HETATM    7  C   UNL     1      -9.152  11.114  65.981  1.00  0.00    -0.217 C  
BRANCH   7   8
HETATM    8  C   UNL     1      -9.510  12.121  67.088  1.00  0.00    -0.190 C  
HETATM    9  C   UNL     1      -8.876  11.757  68.439  1.00  0.00    -0.161 C  
HETATM   10  C   UNL     1      -9.540  10.529  69.060  1.00  0.00    -0.202 C  
HETATM   11  S   UNL     1     -11.332  10.683  68.840  1.00  0.00    -0.268 SA 
HETATM   12  S   UNL     1     -11.298  12.178  67.438  1.00  0.00    -0.344 SA 
ENDBRANCH   7   8
ENDBRANCH   6   7
ENDBRANCH   5   6
ENDBRANCH   4   5
TORSDOF 4
ENDMDL
MODEL       40
REMARK 921   NORMALIZED FREE ENERGY PREDICTED BY IDOCK:   -3.53 KCAL/MOL
REMARK 922        TOTAL FREE ENERGY PREDICTED BY IDOCK:   -4.86 KCAL/MOL
REMARK 923 INTER-LIGAND FREE ENERGY PREDICTED BY IDOCK:   -4.66 KCAL/MOL
REMARK 924 INTRA-LIGAND FREE ENERGY PREDICTED BY IDOCK:   -0.20 KCAL/MOL
REMARK 927      BINDING AFFINITY PREDICTED BY RF-SCORE:    0.00 PKD
ROOT
HETATM    1  O   UNL     1     -11.913  16.237  63.920  1.00  0.00    -1.003 OA 
HETATM    2  C   UNL     1     -11.961  14.916  64.215  1.00  0.00    -0.338 C  
HETATM    3  O   UNL     1     -12.575  14.115  63.531  1.00  0.00    -0.834 OA 
HETATM    4  C   UNL     1     -11.195  14.589  65.475  1.00  0.00    -0.335 C  
ENDROOT
BRANCH   4   5
HETATM    5  C   UNL     1     -11.274  13.105  65.836  1.00  0.00    -0.311 C  
BRANCH   5   6
HETATM    6  C   UNL     1      -9.899  12.427  65.893  1.00  0.00    -0.265 C  
BRANCH   6   7
HETATM    7  C   UNL     1      -9.723  11.520  67.119  1.00  0.00    -0.199 C  
BRANCH   7   8
HETATM    8  C   UNL     1     -10.915  10.581  67.372  1.00  0.00    -0.288 C  
HETATM    9  C   UNL     1     -11.534  10.782  68.764  1.00  0.00    -0.364 C  
HETATM   10  C   UNL     1     -10.620  10.251  69.868  1.00  0.00    -0.276 C  
HETATM   11  S   UNL     1      -9.945   8.660  69.328  1.00  0.00    -0.200 SA 
HETATM   12  S   UNL     1     -10.443   8.821  67.346  1.00  0.00    -0.244 SA 
ENDBRANCH   7   8
ENDBRANCH   6   7
ENDBRANCH   5   6
ENDBRANCH   4   5
TORSDOF 4
ENDMDL
MODEL       41
REMARK 921   NORMALIZED FREE ENERGY PREDICTED BY IDOCK:   -3.52 KCAL/MOL
REMARK 922        TOTAL FREE ENERGY PREDICTED BY IDOCK:   -4.85 KCAL/MOL
REMARK 923 INTER-LIGAND FREE ENERGY PREDICTED BY IDOCK:   -4.63 KCAL/MOL
REMARK 924 INTRA-LIGAND FREE ENERGY PREDICTED BY IDOCK:   -0.22 KCAL/MOL
REMARK 927      BINDING AFFINITY PREDICTED BY RF-SCORE:    0.00 PKD
ROOT
HETATM    1  O   UNL     1     -12.578  13.782  63.174  1.00  0.00    -0.793 OA 
HETATM    2  C   UNL     1     -12.247  13.857  64.485  1.00  0.00    -0.417 C  
HETATM    3  O   UNL     1     -13.040  13.599  65.375  1.00  0.00    -0.704 OA 
HETATM    4  C   UNL     1     -10.820  14.308  64.685  1.00  0.00    -0.384 C  
ENDROOT
BRANCH   4   5
HETATM    5  C   UNL     1     -10.449  14.430  66.164  1.00  0.00    -0.295 C  
BRANCH   5   6
HETATM    6  C   UNL     1     -10.785  15.805  66.755  1.00  0.00    -0.293 C  
BRANCH   6   7
HETATM    7  C   UNL     1     -10.305  16.972  65.880  1.00  0.00    -0.310 C  
BRANCH   7   8
HETATM    8  C   UNL     1      -9.751  18.162  66.684  1.00  0.00    -0.334 C  
HETATM    9  C   UNL     1      -8.275  18.446  66.366  1.00  0.00    -0.280 C  
HETATM   10  C   UNL     1      -7.357  17.368  66.940  1.00  0.00    -0.202 C  
HETATM   11  S   UNL     1      -7.929  16.970  68.613  1.00  0.00    -0.255 SA 
HETATM   12  S   UNL     1      -9.768  17.866  68.482  1.00  0.00    -0.362 SA 
ENDBRANCH   7   8
ENDBRANCH   6   7
ENDBRANCH   5   6
ENDBRANCH   4   5
TORSDOF 4
ENDMDL
MODEL       42
REMARK 921   NORMALIZED FREE ENERGY PREDICTED BY IDOCK:   -3.52 KCAL/MOL
REMARK 922        TOTAL FREE ENERGY PREDICTED BY IDOCK:   -4.85 KCAL/MOL
REMARK 923 INTER-LIGAND FREE ENERGY PREDICTED BY IDOCK:   -4.72 KCAL/MOL
REMARK 924 INTRA-LIGAND FREE ENERGY PREDICTED BY IDOCK:   -0.13 KCAL/MOL
REMARK 927      BINDING AFFINITY PREDICTED BY RF-SCORE:    0.00 PKD
ROOT
HETATM    1  O   UNL     1     -11.763   9.086  71.940  1.00  0.00    -0.346 OA 
HETATM    2  C   UNL     1     -12.163  10.222  71.323  1.00  0.00    -0.395 C  
HETATM    3  O   UNL     1     -13.056  10.926  71.763  1.00  0.00    -0.464 OA 
HETATM    4  C   UNL     1     -11.392  10.477  70.050  1.00  0.00    -0.392 C  
ENDROOT
BRANCH   4   5
HETATM    5  C   UNL     1     -11.861  11.741  69.326  1.00  0.00    -0.389 C  
BRANCH   5   6
HETATM    6  C   UNL     1     -11.598  11.700  67.816  1.00  0.00    -0.359 C  
BRANCH   6   7
HETATM    7  C   UNL     1     -11.435  13.094  67.193  1.00  0.00    -0.378 C  
BRANCH   7   8
HETATM    8  C   UNL     1     -10.454  13.133  66.009  1.00  0.00    -0.284 C  
HETATM    9  C   UNL     1     -10.616  14.400  65.155  1.00  0.00    -0.429 C  
HETATM   10  C   UNL     1     -11.911  14.371  64.345  1.00  0.00    -0.415 C  
HETATM   11  S   UNL     1     -12.111  12.707  63.657  1.00  0.00    -0.565 SA 
HETATM   12  S   UNL     1     -10.717  11.768  64.831  1.00  0.00    -0.305 SA 
ENDBRANCH   7   8
ENDBRANCH   6   7
ENDBRANCH   5   6
ENDBRANCH   4   5
TORSDOF 4
ENDMDL
MODEL       43
REMARK 921   NORMALIZED FREE ENERGY PREDICTED BY IDOCK:   -3.49 KCAL/MOL
REMARK 922        TOTAL FREE ENERGY PREDICTED BY IDOCK:   -4.82 KCAL/MOL
REMARK 923 INTER-LIGAND FREE ENERGY PREDICTED BY IDOCK:   -4.62 KCAL/MOL
REMARK 924 INTRA-LIGAND FREE ENERGY PREDICTED BY IDOCK:   -0.20 KCAL/MOL
REMARK 927      BINDING AFFINITY PREDICTED BY RF-SCORE:    0.00 PKD
ROOT
HETATM    1  O   UNL     1     -10.143  19.911  69.406  1.00  0.00    -0.357 OA 
HETATM    2  C   UNL     1      -9.932  19.615  68.102  1.00  0.00    -0.437 C  
HETATM    3  O   UNL     1      -9.297  20.345  67.360  1.00  0.00    -0.379 OA 
HETATM    4  C   UNL     1     -10.587  18.313  67.704  1.00  0.00    -0.427 C  
ENDROOT
BRANCH   4   5
HETATM    5  C   UNL     1     -10.385  17.988  66.223  1.00  0.00    -0.384 C  
BRANCH   5   6
HETATM    6  C   UNL     1      -9.938  16.541  65.982  1.00  0.00    -0.359 C  
BRANCH   6   7
HETATM    7  C   UNL     1     -10.766  15.824  64.905  1.00  0.00    -0.385 C  
BRANCH   7   8
HETATM    8  C   UNL     1     -10.430  14.330  64.757  1.00  0.00    -0.395 C  
HETATM    9  C   UNL     1     -11.672  13.477  64.459  1.00  0.00    -0.431 C  
HETATM   10  C   UNL     1     -12.581  13.360  65.682  1.00  0.00    -0.438 C  
HETATM   11  S   UNL     1     -11.538  13.079  67.137  1.00  0.00    -0.375 SA 
HETATM   12  S   UNL     1      -9.750  13.606  66.285  1.00  0.00    -0.256 SA 
ENDBRANCH   7   8
ENDBRANCH   6   7
ENDBRANCH   5   6
ENDBRANCH   4   5
TORSDOF 4
ENDMDL
MODEL       44
REMARK 921   NORMALIZED FREE ENERGY PREDICTED BY IDOCK:   -3.48 KCAL/MOL
REMARK 922        TOTAL FREE ENERGY PREDICTED BY IDOCK:   -4.80 KCAL/MOL
REMARK 923 INTER-LIGAND FREE ENERGY PREDICTED BY IDOCK:   -4.63 KCAL/MOL
REMARK 924 INTRA-LIGAND FREE ENERGY PREDICTED BY IDOCK:   -0.18 KCAL/MOL
REMARK 927      BINDING AFFINITY PREDICTED BY RF-SCORE:    0.00 PKD
ROOT
HETATM    1  O   UNL     1     -11.939   7.713  72.241  1.00  0.00    -0.304 OA 
HETATM    2  C   UNL     1     -12.624   8.869  72.078  1.00  0.00    -0.394 C  
HETATM    3  O   UNL     1     -13.731   9.048  72.560  1.00  0.00    -0.472 OA 
HETATM    4  C   UNL     1     -11.866   9.864  71.231  1.00  0.00    -0.479 C  
ENDROOT
BRANCH   4   5
HETATM    5  C   UNL     1     -12.648  11.160  71.012  1.00  0.00    -0.503 C  
BRANCH   5   6
HETATM    6  C   UNL     1     -11.969  12.110  70.018  1.00  0.00    -0.391 C  
BRANCH   6   7
HETATM    7  C   UNL     1     -11.892  11.540  68.594  1.00  0.00    -0.382 C  
BRANCH   7   8
HETATM    8  C   UNL     1     -10.815  12.203  67.718  1.00  0.00    -0.224 C  
HETATM    9  C   UNL     1     -11.082  13.698  67.490  1.00  0.00    -0.296 C  
HETATM   10  C   UNL     1     -12.269  13.921  66.554  1.00  0.00    -0.442 C  
HETATM   11  S   UNL     1     -12.141  12.740  65.187  1.00  0.00    -0.471 SA 
HETATM   12  S   UNL     1     -10.745  11.503  66.036  1.00  0.00    -0.269 SA 
ENDBRANCH   7   8
ENDBRANCH   6   7
ENDBRANCH   5   6
ENDBRANCH   4   5
TORSDOF 4
ENDMDL
MODEL       45
REMARK 921   NORMALIZED FREE ENERGY PREDICTED BY IDOCK:   -3.48 KCAL/MOL
REMARK 922        TOTAL FREE ENERGY PREDICTED BY IDOCK:   -4.80 KCAL/MOL
REMARK 923 INTER-LIGAND FREE ENERGY PREDICTED BY IDOCK:   -4.58 KCAL/MOL
REMARK 924 INTRA-LIGAND FREE ENERGY PREDICTED BY IDOCK:   -0.21 KCAL/MOL
REMARK 927      BINDING AFFINITY PREDICTED BY RF-SCORE:    0.00 PKD
ROOT
HETATM    1  O   UNL     1     -12.282  11.335  67.869  1.00  0.00    -0.570 OA 
HETATM    2  C   UNL     1     -11.896  12.631  67.925  1.00  0.00    -0.332 C  
HETATM    3  O   UNL     1     -11.738  13.222  68.981  1.00  0.00    -0.281 OA 
HETATM    4  C   UNL     1     -11.715  13.229  66.550  1.00  0.00    -0.423 C  
ENDROOT
BRANCH   4   5
HETATM    5  C   UNL     1     -11.314  14.705  66.603  1.00  0.00    -0.358 C  
BRANCH   5   6
HETATM    6  C   UNL     1     -10.064  15.017  65.772  1.00  0.00    -0.367 C  
BRANCH   6   7
HETATM    7  C   UNL     1      -9.401  16.348  66.155  1.00  0.00    -0.360 C  
BRANCH   7   8
HETATM    8  C   UNL     1     -10.364  17.357  66.803  1.00  0.00    -0.305 C  
HETATM    9  C   UNL     1     -10.344  18.722  66.100  1.00  0.00    -0.494 C  
HETATM   10  C   UNL     1      -9.045  19.478  66.375  1.00  0.00    -0.370 C  
HETATM   11  S   UNL     1      -8.639  19.285  68.130  1.00  0.00    -0.337 SA 
HETATM   12  S   UNL     1      -9.925  17.741  68.530  1.00  0.00    -0.386 SA 
ENDBRANCH   7   8
ENDBRANCH   6   7
ENDBRANCH   5   6
ENDBRANCH   4   5
TORSDOF 4
ENDMDL
MODEL       46
REMARK 921   NORMALIZED FREE ENERGY PREDICTED BY IDOCK:   -3.47 KCAL/MOL
REMARK 922        TOTAL FREE ENERGY PREDICTED BY IDOCK:   -4.79 KCAL/MOL
REMARK 923 INTER-LIGAND FREE ENERGY PREDICTED BY IDOCK:   -4.62 KCAL/MOL
REMARK 924 INTRA-LIGAND FREE ENERGY PREDICTED BY IDOCK:   -0.17 KCAL/MOL
REMARK 927      BINDING AFFINITY PREDICTED BY RF-SCORE:    0.00 PKD
ROOT
HETATM    1  O   UNL     1     -11.896   7.907  72.457  1.00  0.00    -0.354 OA 
HETATM    2  C   UNL     1     -12.496   9.014  71.961  1.00  0.00    -0.390 C  
HETATM    3  O   UNL     1     -13.664   9.283  72.189  1.00  0.00    -0.427 OA 
HETATM    4  C   UNL     1     -11.561   9.830  71.100  1.00  0.00    -0.469 C  
ENDROOT
BRANCH   4   5
HETATM    5  C   UNL     1     -12.241  11.064  70.506  1.00  0.00    -0.472 C  
BRANCH   5   6
HETATM    6  C   UNL     1     -11.838  11.329  69.050  1.00  0.00    -0.421 C  
BRANCH   6   7
HETATM    7  C   UNL     1     -11.170  12.697  68.847  1.00  0.00    -0.329 C  
BRANCH   7   8
HETATM    8  C   UNL     1     -11.896  13.598  67.834  1.00  0.00    -0.366 C  
HETATM    9  C   UNL     1     -11.931  12.986  66.425  1.00  0.00    -0.466 C  
HETATM   10  C   UNL     1     -10.552  13.011  65.767  1.00  0.00    -0.277 C  
HETATM   11  S   UNL     1      -9.793  14.620  66.106  1.00  0.00    -0.323 SA 
HETATM   12  S   UNL     1     -11.069  15.204  67.600  1.00  0.00    -0.324 SA 
ENDBRANCH   7   8
ENDBRANCH   6   7
ENDBRANCH   5   6
ENDBRANCH   4   5
TORSDOF 4
ENDMDL
MODEL       47
REMARK 921   NORMALIZED FREE ENERGY PREDICTED BY IDOCK:   -3.45 KCAL/MOL
REMARK 922        TOTAL FREE ENERGY PREDICTED BY IDOCK:   -4.77 KCAL/MOL
REMARK 923 INTER-LIGAND FREE ENERGY PREDICTED BY IDOCK:   -4.57 KCAL/MOL
REMARK 924 INTRA-LIGAND FREE ENERGY PREDICTED BY IDOCK:   -0.20 KCAL/MOL
REMARK 927      BINDING AFFINITY PREDICTED BY RF-SCORE:    0.00 PKD
ROOT
HETATM    1  O   UNL     1     -10.989  11.102  63.227  1.00  0.00    -0.242 OA 
HETATM    2  C   UNL     1     -11.823  12.100  63.605  1.00  0.00    -0.516 C  
HETATM    3  O   UNL     1     -13.029  12.044  63.436  1.00  0.00    -0.772 OA 
HETATM    4  C   UNL     1     -11.076  13.258  64.224  1.00  0.00    -0.414 C  
ENDROOT
BRANCH   4   5
HETATM    5  C   UNL     1     -12.006  14.406  64.621  1.00  0.00    -0.475 C  
BRANCH   5   6
HETATM    6  C   UNL     1     -11.282  15.753  64.732  1.00  0.00    -0.375 C  
BRANCH   6   7
HETATM    7  C   UNL     1     -10.524  15.924  66.057  1.00  0.00    -0.357 C  
BRANCH   7   8
HETATM    8  C   UNL     1     -11.104  15.093  67.215  1.00  0.00    -0.332 C  
HETATM    9  C   UNL     1     -11.548  15.966  68.398  1.00  0.00    -0.317 C  
HETATM   10  C   UNL     1     -10.350  16.549  69.147  1.00  0.00    -0.316 C  
HETATM   11  S   UNL     1      -9.101  15.247  69.317  1.00  0.00    -0.218 SA 
HETATM   12  S   UNL     1      -9.886  13.948  67.939  1.00  0.00    -0.234 SA 
ENDBRANCH   7   8
ENDBRANCH   6   7
ENDBRANCH   5   6
ENDBRANCH   4   5
TORSDOF 4
ENDMDL
MODEL       48
REMARK 921   NORMALIZED FREE ENERGY PREDICTED BY IDOCK:   -3.45 KCAL/MOL
REMARK 922        TOTAL FREE ENERGY PREDICTED BY IDOCK:   -4.76 KCAL/MOL
REMARK 923 INTER-LIGAND FREE ENERGY PREDICTED BY IDOCK:   -4.38 KCAL/MOL
REMARK 924 INTRA-LIGAND FREE ENERGY PREDICTED BY IDOCK:   -0.38 KCAL/MOL
REMARK 927      BINDING AFFINITY PREDICTED BY RF-SCORE:    0.00 PKD
ROOT
HETATM    1  O   UNL     1     -12.374  16.288  63.836  1.00  0.00    -0.874 OA 
HETATM    2  C   UNL     1     -11.463  15.431  64.354  1.00  0.00    -0.255 C  
HETATM    3  O   UNL     1     -10.432  15.812  64.881  1.00  0.00    -0.499 OA 
HETATM    4  C   UNL     1     -11.877  13.989  64.177  1.00  0.00    -0.393 C  
ENDROOT
BRANCH   4   5
HETATM    5  C   UNL     1     -10.837  13.012  64.727  1.00  0.00    -0.357 C  
BRANCH   5   6
HETATM    6  C   UNL     1     -11.368  12.161  65.887  1.00  0.00    -0.407 C  
BRANCH   6   7
HETATM    7  C   UNL     1     -12.025  12.996  66.997  1.00  0.00    -0.409 C  
BRANCH   7   8
HETATM    8  C   UNL     1     -11.349  12.843  68.370  1.00  0.00    -0.294 C  
HETATM    9  C   UNL     1     -10.937  14.195  68.974  1.00  0.00    -0.286 C  
HETATM   10  C   UNL     1      -9.750  14.805  68.230  1.00  0.00    -0.218 C  
HETATM   11  S   UNL     1      -8.553  13.487  67.897  1.00  0.00    -0.195 SA 
HETATM   12  S   UNL     1      -9.791  11.901  68.288  1.00  0.00    -0.198 SA 
ENDBRANCH   7   8
ENDBRANCH   6   7
ENDBRANCH   5   6
ENDBRANCH   4   5
TORSDOF 4
ENDMDL
MODEL       49
REMARK 921   NORMALIZED FREE ENERGY PREDICTED BY IDOCK:   -3.44 KCAL/MOL
REMARK 922        TOTAL FREE ENERGY PREDICTED BY IDOCK:   -4.75 KCAL/MOL
REMARK 923 INTER-LIGAND FREE ENERGY PREDICTED BY IDOCK:   -4.54 KCAL/MOL
REMARK 924 INTRA-LIGAND FREE ENERGY PREDICTED BY IDOCK:   -0.21 KCAL/MOL
REMARK 927      BINDING AFFINITY PREDICTED BY RF-SCORE:    0.00 PKD
ROOT
HETATM    1  O   UNL     1     -14.230  13.426  72.626  1.00  0.00    -0.747 OA 
HETATM    2  C   UNL     1     -13.248  13.198  71.723  1.00  0.00    -0.403 C  
HETATM    3  O   UNL     1     -12.654  14.103  71.160  1.00  0.00    -0.324 OA 
HETATM    4  C   UNL     1     -13.012  11.723  71.501  1.00  0.00    -0.446 C  
ENDROOT
BRANCH   4   5
HETATM    5  C   UNL     1     -11.929  11.456  70.454  1.00  0.00    -0.465 C  
BRANCH   5   6
HETATM    6  C   UNL     1     -11.312  10.057  70.573  1.00  0.00    -0.409 C  
BRANCH   6   7
HETATM    7  C   UNL     1     -11.791   9.289  71.814  1.00  0.00    -0.454 C  
BRANCH   7   8
HETATM    8  C   UNL     1     -11.396   7.802  71.813  1.00  0.00    -0.261 C  
HETATM    9  C   UNL     1     -10.677   7.385  73.105  1.00  0.00    -0.436 C  
HETATM   10  C   UNL     1      -9.267   7.969  73.178  1.00  0.00    -0.279 C  
HETATM   11  S   UNL     1      -8.501   7.801  71.545  1.00  0.00    -0.122 SA 
HETATM   12  S   UNL     1     -10.210   7.389  70.492  1.00  0.00    -0.194 SA 
ENDBRANCH   7   8
ENDBRANCH   6   7
ENDBRANCH   5   6
ENDBRANCH   4   5
TORSDOF 4
ENDMDL
MODEL       50
REMARK 921   NORMALIZED FREE ENERGY PREDICTED BY IDOCK:   -3.44 KCAL/MOL
REMARK 922        TOTAL FREE ENERGY PREDICTED BY IDOCK:   -4.75 KCAL/MOL
REMARK 923 INTER-LIGAND FREE ENERGY PREDICTED BY IDOCK:   -4.56 KCAL/MOL
REMARK 924 INTRA-LIGAND FREE ENERGY PREDICTED BY IDOCK:   -0.18 KCAL/MOL
REMARK 927      BINDING AFFINITY PREDICTED BY RF-SCORE:    0.00 PKD
ROOT
HETATM    1  O   UNL     1     -10.396  19.756  66.991  1.00  0.00    -0.411 OA 
HETATM    2  C   UNL     1     -10.298  18.421  66.794  1.00  0.00    -0.394 C  
HETATM    3  O   UNL     1     -10.233  17.927  65.681  1.00  0.00    -0.589 OA 
HETATM    4  C   UNL     1     -10.301  17.654  68.095  1.00  0.00    -0.386 C  
ENDROOT
BRANCH   4   5
HETATM    5  C   UNL     1     -10.227  16.141  67.881  1.00  0.00    -0.261 C  
BRANCH   5   6
HETATM    6  C   UNL     1     -11.314  15.374  68.644  1.00  0.00    -0.337 C  
BRANCH   6   7
HETATM    7  C   UNL     1     -11.082  15.345  70.161  1.00  0.00    -0.324 C  
BRANCH   7   8
HETATM    8  C   UNL     1     -12.165  16.082  70.968  1.00  0.00    -0.285 C  
HETATM    9  C   UNL     1     -11.797  16.220  72.453  1.00  0.00    -0.606 C  
HETATM   10  C   UNL     1     -11.879  14.879  73.181  1.00  0.00    -0.163 C  
HETATM   11  S   UNL     1     -13.380  14.027  72.630  1.00  0.00    -0.495 SA 
HETATM   12  S   UNL     1     -13.756  15.193  70.987  1.00  0.00    -0.312 SA 
ENDBRANCH   7   8
ENDBRANCH   6   7
ENDBRANCH   5   6
ENDBRANCH   4   5
TORSDOF 4
ENDMDL
MODEL       51
REMARK 921   NORMALIZED FREE ENERGY PREDICTED BY IDOCK:   -3.44 KCAL/MOL
REMARK 922        TOTAL FREE ENERGY PREDICTED BY IDOCK:   -4.75 KCAL/MOL
REMARK 923 INTER-LIGAND FREE ENERGY PREDICTED BY IDOCK:   -4.49 KCAL/MOL
REMARK 924 INTRA-LIGAND FREE ENERGY PREDICTED BY IDOCK:   -0.25 KCAL/MOL
REMARK 927      BINDING AFFINITY PREDICTED BY RF-SCORE:    0.00 PKD
ROOT
HETATM    1  O   UNL     1     -13.337  11.784  72.188  1.00  0.00    -0.497 OA 
HETATM    2  C   UNL     1     -13.392  13.130  72.051  1.00  0.00    -0.493 C  
HETATM    3  O   UNL     1     -14.080  13.833  72.771  1.00  0.00    -0.694 OA 
HETATM    4  C   UNL     1     -12.531  13.619  70.910  1.00  0.00    -0.448 C  
ENDROOT
BRANCH   4   5
HETATM    5  C   UNL     1     -12.614  15.135  70.725  1.00  0.00    -0.452 C  
BRANCH   5   6
HETATM    6  C   UNL     1     -11.993  15.613  69.406  1.00  0.00    -0.349 C  
BRANCH   6   7
HETATM    7  C   UNL     1     -10.660  16.350  69.598  1.00  0.00    -0.307 C  
BRANCH   7   8
HETATM    8  C   UNL     1      -9.447  15.595  69.028  1.00  0.00    -0.243 C  
HETATM    9  C   UNL     1      -8.485  16.521  68.269  1.00  0.00    -0.199 C  
HETATM   10  C   UNL     1      -9.079  16.984  66.939  1.00  0.00    -0.236 C  
HETATM   11  S   UNL     1      -9.878  15.561  66.152  1.00  0.00    -0.344 SA 
HETATM   12  S   UNL     1      -9.916  14.337  67.795  1.00  0.00    -0.230 SA 
ENDBRANCH   7   8
ENDBRANCH   6   7
ENDBRANCH   5   6
ENDBRANCH   4   5
TORSDOF 4
ENDMDL
MODEL       52
REMARK 921   NORMALIZED FREE ENERGY PREDICTED BY IDOCK:   -3.42 KCAL/MOL
REMARK 922        TOTAL FREE ENERGY PREDICTED BY IDOCK:   -4.73 KCAL/MOL
REMARK 923 INTER-LIGAND FREE ENERGY PREDICTED BY IDOCK:   -4.65 KCAL/MOL
REMARK 924 INTRA-LIGAND FREE ENERGY PREDICTED BY IDOCK:   -0.08 KCAL/MOL
REMARK 927      BINDING AFFINITY PREDICTED BY RF-SCORE:    0.00 PKD
ROOT
HETATM    1  O   UNL     1     -13.357  16.696  74.051  1.00  0.00    -0.456 OA 
HETATM    2  C   UNL     1     -13.050  15.493  73.512  1.00  0.00    -0.489 C  
HETATM    3  O   UNL     1     -12.196  14.762  73.986  1.00  0.00    -0.485 OA 
HETATM    4  C   UNL     1     -13.866  15.201  72.275  1.00  0.00    -0.618 C  
ENDROOT
BRANCH   4   5
HETATM    5  C   UNL     1     -13.501  13.859  71.637  1.00  0.00    -0.428 C  
BRANCH   5   6
HETATM    6  C   UNL     1     -12.104  13.857  71.005  1.00  0.00    -0.357 C  
BRANCH   6   7
HETATM    7  C   UNL     1     -12.129  13.646  69.484  1.00  0.00    -0.368 C  
BRANCH   7   8
HETATM    8  C   UNL     1     -11.893  14.933  68.675  1.00  0.00    -0.300 C  
HETATM    9  C   UNL     1     -11.099  14.677  67.385  1.00  0.00    -0.331 C  
HETATM   10  C   UNL     1      -9.635  14.352  67.680  1.00  0.00    -0.214 C  
HETATM   11  S   UNL     1      -9.053  15.484  68.969  1.00  0.00    -0.252 SA 
HETATM   12  S   UNL     1     -10.891  16.158  69.578  1.00  0.00    -0.352 SA 
ENDBRANCH   7   8
ENDBRANCH   6   7
ENDBRANCH   5   6
ENDBRANCH   4   5
TORSDOF 4
ENDMDL
MODEL       53
REMARK 921   NORMALIZED FREE ENERGY PREDICTED BY IDOCK:   -3.40 KCAL/MOL
REMARK 922        TOTAL FREE ENERGY PREDICTED BY IDOCK:   -4.71 KCAL/MOL
REMARK 923 INTER-LIGAND FREE ENERGY PREDICTED BY IDOCK:   -4.50 KCAL/MOL
REMARK 924 INTRA-LIGAND FREE ENERGY PREDICTED BY IDOCK:   -0.20 KCAL/MOL
REMARK 927      BINDING AFFINITY PREDICTED BY RF-SCORE:    0.00 PKD
ROOT
HETATM    1  O   UNL     1     -12.679  12.126  63.406  1.00  0.00    -0.722 OA 
HETATM    2  C   UNL     1     -11.829  12.824  64.194  1.00  0.00    -0.413 C  
HETATM    3  O   UNL     1     -10.655  12.990  63.905  1.00  0.00    -0.396 OA 
HETATM    4  C   UNL     1     -12.504  13.333  65.445  1.00  0.00    -0.543 C  
ENDROOT
BRANCH   4   5
HETATM    5  C   UNL     1     -11.542  14.093  66.360  1.00  0.00    -0.380 C  
BRANCH   5   6
HETATM    6  C   UNL     1     -11.951  14.039  67.837  1.00  0.00    -0.387 C  
BRANCH   6   7
HETATM    7  C   UNL     1     -11.218  12.945  68.627  1.00  0.00    -0.321 C  
BRANCH   7   8
HETATM    8  C   UNL     1     -11.776  11.531  68.392  1.00  0.00    -0.303 C  
HETATM    9  C   UNL     1     -12.087  10.797  69.705  1.00  0.00    -0.361 C  
HETATM   10  C   UNL     1     -10.810  10.391  70.439  1.00  0.00    -0.189 C  
HETATM   11  S   UNL     1      -9.639   9.740  69.219  1.00  0.00    -0.210 SA 
HETATM   12  S   UNL     1     -10.591  10.437  67.543  1.00  0.00    -0.281 SA 
ENDBRANCH   7   8
ENDBRANCH   6   7
ENDBRANCH   5   6
ENDBRANCH   4   5
TORSDOF 4
ENDMDL
MODEL       54
REMARK 921   NORMALIZED FREE ENERGY PREDICTED BY IDOCK:   -3.40 KCAL/MOL
REMARK 922        TOTAL FREE ENERGY PREDICTED BY IDOCK:   -4.70 KCAL/MOL
REMARK 923 INTER-LIGAND FREE ENERGY PREDICTED BY IDOCK:   -4.51 KCAL/MOL
REMARK 924 INTRA-LIGAND FREE ENERGY PREDICTED BY IDOCK:   -0.19 KCAL/MOL
REMARK 927      BINDING AFFINITY PREDICTED BY RF-SCORE:    0.00 PKD
ROOT
HETATM    1  O   UNL     1     -12.551  13.971  63.331  1.00  0.00    -0.845 OA 
HETATM    2  C   UNL     1     -12.193  12.672  63.460  1.00  0.00    -0.547 C  
HETATM    3  O   UNL     1     -13.008  11.764  63.452  1.00  0.00    -0.646 OA 
HETATM    4  C   UNL     1     -10.701  12.509  63.628  1.00  0.00    -0.469 C  
ENDROOT
BRANCH   4   5
HETATM    5  C   UNL     1     -10.290  11.047  63.812  1.00  0.00    -0.427 C  
BRANCH   5   6
HETATM    6  C   UNL     1     -10.158  10.641  65.284  1.00  0.00    -0.363 C  
BRANCH   6   7
HETATM    7  C   UNL     1      -9.513   9.260  65.475  1.00  0.00    -0.309 C  
BRANCH   7   8
HETATM    8  C   UNL     1     -10.221   8.386  66.525  1.00  0.00    -0.207 C  
HETATM    9  C   UNL     1     -10.498   9.146  67.830  1.00  0.00    -0.293 C  
HETATM   10  C   UNL     1      -9.213   9.405  68.615  1.00  0.00    -0.131 C  
HETATM   11  S   UNL     1      -8.208   7.898  68.566  1.00  0.00    -0.128 SA 
HETATM   12  S   UNL     1      -9.215   6.959  67.048  1.00  0.00    -0.148 SA 
ENDBRANCH   7   8
ENDBRANCH   6   7
ENDBRANCH   5   6
ENDBRANCH   4   5
TORSDOF 4
ENDMDL
MODEL       55
REMARK 921   NORMALIZED FREE ENERGY PREDICTED BY IDOCK:   -3.38 KCAL/MOL
REMARK 922        TOTAL FREE ENERGY PREDICTED BY IDOCK:   -4.68 KCAL/MOL
REMARK 923 INTER-LIGAND FREE ENERGY PREDICTED BY IDOCK:   -4.47 KCAL/MOL
REMARK 924 INTRA-LIGAND FREE ENERGY PREDICTED BY IDOCK:   -0.21 KCAL/MOL
REMARK 927      BINDING AFFINITY PREDICTED BY RF-SCORE:    0.00 PKD
ROOT
HETATM    1  O   UNL     1      -9.778  20.711  67.016  1.00  0.00    -0.439 OA 
HETATM    2  C   UNL     1      -9.487  19.417  67.286  1.00  0.00    -0.318 C  
HETATM    3  O   UNL     1      -8.497  19.087  67.916  1.00  0.00    -0.283 OA 
HETATM    4  C   UNL     1     -10.511  18.472  66.702  1.00  0.00    -0.436 C  
ENDROOT
BRANCH   4   5
HETATM    5  C   UNL     1     -10.171  17.005  66.971  1.00  0.00    -0.303 C  
BRANCH   5   6
HETATM    6  C   UNL     1     -10.361  16.110  65.740  1.00  0.00    -0.398 C  
BRANCH   6   7
HETATM    7  C   UNL     1      -9.630  14.765  65.853  1.00  0.00    -0.320 C  
BRANCH   7   8
HETATM    8  C   UNL     1     -10.557  13.580  66.173  1.00  0.00    -0.290 C  
HETATM    9  C   UNL     1     -10.146  12.298  65.432  1.00  0.00    -0.292 C  
HETATM   10  C   UNL     1     -10.446  12.392  63.936  1.00  0.00    -0.439 C  
HETATM   11  S   UNL     1     -12.080  13.148  63.734  1.00  0.00    -0.471 SA 
HETATM   12  S   UNL     1     -12.277  13.867  65.643  1.00  0.00    -0.481 SA 
ENDBRANCH   7   8
ENDBRANCH   6   7
ENDBRANCH   5   6
ENDBRANCH   4   5
TORSDOF 4
ENDMDL
MODEL       56
REMARK 921   NORMALIZED FREE ENERGY PREDICTED BY IDOCK:   -3.38 KCAL/MOL
REMARK 922        TOTAL FREE ENERGY PREDICTED BY IDOCK:   -4.67 KCAL/MOL
REMARK 923 INTER-LIGAND FREE ENERGY PREDICTED BY IDOCK:   -4.30 KCAL/MOL
REMARK 924 INTRA-LIGAND FREE ENERGY PREDICTED BY IDOCK:   -0.38 KCAL/MOL
REMARK 927      BINDING AFFINITY PREDICTED BY RF-SCORE:    0.00 PKD
ROOT
HETATM    1  O   UNL     1     -12.595  14.729  63.911  1.00  0.00    -0.834 OA 
HETATM    2  C   UNL     1     -12.533  13.807  64.901  1.00  0.00    -0.386 C  
HETATM    3  O   UNL     1     -13.013  12.691  64.786  1.00  0.00    -0.816 OA 
HETATM    4  C   UNL     1     -11.831  14.338  66.128  1.00  0.00    -0.413 C  
ENDROOT
BRANCH   4   5
HETATM    5  C   UNL     1     -11.787  13.315  67.264  1.00  0.00    -0.421 C  
BRANCH   5   6
HETATM    6  C   UNL     1     -10.391  12.720  67.483  1.00  0.00    -0.219 C  
BRANCH   6   7
HETATM    7  C   UNL     1     -10.417  11.220  67.806  1.00  0.00    -0.218 C  
BRANCH   7   8
HETATM    8  C   UNL     1     -10.733  10.329  66.592  1.00  0.00    -0.113 C  
HETATM    9  C   UNL     1     -10.303   8.870  66.807  1.00  0.00    -0.317 C  
HETATM   10  C   UNL     1      -8.782   8.722  66.778  1.00  0.00    -0.124 C  
HETATM   11  S   UNL     1      -8.142   9.730  65.416  1.00  0.00    -0.134 SA 
HETATM   12  S   UNL     1      -9.834  10.840  65.091  1.00  0.00    -0.301 SA 
ENDBRANCH   7   8
ENDBRANCH   6   7
ENDBRANCH   5   6
ENDBRANCH   4   5
TORSDOF 4
ENDMDL
MODEL       57
REMARK 921   NORMALIZED FREE ENERGY PREDICTED BY IDOCK:   -3.38 KCAL/MOL
REMARK 922        TOTAL FREE ENERGY PREDICTED BY IDOCK:   -4.67 KCAL/MOL
REMARK 923 INTER-LIGAND FREE ENERGY PREDICTED BY IDOCK:   -4.48 KCAL/MOL
REMARK 924 INTRA-LIGAND FREE ENERGY PREDICTED BY IDOCK:   -0.19 KCAL/MOL
REMARK 927      BINDING AFFINITY PREDICTED BY RF-SCORE:    0.00 PKD
ROOT
HETATM    1  O   UNL     1     -13.170  15.810  70.853  1.00  0.00    -0.560 OA 
HETATM    2  C   UNL     1     -13.117  14.478  71.090  1.00  0.00    -0.359 C  
HETATM    3  O   UNL     1     -13.765  13.945  71.975  1.00  0.00    -0.408 OA 
HETATM    4  C   UNL     1     -12.164  13.773  70.154  1.00  0.00    -0.425 C  
ENDROOT
BRANCH   4   5
HETATM    5  C   UNL     1     -12.070  12.273  70.438  1.00  0.00    -0.385 C  
BRANCH   5   6
HETATM    6  C   UNL     1     -11.556  11.467  69.239  1.00  0.00    -0.384 C  
BRANCH   6   7
HETATM    7  C   UNL     1     -10.977  12.347  68.122  1.00  0.00    -0.263 C  
BRANCH   7   8
HETATM    8  C   UNL     1     -11.816  12.343  66.832  1.00  0.00    -0.307 C  
HETATM    9  C   UNL     1     -11.048  11.761  65.636  1.00  0.00    -0.340 C  
HETATM   10  C   UNL     1      -9.947  12.707  65.159  1.00  0.00    -0.174 C  
HETATM   11  S   UNL     1     -10.611  14.392  65.157  1.00  0.00    -0.435 SA 
HETATM   12  S   UNL     1     -12.279  14.020  66.288  1.00  0.00    -0.437 SA 
ENDBRANCH   7   8
ENDBRANCH   6   7
ENDBRANCH   5   6
ENDBRANCH   4   5
TORSDOF 4
ENDMDL
MODEL       58
REMARK 921   NORMALIZED FREE ENERGY PREDICTED BY IDOCK:   -3.37 KCAL/MOL
REMARK 922        TOTAL FREE ENERGY PREDICTED BY IDOCK:   -4.67 KCAL/MOL
REMARK 923 INTER-LIGAND FREE ENERGY PREDICTED BY IDOCK:   -4.54 KCAL/MOL
REMARK 924 INTRA-LIGAND FREE ENERGY PREDICTED BY IDOCK:   -0.13 KCAL/MOL
REMARK 927      BINDING AFFINITY PREDICTED BY RF-SCORE:    0.00 PKD
ROOT
HETATM    1  O   UNL     1     -13.527  12.210  64.379  1.00  0.00    -0.675 OA 
HETATM    2  C   UNL     1     -12.425  12.670  65.017  1.00  0.00    -0.487 C  
HETATM    3  O   UNL     1     -11.965  12.123  66.006  1.00  0.00    -0.578 OA 
HETATM    4  C   UNL     1     -11.878  13.921  64.372  1.00  0.00    -0.456 C  
ENDROOT
BRANCH   4   5
HETATM    5  C   UNL     1     -10.654  14.470  65.109  1.00  0.00    -0.429 C  
BRANCH   5   6
HETATM    6  C   UNL     1     -11.019  15.268  66.366  1.00  0.00    -0.299 C  
BRANCH   6   7
HETATM    7  C   UNL     1     -10.149  16.518  66.562  1.00  0.00    -0.307 C  
BRANCH   7   8
HETATM    8  C   UNL     1     -10.084  17.006  68.020  1.00  0.00    -0.305 C  
HETATM    9  C   UNL     1      -8.774  17.745  68.333  1.00  0.00    -0.292 C  
HETATM   10  C   UNL     1      -7.586  16.785  68.387  1.00  0.00    -0.205 C  
HETATM   11  S   UNL     1      -8.100  15.300  69.287  1.00  0.00    -0.233 SA 
HETATM   12  S   UNL     1     -10.120  15.638  69.223  1.00  0.00    -0.276 SA 
ENDBRANCH   7   8
ENDBRANCH   6   7
ENDBRANCH   5   6
ENDBRANCH   4   5
TORSDOF 4
ENDMDL
MODEL       59
REMARK 921   NORMALIZED FREE ENERGY PREDICTED BY IDOCK:   -3.35 KCAL/MOL
REMARK 922        TOTAL FREE ENERGY PREDICTED BY IDOCK:   -4.65 KCAL/MOL
REMARK 923 INTER-LIGAND FREE ENERGY PREDICTED BY IDOCK:   -4.48 KCAL/MOL
REMARK 924 INTRA-LIGAND FREE ENERGY PREDICTED BY IDOCK:   -0.16 KCAL/MOL
REMARK 927      BINDING AFFINITY PREDICTED BY RF-SCORE:    0.00 PKD
ROOT
HETATM    1  O   UNL     1     -11.912   8.778  72.454  1.00  0.00    -0.359 OA 
HETATM    2  C   UNL     1     -12.215   9.911  71.778  1.00  0.00    -0.341 C  
HETATM    3  O   UNL     1     -13.173  10.609  72.066  1.00  0.00    -0.473 OA 
HETATM    4  C   UNL     1     -11.249  10.172  70.647  1.00  0.00    -0.418 C  
ENDROOT
BRANCH   4   5
HETATM    5  C   UNL     1     -11.604  11.431  69.854  1.00  0.00    -0.402 C  
BRANCH   5   6
HETATM    6  C   UNL     1     -11.624  11.199  68.338  1.00  0.00    -0.376 C  
BRANCH   6   7
HETATM    7  C   UNL     1     -11.910  12.477  67.535  1.00  0.00    -0.389 C  
BRANCH   7   8
HETATM    8  C   UNL     1     -11.362  12.442  66.098  1.00  0.00    -0.352 C  
HETATM    9  C   UNL     1      -9.869  12.797  66.031  1.00  0.00    -0.258 C  
HETATM   10  C   UNL     1      -9.631  14.283  66.302  1.00  0.00    -0.288 C  
HETATM   11  S   UNL     1     -10.894  15.228  65.412  1.00  0.00    -0.408 SA 
HETATM   12  S   UNL     1     -12.159  13.667  65.010  1.00  0.00    -0.418 SA 
ENDBRANCH   7   8
ENDBRANCH   6   7
ENDBRANCH   5   6
ENDBRANCH   4   5
TORSDOF 4
ENDMDL
MODEL       60
REMARK 921   NORMALIZED FREE ENERGY PREDICTED BY IDOCK:   -3.31 KCAL/MOL
REMARK 922        TOTAL FREE ENERGY PREDICTED BY IDOCK:   -4.60 KCAL/MOL
REMARK 923 INTER-LIGAND FREE ENERGY PREDICTED BY IDOCK:   -4.19 KCAL/MOL
REMARK 924 INTRA-LIGAND FREE ENERGY PREDICTED BY IDOCK:   -0.40 KCAL/MOL
REMARK 927      BINDING AFFINITY PREDICTED BY RF-SCORE:    0.00 PKD
ROOT
HETATM    1  O   UNL     1      -9.541   9.989  64.363  1.00  0.00    -0.296 OA 
HETATM    2  C   UNL     1     -10.043  11.035  63.665  1.00  0.00    -0.371 C  
HETATM    3  O   UNL     1      -9.510  11.464  62.655  1.00  0.00    -0.344 OA 
HETATM    4  C   UNL     1     -11.296  11.591  64.299  1.00  0.00    -0.320 C  
ENDROOT
BRANCH   4   5
HETATM    5  C   UNL     1     -11.850  12.797  63.538  1.00  0.00    -0.618 C  
BRANCH   5   6
HETATM    6  C   UNL     1     -11.792  14.096  64.350  1.00  0.00    -0.447 C  
BRANCH   6   7
HETATM    7  C   UNL     1     -10.395  14.397  64.911  1.00  0.00    -0.419 C  
BRANCH   7   8
HETATM    8  C   UNL     1     -10.400  14.839  66.385  1.00  0.00    -0.293 C  
HETATM    9  C   UNL     1      -9.186  14.308  67.160  1.00  0.00    -0.230 C  
HETATM   10  C   UNL     1      -9.286  12.802  67.401  1.00  0.00    -0.193 C  
HETATM   11  S   UNL     1     -10.990  12.419  67.885  1.00  0.00    -0.242 SA 
HETATM   12  S   UNL     1     -11.834  14.196  67.308  1.00  0.00    -0.420 SA 
ENDBRANCH   7   8
ENDBRANCH   6   7
ENDBRANCH   5   6
ENDBRANCH   4   5
TORSDOF 4
ENDMDL
MODEL       61
REMARK 921   NORMALIZED FREE ENERGY PREDICTED BY IDOCK:   -3.29 KCAL/MOL
REMARK 922        TOTAL FREE ENERGY PREDICTED BY IDOCK:   -4.57 KCAL/MOL
REMARK 923 INTER-LIGAND FREE ENERGY PREDICTED BY IDOCK:   -4.41 KCAL/MOL
REMARK 924 INTRA-LIGAND FREE ENERGY PREDICTED BY IDOCK:   -0.16 KCAL/MOL
REMARK 927      BINDING AFFINITY PREDICTED BY RF-SCORE:    0.00 PKD
ROOT
HETATM    1  O   UNL     1     -14.350   8.831  72.638  1.00  0.00    -0.585 OA 
HETATM    2  C   UNL     1     -13.158   9.109  72.061  1.00  0.00    -0.429 C  
HETATM    3  O   UNL     1     -12.136   8.506  72.347  1.00  0.00    -0.377 OA 
HETATM    4  C   UNL     1     -13.259  10.239  71.065  1.00  0.00    -0.399 C  
ENDROOT
BRANCH   4   5
HETATM    5  C   UNL     1     -11.909  10.584  70.434  1.00  0.00    -0.431 C  
BRANCH   5   6
HETATM    6  C   UNL     1     -12.034  11.504  69.213  1.00  0.00    -0.397 C  
BRANCH   6   7
HETATM    7  C   UNL     1     -11.774  12.981  69.541  1.00  0.00    -0.381 C  
BRANCH   7   8
HETATM    8  C   UNL     1     -11.575  13.866  68.298  1.00  0.00    -0.337 C  
HETATM    9  C   UNL     1     -10.275  13.538  67.548  1.00  0.00    -0.234 C  
HETATM   10  C   UNL     1      -9.044  14.000  68.325  1.00  0.00    -0.191 C  
HETATM   11  S   UNL     1      -9.385  15.647  68.998  1.00  0.00    -0.261 SA 
HETATM   12  S   UNL     1     -11.414  15.634  68.710  1.00  0.00    -0.390 SA 
ENDBRANCH   7   8
ENDBRANCH   6   7
ENDBRANCH   5   6
ENDBRANCH   4   5
TORSDOF 4
ENDMDL
MODEL       62
REMARK 921   NORMALIZED FREE ENERGY PREDICTED BY IDOCK:   -3.29 KCAL/MOL
REMARK 922        TOTAL FREE ENERGY PREDICTED BY IDOCK:   -4.57 KCAL/MOL
REMARK 923 INTER-LIGAND FREE ENERGY PREDICTED BY IDOCK:   -4.31 KCAL/MOL
REMARK 924 INTRA-LIGAND FREE ENERGY PREDICTED BY IDOCK:   -0.26 KCAL/MOL
REMARK 927      BINDING AFFINITY PREDICTED BY RF-SCORE:    0.00 PKD
ROOT
HETATM    1  O   UNL     1      -7.926  19.619  67.350  1.00  0.00    -0.263 OA 
HETATM    2  C   UNL     1      -8.431  18.613  66.597  1.00  0.00    -0.292 C  
HETATM    3  O   UNL     1      -7.743  17.964  65.827  1.00  0.00    -0.538 OA 
HETATM    4  C   UNL     1      -9.912  18.426  66.821  1.00  0.00    -0.374 C  
ENDROOT
BRANCH   4   5
HETATM    5  C   UNL     1     -10.499  17.316  65.947  1.00  0.00    -0.267 C  
BRANCH   5   6
HETATM    6  C   UNL     1     -10.442  15.936  66.614  1.00  0.00    -0.306 C  
BRANCH   6   7
HETATM    7  C   UNL     1      -9.966  14.826  65.665  1.00  0.00    -0.390 C  
BRANCH   7   8
HETATM    8  C   UNL     1     -11.108  14.120  64.914  1.00  0.00    -0.385 C  
HETATM    9  C   UNL     1     -12.175  13.557  65.865  1.00  0.00    -0.507 C  
HETATM   10  C   UNL     1     -11.658  12.343  66.636  1.00  0.00    -0.385 C  
HETATM   11  S   UNL     1     -10.736  11.293  65.483  1.00  0.00    -0.178 SA 
HETATM   12  S   UNL     1     -10.540  12.666  63.974  1.00  0.00    -0.424 SA 
ENDBRANCH   7   8
ENDBRANCH   6   7
ENDBRANCH   5   6
ENDBRANCH   4   5
TORSDOF 4
ENDMDL
MODEL       63
REMARK 921   NORMALIZED FREE ENERGY PREDICTED BY IDOCK:   -3.28 KCAL/MOL
REMARK 922        TOTAL FREE ENERGY PREDICTED BY IDOCK:   -4.55 KCAL/MOL
REMARK 923 INTER-LIGAND FREE ENERGY PREDICTED BY IDOCK:   -4.19 KCAL/MOL
REMARK 924 INTRA-LIGAND FREE ENERGY PREDICTED BY IDOCK:   -0.36 KCAL/MOL
REMARK 927      BINDING AFFINITY PREDICTED BY RF-SCORE:    0.00 PKD
ROOT
HETATM    1  O   UNL     1     -10.990  19.751  67.086  1.00  0.00    -0.426 OA 
HETATM    2  C   UNL     1     -10.090  18.740  67.097  1.00  0.00    -0.354 C  
HETATM    3  O   UNL     1      -9.604  18.285  66.075  1.00  0.00    -0.497 OA 
HETATM    4  C   UNL     1      -9.797  18.257  68.498  1.00  0.00    -0.400 C  
ENDROOT
BRANCH   4   5
HETATM    5  C   UNL     1      -8.807  17.090  68.518  1.00  0.00    -0.253 C  
BRANCH   5   6
HETATM    6  C   UNL     1      -9.496  15.720  68.553  1.00  0.00    -0.201 C  
BRANCH   6   7
HETATM    7  C   UNL     1      -9.492  15.007  67.194  1.00  0.00    -0.223 C  
BRANCH   7   8
HETATM    8  C   UNL     1     -10.889  14.863  66.564  1.00  0.00    -0.322 C  
HETATM    9  C   UNL     1     -11.859  14.082  67.463  1.00  0.00    -0.442 C  
HETATM   10  C   UNL     1     -11.506  12.596  67.515  1.00  0.00    -0.340 C  
HETATM   11  S   UNL     1     -11.091  12.056  65.836  1.00  0.00    -0.328 SA 
HETATM   12  S   UNL     1     -10.866  13.917  65.008  1.00  0.00    -0.405 SA 
ENDBRANCH   7   8
ENDBRANCH   6   7
ENDBRANCH   5   6
ENDBRANCH   4   5
TORSDOF 4
ENDMDL
MODEL       64
REMARK 921   NORMALIZED FREE ENERGY PREDICTED BY IDOCK:   -3.25 KCAL/MOL
REMARK 922        TOTAL FREE ENERGY PREDICTED BY IDOCK:   -4.51 KCAL/MOL
REMARK 923 INTER-LIGAND FREE ENERGY PREDICTED BY IDOCK:   -4.31 KCAL/MOL
REMARK 924 INTRA-LIGAND FREE ENERGY PREDICTED BY IDOCK:   -0.21 KCAL/MOL
REMARK 927      BINDING AFFINITY PREDICTED BY RF-SCORE:    0.00 PKD
ROOT
HETATM    1  O   UNL     1     -12.267   6.524  71.814  1.00  0.00    -0.344 OA 
HETATM    2  C   UNL     1     -13.048   7.613  71.622  1.00  0.00    -0.353 C  
HETATM    3  O   UNL     1     -14.180   7.535  71.175  1.00  0.00    -0.348 OA 
HETATM    4  C   UNL     1     -12.342   8.892  72.005  1.00  0.00    -0.460 C  
ENDROOT
BRANCH   4   5
HETATM    5  C   UNL     1     -13.204  10.131  71.758  1.00  0.00    -0.542 C  
BRANCH   5   6
HETATM    6  C   UNL     1     -12.489  11.203  70.926  1.00  0.00    -0.509 C  
BRANCH   6   7
HETATM    7  C   UNL     1     -11.562  10.615  69.851  1.00  0.00    -0.396 C  
BRANCH   7   8
HETATM    8  C   UNL     1     -11.770  11.224  68.453  1.00  0.00    -0.294 C  
HETATM    9  C   UNL     1     -10.731  10.726  67.437  1.00  0.00    -0.317 C  
HETATM   10  C   UNL     1      -9.348  11.314  67.711  1.00  0.00    -0.163 C  
HETATM   11  S   UNL     1      -9.549  13.069  68.110  1.00  0.00    -0.222 SA 
HETATM   12  S   UNL     1     -11.572  13.036  68.438  1.00  0.00    -0.357 SA 
ENDBRANCH   7   8
ENDBRANCH   6   7
ENDBRANCH   5   6
ENDBRANCH   4   5
TORSDOF 4
ENDMDL
MODEL       65
REMARK 921   NORMALIZED FREE ENERGY PREDICTED BY IDOCK:   -3.23 KCAL/MOL
REMARK 922        TOTAL FREE ENERGY PREDICTED BY IDOCK:   -4.50 KCAL/MOL
REMARK 923 INTER-LIGAND FREE ENERGY PREDICTED BY IDOCK:   -4.23 KCAL/MOL
REMARK 924 INTRA-LIGAND FREE ENERGY PREDICTED BY IDOCK:   -0.27 KCAL/MOL
REMARK 927      BINDING AFFINITY PREDICTED BY RF-SCORE:    0.00 PKD
ROOT
HETATM    1  O   UNL     1     -13.836  12.848  72.351  1.00  0.00    -0.532 OA 
HETATM    2  C   UNL     1     -12.846  12.805  71.429  1.00  0.00    -0.275 C  
HETATM    3  O   UNL     1     -12.292  13.811  71.016  1.00  0.00    -0.355 OA 
HETATM    4  C   UNL     1     -12.547  11.393  70.982  1.00  0.00    -0.487 C  
ENDROOT
BRANCH   4   5
HETATM    5  C   UNL     1     -11.454  11.338  69.913  1.00  0.00    -0.373 C  
BRANCH   5   6
HETATM    6  C   UNL     1     -12.014  11.292  68.486  1.00  0.00    -0.288 C  
BRANCH   6   7
HETATM    7  C   UNL     1     -11.758  12.582  67.694  1.00  0.00    -0.423 C  
BRANCH   7   8
HETATM    8  C   UNL     1     -10.755  12.413  66.540  1.00  0.00    -0.236 C  
HETATM    9  C   UNL     1      -9.441  13.168  66.790  1.00  0.00    -0.252 C  
HETATM   10  C   UNL     1      -9.630  14.680  66.674  1.00  0.00    -0.278 C  
HETATM   11  S   UNL     1     -10.679  15.010  65.234  1.00  0.00    -0.420 SA 
HETATM   12  S   UNL     1     -11.369  13.098  64.967  1.00  0.00    -0.311 SA 
ENDBRANCH   7   8
ENDBRANCH   6   7
ENDBRANCH   5   6
ENDBRANCH   4   5
TORSDOF 4
ENDMDL
MODEL       66
REMARK 921   NORMALIZED FREE ENERGY PREDICTED BY IDOCK:   -3.20 KCAL/MOL
REMARK 922        TOTAL FREE ENERGY PREDICTED BY IDOCK:   -4.45 KCAL/MOL
REMARK 923 INTER-LIGAND FREE ENERGY PREDICTED BY IDOCK:   -4.25 KCAL/MOL
REMARK 924 INTRA-LIGAND FREE ENERGY PREDICTED BY IDOCK:   -0.20 KCAL/MOL
REMARK 927      BINDING AFFINITY PREDICTED BY RF-SCORE:    0.00 PKD
ROOT
HETATM    1  O   UNL     1     -12.844  12.657  63.448  1.00  0.00    -0.689 OA 
HETATM    2  C   UNL     1     -12.268  12.412  64.648  1.00  0.00    -0.425 C  
HETATM    3  O   UNL     1     -12.634  12.961  65.674  1.00  0.00    -0.555 OA 
HETATM    4  C   UNL     1     -11.137  11.417  64.541  1.00  0.00    -0.302 C  
ENDROOT
BRANCH   4   5
HETATM    5  C   UNL     1     -10.456  11.161  65.887  1.00  0.00    -0.310 C  
BRANCH   5   6
HETATM    6  C   UNL     1     -10.255   9.670  66.184  1.00  0.00    -0.276 C  
BRANCH   6   7
HETATM    7  C   UNL     1     -10.628   9.284  67.623  1.00  0.00    -0.324 C  
BRANCH   7   8
HETATM    8  C   UNL     1     -10.364  10.398  68.651  1.00  0.00    -0.184 C  
HETATM    9  C   UNL     1      -9.596   9.890  69.880  1.00  0.00    -0.265 C  
HETATM   10  C   UNL     1     -10.471   9.002  70.764  1.00  0.00    -0.243 C  
HETATM   11  S   UNL     1     -12.107   9.768  70.892  1.00  0.00    -0.318 SA 
HETATM   12  S   UNL     1     -11.899  11.095  69.344  1.00  0.00    -0.362 SA 
ENDBRANCH   7   8
ENDBRANCH   6   7
ENDBRANCH   5   6
ENDBRANCH   4   5
TORSDOF 4
ENDMDL
MODEL       67
REMARK 921   NORMALIZED FREE ENERGY PREDICTED BY IDOCK:   -3.20 KCAL/MOL
REMARK 922        TOTAL FREE ENERGY PREDICTED BY IDOCK:   -4.45 KCAL/MOL
REMARK 923 INTER-LIGAND FREE ENERGY PREDICTED BY IDOCK:   -4.29 KCAL/MOL
REMARK 924 INTRA-LIGAND FREE ENERGY PREDICTED BY IDOCK:   -0.16 KCAL/MOL
REMARK 927      BINDING AFFINITY PREDICTED BY RF-SCORE:    0.00 PKD
ROOT
HETATM    1  O   UNL     1     -12.335  15.288  72.644  1.00  0.00    -0.336 OA 
HETATM    2  C   UNL     1     -12.377  14.406  71.618  1.00  0.00    -0.341 C  
HETATM    3  O   UNL     1     -12.792  13.266  71.752  1.00  0.00    -0.323 OA 
HETATM    4  C   UNL     1     -11.839  14.999  70.338  1.00  0.00    -0.345 C  
ENDROOT
BRANCH   4   5
HETATM    5  C   UNL     1     -11.849  13.997  69.182  1.00  0.00    -0.391 C  
BRANCH   5   6
HETATM    6  C   UNL     1     -11.621  14.655  67.816  1.00  0.00    -0.382 C  
BRANCH   6   7
HETATM    7  C   UNL     1     -10.848  13.761  66.835  1.00  0.00    -0.286 C  
BRANCH   7   8
HETATM    8  C   UNL     1     -11.635  12.522  66.374  1.00  0.00    -0.391 C  
HETATM    9  C   UNL     1     -10.755  11.266  66.293  1.00  0.00    -0.312 C  
HETATM   10  C   UNL     1      -9.781  11.336  65.117  1.00  0.00    -0.244 C  
HETATM   11  S   UNL     1     -10.673  11.989  63.682  1.00  0.00    -0.477 SA 
HETATM   12  S   UNL     1     -12.309  12.701  64.690  1.00  0.00    -0.461 SA 
ENDBRANCH   7   8
ENDBRANCH   6   7
ENDBRANCH   5   6
ENDBRANCH   4   5
TORSDOF 4
ENDMDL
MODEL       68
REMARK 921   NORMALIZED FREE ENERGY PREDICTED BY IDOCK:   -3.18 KCAL/MOL
REMARK 922        TOTAL FREE ENERGY PREDICTED BY IDOCK:   -4.43 KCAL/MOL
REMARK 923 INTER-LIGAND FREE ENERGY PREDICTED BY IDOCK:   -4.27 KCAL/MOL
REMARK 924 INTRA-LIGAND FREE ENERGY PREDICTED BY IDOCK:   -0.16 KCAL/MOL
REMARK 927      BINDING AFFINITY PREDICTED BY RF-SCORE:    0.00 PKD
ROOT
HETATM    1  O   UNL     1     -11.964  14.412  64.290  1.00  0.00    -0.445 OA 
HETATM    2  C   UNL     1     -12.272  13.336  65.052  1.00  0.00    -0.432 C  
HETATM    3  O   UNL     1     -13.254  12.644  64.840  1.00  0.00    -0.819 OA 
HETATM    4  C   UNL     1     -11.279  13.131  66.171  1.00  0.00    -0.320 C  
ENDROOT
BRANCH   4   5
HETATM    5  C   UNL     1     -11.640  11.939  67.060  1.00  0.00    -0.365 C  
BRANCH   5   6
HETATM    6  C   UNL     1     -10.702  10.741  66.867  1.00  0.00    -0.309 C  
BRANCH   6   7
HETATM    7  C   UNL     1     -10.871   9.661  67.944  1.00  0.00    -0.272 C  
BRANCH   7   8
HETATM    8  C   UNL     1      -9.743   8.614  67.955  1.00  0.00    -0.158 C  
HETATM    9  C   UNL     1     -10.021   7.444  66.999  1.00  0.00    -0.301 C  
HETATM   10  C   UNL     1     -11.139   6.543  67.522  1.00  0.00    -0.308 C  
HETATM   11  S   UNL     1     -10.888   6.304  69.300  1.00  0.00    -0.377 SA 
HETATM   12  S   UNL     1      -9.536   7.819  69.582  1.00  0.00    -0.164 SA 
ENDBRANCH   7   8
ENDBRANCH   6   7
ENDBRANCH   5   6
ENDBRANCH   4   5
TORSDOF 4
ENDMDL
MODEL       69
REMARK 921   NORMALIZED FREE ENERGY PREDICTED BY IDOCK:   -3.18 KCAL/MOL
REMARK 922        TOTAL FREE ENERGY PREDICTED BY IDOCK:   -4.42 KCAL/MOL
REMARK 923 INTER-LIGAND FREE ENERGY PREDICTED BY IDOCK:   -4.36 KCAL/MOL
REMARK 924 INTRA-LIGAND FREE ENERGY PREDICTED BY IDOCK:   -0.07 KCAL/MOL
REMARK 927      BINDING AFFINITY PREDICTED BY RF-SCORE:    0.00 PKD
ROOT
HETATM    1  O   UNL     1      -7.876  17.505  65.730  1.00  0.00    -0.544 OA 
HETATM    2  C   UNL     1      -9.045  17.406  66.404  1.00  0.00    -0.248 C  
HETATM    3  O   UNL     1      -9.559  18.359  66.966  1.00  0.00    -0.282 OA 
HETATM    4  C   UNL     1      -9.594  15.999  66.384  1.00  0.00    -0.309 C  
ENDROOT
BRANCH   4   5
HETATM    5  C   UNL     1     -10.897  15.870  67.175  1.00  0.00    -0.267 C  
BRANCH   5   6
HETATM    6  C   UNL     1     -10.673  15.776  68.689  1.00  0.00    -0.263 C  
BRANCH   6   7
HETATM    7  C   UNL     1     -11.939  15.385  69.464  1.00  0.00    -0.358 C  
BRANCH   7   8
HETATM    8  C   UNL     1     -11.655  14.764  70.843  1.00  0.00    -0.266 C  
HETATM    9  C   UNL     1     -12.609  13.606  71.172  1.00  0.00    -0.452 C  
HETATM   10  C   UNL     1     -14.023  14.106  71.463  1.00  0.00    -0.290 C  
HETATM   11  S   UNL     1     -13.898  15.583  72.503  1.00  0.00    -0.543 SA 
HETATM   12  S   UNL     1     -11.902  15.944  72.211  1.00  0.00    -0.536 SA 
ENDBRANCH   7   8
ENDBRANCH   6   7
ENDBRANCH   5   6
ENDBRANCH   4   5
TORSDOF 4
ENDMDL
MODEL       70
REMARK 921   NORMALIZED FREE ENERGY PREDICTED BY IDOCK:   -3.15 KCAL/MOL
REMARK 922        TOTAL FREE ENERGY PREDICTED BY IDOCK:   -4.39 KCAL/MOL
REMARK 923 INTER-LIGAND FREE ENERGY PREDICTED BY IDOCK:   -4.16 KCAL/MOL
REMARK 924 INTRA-LIGAND FREE ENERGY PREDICTED BY IDOCK:   -0.24 KCAL/MOL
REMARK 927      BINDING AFFINITY PREDICTED BY RF-SCORE:    0.00 PKD
ROOT
HETATM    1  O   UNL     1     -14.406   8.943  72.712  1.00  0.00    -0.600 OA 
HETATM    2  C   UNL     1     -13.411   9.004  71.797  1.00  0.00    -0.411 C  
HETATM    3  O   UNL     1     -12.988   8.014  71.223  1.00  0.00    -0.277 OA 
HETATM    4  C   UNL     1     -12.902  10.413  71.606  1.00  0.00    -0.579 C  
ENDROOT
BRANCH   4   5
HETATM    5  C   UNL     1     -11.753  10.487  70.600  1.00  0.00    -0.453 C  
BRANCH   5   6
HETATM    6  C   UNL     1     -12.175  11.076  69.248  1.00  0.00    -0.280 C  
BRANCH   6   7
HETATM    7  C   UNL     1     -11.218  10.712  68.104  1.00  0.00    -0.366 C  
BRANCH   7   8
HETATM    8  C   UNL     1     -10.991  11.854  67.099  1.00  0.00    -0.269 C  
HETATM    9  C   UNL     1      -9.501  12.176  66.905  1.00  0.00    -0.210 C  
HETATM   10  C   UNL     1      -8.910  12.867  68.133  1.00  0.00    -0.194 C  
HETATM   11  S   UNL     1     -10.101  14.101  68.715  1.00  0.00    -0.154 SA 
HETATM   12  S   UNL     1     -11.718  13.432  67.648  1.00  0.00    -0.363 SA 
ENDBRANCH   7   8
ENDBRANCH   6   7
ENDBRANCH   5   6
ENDBRANCH   4   5
TORSDOF 4
ENDMDL
MODEL       71
REMARK 921   NORMALIZED FREE ENERGY PREDICTED BY IDOCK:   -3.14 KCAL/MOL
REMARK 922        TOTAL FREE ENERGY PREDICTED BY IDOCK:   -4.38 KCAL/MOL
REMARK 923 INTER-LIGAND FREE ENERGY PREDICTED BY IDOCK:   -4.23 KCAL/MOL
REMARK 924 INTRA-LIGAND FREE ENERGY PREDICTED BY IDOCK:   -0.15 KCAL/MOL
REMARK 927      BINDING AFFINITY PREDICTED BY RF-SCORE:    0.00 PKD
ROOT
HETATM    1  O   UNL     1     -10.745  12.161  64.279  1.00  0.00    -0.290 OA 
HETATM    2  C   UNL     1     -11.389  12.153  65.469  1.00  0.00    -0.344 C  
HETATM    3  O   UNL     1     -12.432  12.760  65.653  1.00  0.00    -0.586 OA 
HETATM    4  C   UNL     1     -10.655  11.337  66.506  1.00  0.00    -0.315 C  
ENDROOT
BRANCH   4   5
HETATM    5  C   UNL     1     -11.356  11.353  67.865  1.00  0.00    -0.371 C  
BRANCH   5   6
HETATM    6  C   UNL     1     -10.430  10.962  69.023  1.00  0.00    -0.244 C  
BRANCH   6   7
HETATM    7  C   UNL     1     -10.813   9.628  69.680  1.00  0.00    -0.266 C  
BRANCH   7   8
HETATM    8  C   UNL     1     -11.157   9.750  71.175  1.00  0.00    -0.344 C  
HETATM    9  C   UNL     1     -11.027   8.411  71.917  1.00  0.00    -0.375 C  
HETATM   10  C   UNL     1     -12.143   7.442  71.530  1.00  0.00    -0.327 C  
HETATM   11  S   UNL     1     -13.699   8.369  71.468  1.00  0.00    -0.276 SA 
HETATM   12  S   UNL     1     -12.885  10.250  71.462  1.00  0.00    -0.488 SA 
ENDBRANCH   7   8
ENDBRANCH   6   7
ENDBRANCH   5   6
ENDBRANCH   4   5
TORSDOF 4
ENDMDL
MODEL       72
REMARK 921   NORMALIZED FREE ENERGY PREDICTED BY IDOCK:   -3.10 KCAL/MOL
REMARK 922        TOTAL FREE ENERGY PREDICTED BY IDOCK:   -4.33 KCAL/MOL
REMARK 923 INTER-LIGAND FREE ENERGY PREDICTED BY IDOCK:   -4.00 KCAL/MOL
REMARK 924 INTRA-LIGAND FREE ENERGY PREDICTED BY IDOCK:   -0.33 KCAL/MOL
REMARK 927      BINDING AFFINITY PREDICTED BY RF-SCORE:    0.00 PKD
ROOT
HETATM    1  O   UNL     1     -12.064  11.271  67.826  1.00  0.00    -0.631 OA 
HETATM    2  C   UNL     1     -11.474  10.535  68.797  1.00  0.00    -0.224 C  
HETATM    3  O   UNL     1     -10.575   9.744  68.563  1.00  0.00    -0.206 OA 
HETATM    4  C   UNL     1     -12.074  10.804  70.156  1.00  0.00    -0.427 C  
ENDROOT
BRANCH   4   5
HETATM    5  C   UNL     1     -11.438   9.950  71.254  1.00  0.00    -0.435 C  
BRANCH   5   6
HETATM    6  C   UNL     1     -12.285   8.728  71.630  1.00  0.00    -0.399 C  
BRANCH   6   7
HETATM    7  C   UNL     1     -11.539   7.728  72.525  1.00  0.00    -0.422 C  
BRANCH   7   8
HETATM    8  C   UNL     1     -11.365   6.337  71.890  1.00  0.00    -0.299 C  
HETATM    9  C   UNL     1     -10.060   5.653  72.325  1.00  0.00    -0.224 C  
HETATM   10  C   UNL     1      -8.838   6.318  71.694  1.00  0.00    -0.138 C  
HETATM   11  S   UNL     1      -9.217   6.667  69.957  1.00  0.00    -0.158 SA 
HETATM   12  S   UNL     1     -11.246   6.403  70.072  1.00  0.00    -0.434 SA 
ENDBRANCH   7   8
ENDBRANCH   6   7
ENDBRANCH   5   6
ENDBRANCH   4   5
TORSDOF 4
ENDMDL
MODEL       73
REMARK 921   NORMALIZED FREE ENERGY PREDICTED BY IDOCK:   -3.09 KCAL/MOL
REMARK 922        TOTAL FREE ENERGY PREDICTED BY IDOCK:   -4.31 KCAL/MOL
REMARK 923 INTER-LIGAND FREE ENERGY PREDICTED BY IDOCK:   -4.12 KCAL/MOL
REMARK 924 INTRA-LIGAND FREE ENERGY PREDICTED BY IDOCK:   -0.19 KCAL/MOL
REMARK 927      BINDING AFFINITY PREDICTED BY RF-SCORE:    0.00 PKD
ROOT
HETATM    1  O   UNL     1      -9.254   8.973  68.413  1.00  0.00    -0.136 OA 
HETATM    2  C   UNL     1      -9.859   9.545  69.480  1.00  0.00    -0.193 C  
HETATM    3  O   UNL     1      -9.383   9.502  70.602  1.00  0.00    -0.254 OA 
HETATM    4  C   UNL     1     -11.167  10.201  69.106  1.00  0.00    -0.234 C  
ENDROOT
BRANCH   4   5
HETATM    5  C   UNL     1     -11.876  10.818  70.313  1.00  0.00    -0.438 C  
BRANCH   5   6
HETATM    6  C   UNL     1     -11.986  12.345  70.227  1.00  0.00    -0.371 C  
BRANCH   6   7
HETATM    7  C   UNL     1     -12.848  12.953  71.344  1.00  0.00    -0.377 C  
BRANCH   7   8
HETATM    8  C   UNL     1     -13.398  14.351  71.012  1.00  0.00    -0.300 C  
HETATM    9  C   UNL     1     -12.316  15.290  70.457  1.00  0.00    -0.434 C  
HETATM   10  C   UNL     1     -11.328  15.714  71.543  1.00  0.00    -0.381 C  
HETATM   11  S   UNL     1     -12.268  16.097  73.044  1.00  0.00    -0.534 SA 
HETATM   12  S   UNL     1     -14.035  15.224  72.479  1.00  0.00    -0.473 SA 
ENDBRANCH   7   8
ENDBRANCH   6   7
ENDBRANCH   5   6
ENDBRANCH   4   5
TORSDOF 4
ENDMDL
MODEL       74
REMARK 921   NORMALIZED FREE ENERGY PREDICTED BY IDOCK:   -3.06 KCAL/MOL
REMARK 922        TOTAL FREE ENERGY PREDICTED BY IDOCK:   -4.28 KCAL/MOL
REMARK 923 INTER-LIGAND FREE ENERGY PREDICTED BY IDOCK:   -4.04 KCAL/MOL
REMARK 924 INTRA-LIGAND FREE ENERGY PREDICTED BY IDOCK:   -0.24 KCAL/MOL
REMARK 927      BINDING AFFINITY PREDICTED BY RF-SCORE:    0.00 PKD
ROOT
HETATM    1  O   UNL     1      -6.916  20.055  65.281  1.00  0.00    -0.307 OA 
HETATM    2  C   UNL     1      -7.526  19.162  66.095  1.00  0.00    -0.274 C  
HETATM    3  O   UNL     1      -7.714  18.002  65.769  1.00  0.00    -0.532 OA 
HETATM    4  C   UNL     1      -7.943  19.783  67.407  1.00  0.00    -0.318 C  
ENDROOT
BRANCH   4   5
HETATM    5  C   UNL     1      -8.665  18.790  68.320  1.00  0.00    -0.363 C  
BRANCH   5   6
HETATM    6  C   UNL     1     -10.176  18.730  68.064  1.00  0.00    -0.438 C  
BRANCH   6   7
HETATM    7  C   UNL     1     -10.756  17.315  68.203  1.00  0.00    -0.363 C  
BRANCH   7   8
HETATM    8  C   UNL     1     -10.107  16.485  69.324  1.00  0.00    -0.270 C  
HETATM    9  C   UNL     1      -9.613  15.117  68.830  1.00  0.00    -0.223 C  
HETATM   10  C   UNL     1     -10.777  14.174  68.529  1.00  0.00    -0.254 C  
HETATM   11  S   UNL     1     -11.999  14.343  69.855  1.00  0.00    -0.353 SA 
HETATM   12  S   UNL     1     -11.272  16.079  70.665  1.00  0.00    -0.342 SA 
ENDBRANCH   7   8
ENDBRANCH   6   7
ENDBRANCH   5   6
ENDBRANCH   4   5
TORSDOF 4
ENDMDL
MODEL       75
REMARK 921   NORMALIZED FREE ENERGY PREDICTED BY IDOCK:   -3.02 KCAL/MOL
REMARK 922        TOTAL FREE ENERGY PREDICTED BY IDOCK:   -4.23 KCAL/MOL
REMARK 923 INTER-LIGAND FREE ENERGY PREDICTED BY IDOCK:   -4.06 KCAL/MOL
REMARK 924 INTRA-LIGAND FREE ENERGY PREDICTED BY IDOCK:   -0.17 KCAL/MOL
REMARK 927      BINDING AFFINITY PREDICTED BY RF-SCORE:    0.00 PKD
ROOT
HETATM    1  O   UNL     1      -7.502  18.091  65.610  1.00  0.00    -0.542 OA 
HETATM    2  C   UNL     1      -8.593  17.810  66.360  1.00  0.00    -0.231 C  
HETATM    3  O   UNL     1      -9.689  17.600  65.867  1.00  0.00    -0.521 OA 
HETATM    4  C   UNL     1      -8.282  17.813  67.837  1.00  0.00    -0.237 C  
ENDROOT
BRANCH   4   5
HETATM    5  C   UNL     1      -9.517  17.533  68.695  1.00  0.00    -0.278 C  
BRANCH   5   6
HETATM    6  C   UNL     1      -9.596  16.079  69.176  1.00  0.00    -0.257 C  
BRANCH   6   7
HETATM    7  C   UNL     1     -10.674  15.853  70.246  1.00  0.00    -0.313 C  
BRANCH   7   8
HETATM    8  C   UNL     1     -12.026  15.389  69.676  1.00  0.00    -0.343 C  
HETATM    9  C   UNL     1     -13.100  15.241  70.763  1.00  0.00    -0.468 C  
HETATM   10  C   UNL     1     -12.832  14.031  71.658  1.00  0.00    -0.352 C  
HETATM   11  S   UNL     1     -12.322  12.650  70.604  1.00  0.00    -0.183 SA 
HETATM   12  S   UNL     1     -11.938  13.738  68.910  1.00  0.00    -0.330 SA 
ENDBRANCH   7   8
ENDBRANCH   6   7
ENDBRANCH   5   6
ENDBRANCH   4   5
TORSDOF 4
ENDMDL
MODEL       76
REMARK 921   NORMALIZED FREE ENERGY PREDICTED BY IDOCK:   -3.00 KCAL/MOL
REMARK 922        TOTAL FREE ENERGY PREDICTED BY IDOCK:   -4.20 KCAL/MOL
REMARK 923 INTER-LIGAND FREE ENERGY PREDICTED BY IDOCK:   -4.06 KCAL/MOL
REMARK 924 INTRA-LIGAND FREE ENERGY PREDICTED BY IDOCK:   -0.14 KCAL/MOL
REMARK 927      BINDING AFFINITY PREDICTED BY RF-SCORE:    0.00 PKD
ROOT
HETATM    1  O   UNL     1     -10.968   6.162  67.437  1.00  0.00    -0.321 OA 
HETATM    2  C   UNL     1     -10.632   7.299  68.089  1.00  0.00    -0.177 C  
HETATM    3  O   UNL     1     -10.535   7.353  69.303  1.00  0.00    -0.213 OA 
HETATM    4  C   UNL     1     -10.421   8.455  67.140  1.00  0.00    -0.380 C  
ENDROOT
BRANCH   4   5
HETATM    5  C   UNL     1     -10.076   9.754  67.870  1.00  0.00    -0.212 C  
BRANCH   5   6
HETATM    6  C   UNL     1     -11.193  10.802  67.791  1.00  0.00    -0.385 C  
BRANCH   6   7
HETATM    7  C   UNL     1     -10.820  12.019  66.932  1.00  0.00    -0.302 C  
BRANCH   7   8
HETATM    8  C   UNL     1     -11.950  13.055  66.801  1.00  0.00    -0.369 C  
HETATM    9  C   UNL     1     -12.543  13.100  65.385  1.00  0.00    -0.512 C  
HETATM   10  C   UNL     1     -11.573  13.731  64.387  1.00  0.00    -0.395 C  
HETATM   11  S   UNL     1     -10.822  15.182  65.170  1.00  0.00    -0.445 SA 
HETATM   12  S   UNL     1     -11.379  14.761  67.097  1.00  0.00    -0.352 SA 
ENDBRANCH   7   8
ENDBRANCH   6   7
ENDBRANCH   5   6
ENDBRANCH   4   5
TORSDOF 4
ENDMDL
MODEL       77
REMARK 921   NORMALIZED FREE ENERGY PREDICTED BY IDOCK:   -2.97 KCAL/MOL
REMARK 922        TOTAL FREE ENERGY PREDICTED BY IDOCK:   -4.17 KCAL/MOL
REMARK 923 INTER-LIGAND FREE ENERGY PREDICTED BY IDOCK:   -4.04 KCAL/MOL
REMARK 924 INTRA-LIGAND FREE ENERGY PREDICTED BY IDOCK:   -0.13 KCAL/MOL
REMARK 927      BINDING AFFINITY PREDICTED BY RF-SCORE:    0.00 PKD
ROOT
HETATM    1  O   UNL     1      -8.798   8.982  71.717  1.00  0.00    -0.348 OA 
HETATM    2  C   UNL     1      -9.774   8.869  70.786  1.00  0.00    -0.227 C  
HETATM    3  O   UNL     1     -10.684   8.064  70.887  1.00  0.00    -0.216 OA 
HETATM    4  C   UNL     1      -9.575   9.829  69.637  1.00  0.00    -0.239 C  
ENDROOT
BRANCH   4   5
HETATM    5  C   UNL     1     -10.653   9.684  68.561  1.00  0.00    -0.253 C  
BRANCH   5   6
HETATM    6  C   UNL     1     -11.488  10.956  68.373  1.00  0.00    -0.374 C  
BRANCH   6   7
HETATM    7  C   UNL     1     -10.992  11.839  67.218  1.00  0.00    -0.318 C  
BRANCH   7   8
HETATM    8  C   UNL     1     -11.998  12.920  66.789  1.00  0.00    -0.350 C  
HETATM    9  C   UNL     1     -12.313  12.864  65.286  1.00  0.00    -0.544 C  
HETATM   10  C   UNL     1     -11.131  13.341  64.445  1.00  0.00    -0.384 C  
HETATM   11  S   UNL     1     -10.434  14.815  65.234  1.00  0.00    -0.422 SA 
HETATM   12  S   UNL     1     -11.368  14.611  67.047  1.00  0.00    -0.361 SA 
ENDBRANCH   7   8
ENDBRANCH   6   7
ENDBRANCH   5   6
ENDBRANCH   4   5
TORSDOF 4
ENDMDL
MODEL       78
REMARK 921   NORMALIZED FREE ENERGY PREDICTED BY IDOCK:   -2.96 KCAL/MOL
REMARK 922        TOTAL FREE ENERGY PREDICTED BY IDOCK:   -4.16 KCAL/MOL
REMARK 923 INTER-LIGAND FREE ENERGY PREDICTED BY IDOCK:   -3.92 KCAL/MOL
REMARK 924 INTRA-LIGAND FREE ENERGY PREDICTED BY IDOCK:   -0.24 KCAL/MOL
REMARK 927      BINDING AFFINITY PREDICTED BY RF-SCORE:    0.00 PKD
ROOT
HETATM    1  O   UNL     1     -12.311   6.286  72.048  1.00  0.00    -0.328 OA 
HETATM    2  C   UNL     1     -13.078   7.346  71.699  1.00  0.00    -0.364 C  
HETATM    3  O   UNL     1     -14.228   7.221  71.310  1.00  0.00    -0.394 OA 
HETATM    4  C   UNL     1     -12.335   8.653  71.836  1.00  0.00    -0.414 C  
ENDROOT
BRANCH   4   5
HETATM    5  C   UNL     1     -13.182   9.854  71.410  1.00  0.00    -0.487 C  
BRANCH   5   6
HETATM    6  C   UNL     1     -12.378  10.916  70.651  1.00  0.00    -0.470 C  
BRANCH   6   7
HETATM    7  C   UNL     1     -10.995  10.422  70.202  1.00  0.00    -0.365 C  
BRANCH   7   8
HETATM    8  C   UNL     1     -10.480  11.100  68.921  1.00  0.00    -0.207 C  
HETATM    9  C   UNL     1     -11.096  10.496  67.650  1.00  0.00    -0.375 C  
HETATM   10  C   UNL     1     -10.552   9.096  67.371  1.00  0.00    -0.244 C  
HETATM   11  S   UNL     1      -8.766   9.113  67.667  1.00  0.00    -0.119 SA 
HETATM   12  S   UNL     1      -8.685  10.890  68.687  1.00  0.00    -0.152 SA 
ENDBRANCH   7   8
ENDBRANCH   6   7
ENDBRANCH   5   6
ENDBRANCH   4   5
TORSDOF 4
ENDMDL
MODEL       79
REMARK 921   NORMALIZED FREE ENERGY PREDICTED BY IDOCK:   -2.94 KCAL/MOL
REMARK 922        TOTAL FREE ENERGY PREDICTED BY IDOCK:   -4.13 KCAL/MOL
REMARK 923 INTER-LIGAND FREE ENERGY PREDICTED BY IDOCK:   -3.95 KCAL/MOL
REMARK 924 INTRA-LIGAND FREE ENERGY PREDICTED BY IDOCK:   -0.19 KCAL/MOL
REMARK 927      BINDING AFFINITY PREDICTED BY RF-SCORE:    0.00 PKD
ROOT
HETATM    1  O   UNL     1     -10.804   5.501  66.634  1.00  0.00    -0.288 OA 
HETATM    2  C   UNL     1     -10.883   6.513  67.529  1.00  0.00    -0.352 C  
HETATM    3  O   UNL     1     -11.349   6.364  68.646  1.00  0.00    -0.313 OA 
HETATM    4  C   UNL     1     -10.352   7.810  66.966  1.00  0.00    -0.405 C  
ENDROOT
BRANCH   4   5
HETATM    5  C   UNL     1     -10.470   8.969  67.958  1.00  0.00    -0.270 C  
BRANCH   5   6
HETATM    6  C   UNL     1     -10.584  10.336  67.273  1.00  0.00    -0.324 C  
BRANCH   6   7
HETATM    7  C   UNL     1     -11.541  11.296  67.995  1.00  0.00    -0.343 C  
BRANCH   7   8
HETATM    8  C   UNL     1     -10.887  12.625  68.412  1.00  0.00    -0.245 C  
HETATM    9  C   UNL     1     -11.821  13.827  68.204  1.00  0.00    -0.411 C  
HETATM   10  C   UNL     1     -12.005  14.147  66.721  1.00  0.00    -0.447 C  
HETATM   11  S   UNL     1     -10.390  14.024  65.911  1.00  0.00    -0.330 SA 
HETATM   12  S   UNL     1      -9.416  13.029  67.416  1.00  0.00    -0.218 SA 
ENDBRANCH   7   8
ENDBRANCH   6   7
ENDBRANCH   5   6
ENDBRANCH   4   5
TORSDOF 4
ENDMDL
MODEL       80
REMARK 921   NORMALIZED FREE ENERGY PREDICTED BY IDOCK:   -2.93 KCAL/MOL
REMARK 922        TOTAL FREE ENERGY PREDICTED BY IDOCK:   -4.12 KCAL/MOL
REMARK 923 INTER-LIGAND FREE ENERGY PREDICTED BY IDOCK:   -3.84 KCAL/MOL
REMARK 924 INTRA-LIGAND FREE ENERGY PREDICTED BY IDOCK:   -0.29 KCAL/MOL
REMARK 927      BINDING AFFINITY PREDICTED BY RF-SCORE:    0.00 PKD
ROOT
HETATM    1  O   UNL     1     -12.443  13.130  63.230  1.00  0.00    -0.720 OA 
HETATM    2  C   UNL     1     -12.355  13.431  64.547  1.00  0.00    -0.360 C  
HETATM    3  O   UNL     1     -13.241  14.019  65.144  1.00  0.00    -0.768 OA 
HETATM    4  C   UNL     1     -11.047  12.973  65.146  1.00  0.00    -0.317 C  
ENDROOT
BRANCH   4   5
HETATM    5  C   UNL     1     -10.923  13.341  66.626  1.00  0.00    -0.297 C  
BRANCH   5   6
HETATM    6  C   UNL     1     -11.431  12.239  67.563  1.00  0.00    -0.414 C  
BRANCH   6   7
HETATM    7  C   UNL     1     -10.561  10.974  67.537  1.00  0.00    -0.266 C  
BRANCH   7   8
HETATM    8  C   UNL     1      -9.180  11.158  68.190  1.00  0.00    -0.166 C  
HETATM    9  C   UNL     1      -8.041  11.169  67.160  1.00  0.00    -0.138 C  
HETATM   10  C   UNL     1      -7.802   9.780  66.569  1.00  0.00    -0.109 C  
HETATM   11  S   UNL     1      -7.878   8.572  67.917  1.00  0.00    -0.104 SA 
HETATM   12  S   UNL     1      -8.746   9.792  69.316  1.00  0.00    -0.177 SA 
ENDBRANCH   7   8
ENDBRANCH   6   7
ENDBRANCH   5   6
ENDBRANCH   4   5
TORSDOF 4
ENDMDL
MODEL       81
REMARK 921   NORMALIZED FREE ENERGY PREDICTED BY IDOCK:   -2.93 KCAL/MOL
REMARK 922        TOTAL FREE ENERGY PREDICTED BY IDOCK:   -4.12 KCAL/MOL
REMARK 923 INTER-LIGAND FREE ENERGY PREDICTED BY IDOCK:   -3.78 KCAL/MOL
REMARK 924 INTRA-LIGAND FREE ENERGY PREDICTED BY IDOCK:   -0.34 KCAL/MOL
REMARK 927      BINDING AFFINITY PREDICTED BY RF-SCORE:    0.00 PKD
ROOT
HETATM    1  O   UNL     1      -7.771  19.488  69.480  1.00  0.00    -0.194 OA 
HETATM    2  C   UNL     1      -8.175  19.674  68.201  1.00  0.00    -0.313 C  
HETATM    3  O   UNL     1      -7.389  19.801  67.278  1.00  0.00    -0.236 OA 
HETATM    4  C   UNL     1      -9.680  19.721  68.084  1.00  0.00    -0.506 C  
ENDROOT
BRANCH   4   5
HETATM    5  C   UNL     1     -10.146  19.968  66.648  1.00  0.00    -0.607 C  
BRANCH   5   6
HETATM    6  C   UNL     1     -10.769  18.726  65.998  1.00  0.00    -0.337 C  
BRANCH   6   7
HETATM    7  C   UNL     1      -9.890  17.473  66.124  1.00  0.00    -0.256 C  
BRANCH   7   8
HETATM    8  C   UNL     1     -10.645  16.236  66.640  1.00  0.00    -0.252 C  
HETATM    9  C   UNL     1     -10.925  16.307  68.149  1.00  0.00    -0.343 C  
HETATM   10  C   UNL     1      -9.649  16.122  68.968  1.00  0.00    -0.251 C  
HETATM   11  S   UNL     1      -8.689  14.778  68.223  1.00  0.00    -0.176 SA 
HETATM   12  S   UNL     1      -9.693  14.695  66.438  1.00  0.00    -0.309 SA 
ENDBRANCH   7   8
ENDBRANCH   6   7
ENDBRANCH   5   6
ENDBRANCH   4   5
TORSDOF 4
ENDMDL
MODEL       82
REMARK 921   NORMALIZED FREE ENERGY PREDICTED BY IDOCK:   -2.92 KCAL/MOL
REMARK 922        TOTAL FREE ENERGY PREDICTED BY IDOCK:   -4.11 KCAL/MOL
REMARK 923 INTER-LIGAND FREE ENERGY PREDICTED BY IDOCK:   -3.86 KCAL/MOL
REMARK 924 INTRA-LIGAND FREE ENERGY PREDICTED BY IDOCK:   -0.25 KCAL/MOL
REMARK 927      BINDING AFFINITY PREDICTED BY RF-SCORE:    0.00 PKD
ROOT
HETATM    1  O   UNL     1     -12.633  14.039  63.619  1.00  0.00    -0.818 OA 
HETATM    2  C   UNL     1     -12.277  12.737  63.523  1.00  0.00    -0.525 C  
HETATM    3  O   UNL     1     -13.076  11.859  63.244  1.00  0.00    -0.674 OA 
HETATM    4  C   UNL     1     -10.811  12.527  63.818  1.00  0.00    -0.489 C  
ENDROOT
BRANCH   4   5
HETATM    5  C   UNL     1     -10.406  11.053  63.748  1.00  0.00    -0.427 C  
BRANCH   5   6
HETATM    6  C   UNL     1      -8.967  10.849  63.259  1.00  0.00    -0.204 C  
BRANCH   6   7
HETATM    7  C   UNL     1      -8.175   9.848  64.113  1.00  0.00    -0.159 C  
BRANCH   7   8
HETATM    8  C   UNL     1      -8.772   9.618  65.512  1.00  0.00    -0.153 C  
HETATM    9  C   UNL     1      -8.169  10.556  66.568  1.00  0.00    -0.133 C  
HETATM   10  C   UNL     1      -6.726  10.178  66.899  1.00  0.00    -0.079 C  
HETATM   11  S   UNL     1      -6.632   8.375  67.038  1.00  0.00    -0.058 SA 
HETATM   12  S   UNL     1      -8.433   7.948  66.157  1.00  0.00    -0.140 SA 
ENDBRANCH   7   8
ENDBRANCH   6   7
ENDBRANCH   5   6
ENDBRANCH   4   5
TORSDOF 4
ENDMDL
MODEL       83
REMARK 921   NORMALIZED FREE ENERGY PREDICTED BY IDOCK:   -2.92 KCAL/MOL
REMARK 922        TOTAL FREE ENERGY PREDICTED BY IDOCK:   -4.11 KCAL/MOL
REMARK 923 INTER-LIGAND FREE ENERGY PREDICTED BY IDOCK:   -3.93 KCAL/MOL
REMARK 924 INTRA-LIGAND FREE ENERGY PREDICTED BY IDOCK:   -0.17 KCAL/MOL
REMARK 927      BINDING AFFINITY PREDICTED BY RF-SCORE:    0.00 PKD
ROOT
HETATM    1  O   UNL     1     -10.732  19.685  66.897  1.00  0.00    -0.469 OA 
HETATM    2  C   UNL     1     -10.399  18.381  66.751  1.00  0.00    -0.394 C  
HETATM    3  O   UNL     1     -10.056  17.910  65.679  1.00  0.00    -0.567 OA 
HETATM    4  C   UNL     1     -10.525  17.614  68.046  1.00  0.00    -0.395 C  
ENDROOT
BRANCH   4   5
HETATM    5  C   UNL     1     -10.186  16.132  67.882  1.00  0.00    -0.261 C  
BRANCH   5   6
HETATM    6  C   UNL     1     -11.390  15.211  68.116  1.00  0.00    -0.345 C  
BRANCH   6   7
HETATM    7  C   UNL     1     -10.990  13.771  68.467  1.00  0.00    -0.283 C  
BRANCH   7   8
HETATM    8  C   UNL     1     -10.724  12.885  67.237  1.00  0.00    -0.245 C  
HETATM    9  C   UNL     1     -11.607  11.628  67.219  1.00  0.00    -0.316 C  
HETATM   10  C   UNL     1     -11.178  10.624  68.289  1.00  0.00    -0.301 C  
HETATM   11  S   UNL     1      -9.369  10.538  68.291  1.00  0.00    -0.161 SA 
HETATM   12  S   UNL     1      -9.023  12.233  67.193  1.00  0.00    -0.198 SA 
ENDBRANCH   7   8
ENDBRANCH   6   7
ENDBRANCH   5   6
ENDBRANCH   4   5
TORSDOF 4
ENDMDL
MODEL       84
REMARK 921   NORMALIZED FREE ENERGY PREDICTED BY IDOCK:   -2.92 KCAL/MOL
REMARK 922        TOTAL FREE ENERGY PREDICTED BY IDOCK:   -4.11 KCAL/MOL
REMARK 923 INTER-LIGAND FREE ENERGY PREDICTED BY IDOCK:   -3.86 KCAL/MOL
REMARK 924 INTRA-LIGAND FREE ENERGY PREDICTED BY IDOCK:   -0.24 KCAL/MOL
REMARK 927      BINDING AFFINITY PREDICTED BY RF-SCORE:    0.00 PKD
ROOT
HETATM    1  O   UNL     1     -12.928   9.067  72.315  1.00  0.00    -0.388 OA 
HETATM    2  C   UNL     1     -12.015   9.684  71.529  1.00  0.00    -0.406 C  
HETATM    3  O   UNL     1     -10.818   9.477  71.629  1.00  0.00    -0.343 OA 
HETATM    4  C   UNL     1     -12.661  10.646  70.559  1.00  0.00    -0.433 C  
ENDROOT
BRANCH   4   5
HETATM    5  C   UNL     1     -11.634  11.375  69.690  1.00  0.00    -0.399 C  
BRANCH   5   6
HETATM    6  C   UNL     1     -11.446  10.728  68.313  1.00  0.00    -0.353 C  
BRANCH   6   7
HETATM    7  C   UNL     1     -11.421  11.748  67.165  1.00  0.00    -0.366 C  
BRANCH   7   8
HETATM    8  C   UNL     1     -10.007  12.060  66.644  1.00  0.00    -0.201 C  
HETATM    9  C   UNL     1      -9.961  12.185  65.113  1.00  0.00    -0.251 C  
HETATM   10  C   UNL     1     -10.132  10.827  64.433  1.00  0.00    -0.353 C  
HETATM   11  S   UNL     1      -9.139   9.612  65.337  1.00  0.00    -0.232 SA 
HETATM   12  S   UNL     1      -8.810  10.738  67.018  1.00  0.00    -0.136 SA 
ENDBRANCH   7   8
ENDBRANCH   6   7
ENDBRANCH   5   6
ENDBRANCH   4   5
TORSDOF 4
ENDMDL
MODEL       85
REMARK 921   NORMALIZED FREE ENERGY PREDICTED BY IDOCK:   -2.91 KCAL/MOL
REMARK 922        TOTAL FREE ENERGY PREDICTED BY IDOCK:   -4.10 KCAL/MOL
REMARK 923 INTER-LIGAND FREE ENERGY PREDICTED BY IDOCK:   -3.81 KCAL/MOL
REMARK 924 INTRA-LIGAND FREE ENERGY PREDICTED BY IDOCK:   -0.29 KCAL/MOL
REMARK 927      BINDING AFFINITY PREDICTED BY RF-SCORE:    0.00 PKD
ROOT
HETATM    1  O   UNL     1     -12.413  13.756  64.837  1.00  0.00    -0.498 OA 
HETATM    2  C   UNL     1     -11.936  12.883  63.919  1.00  0.00    -0.480 C  
HETATM    3  O   UNL     1     -12.663  12.297  63.134  1.00  0.00    -0.625 OA 
HETATM    4  C   UNL     1     -10.437  12.726  64.011  1.00  0.00    -0.433 C  
ENDROOT
BRANCH   4   5
HETATM    5  C   UNL     1      -9.893  11.713  63.001  1.00  0.00    -0.331 C  
BRANCH   5   6
HETATM    6  C   UNL     1      -9.486  10.383  63.646  1.00  0.00    -0.353 C  
BRANCH   6   7
HETATM    7  C   UNL     1     -10.139  10.150  65.016  1.00  0.00    -0.305 C  
BRANCH   7   8
HETATM    8  C   UNL     1      -9.184   9.557  66.066  1.00  0.00    -0.196 C  
HETATM    9  C   UNL     1      -9.544   9.988  67.495  1.00  0.00    -0.178 C  
HETATM   10  C   UNL     1      -9.221  11.462  67.737  1.00  0.00    -0.159 C  
HETATM   11  S   UNL     1      -7.607  11.817  66.995  1.00  0.00    -0.123 SA 
HETATM   12  S   UNL     1      -7.464  10.122  65.852  1.00  0.00    -0.130 SA 
ENDBRANCH   7   8
ENDBRANCH   6   7
ENDBRANCH   5   6
ENDBRANCH   4   5
TORSDOF 4
ENDMDL
MODEL       86
REMARK 921   NORMALIZED FREE ENERGY PREDICTED BY IDOCK:   -2.91 KCAL/MOL
REMARK 922        TOTAL FREE ENERGY PREDICTED BY IDOCK:   -4.09 KCAL/MOL
REMARK 923 INTER-LIGAND FREE ENERGY PREDICTED BY IDOCK:   -3.76 KCAL/MOL
REMARK 924 INTRA-LIGAND FREE ENERGY PREDICTED BY IDOCK:   -0.34 KCAL/MOL
REMARK 927      BINDING AFFINITY PREDICTED BY RF-SCORE:    0.00 PKD
ROOT
HETATM    1  O   UNL     1     -11.083  14.518  67.551  1.00  0.00    -0.288 OA 
HETATM    2  C   UNL     1     -10.752  15.744  67.083  1.00  0.00    -0.312 C  
HETATM    3  O   UNL     1     -10.364  15.926  65.941  1.00  0.00    -0.323 OA 
HETATM    4  C   UNL     1     -10.905  16.814  68.137  1.00  0.00    -0.353 C  
ENDROOT
BRANCH   4   5
HETATM    5  C   UNL     1     -10.498  18.198  67.628  1.00  0.00    -0.432 C  
BRANCH   5   6
HETATM    6  C   UNL     1      -9.551  18.934  68.583  1.00  0.00    -0.443 C  
BRANCH   6   7
HETATM    7  C   UNL     1      -8.127  19.082  68.027  1.00  0.00    -0.328 C  
BRANCH   7   8
HETATM    8  C   UNL     1      -8.002  18.716  66.537  1.00  0.00    -0.278 C  
HETATM    9  C   UNL     1      -7.284  17.376  66.322  1.00  0.00    -0.346 C  
HETATM   10  C   UNL     1      -5.791  17.481  66.630  1.00  0.00    -0.191 C  
HETATM   11  S   UNL     1      -5.177  19.034  65.928  1.00  0.00    -0.151 SA 
HETATM   12  S   UNL     1      -6.998  19.914  65.599  1.00  0.00    -0.310 SA 
ENDBRANCH   7   8
ENDBRANCH   6   7
ENDBRANCH   5   6
ENDBRANCH   4   5
TORSDOF 4
ENDMDL
MODEL       87
REMARK 921   NORMALIZED FREE ENERGY PREDICTED BY IDOCK:   -2.91 KCAL/MOL
REMARK 922        TOTAL FREE ENERGY PREDICTED BY IDOCK:   -4.09 KCAL/MOL
REMARK 923 INTER-LIGAND FREE ENERGY PREDICTED BY IDOCK:   -3.87 KCAL/MOL
REMARK 924 INTRA-LIGAND FREE ENERGY PREDICTED BY IDOCK:   -0.22 KCAL/MOL
REMARK 927      BINDING AFFINITY PREDICTED BY RF-SCORE:    0.00 PKD
ROOT
HETATM    1  O   UNL     1     -14.043  13.309  72.584  1.00  0.00    -0.744 OA 
HETATM    2  C   UNL     1     -13.186  12.714  71.721  1.00  0.00    -0.359 C  
HETATM    3  O   UNL     1     -12.473  13.351  70.963  1.00  0.00    -0.362 OA 
HETATM    4  C   UNL     1     -13.247  11.208  71.808  1.00  0.00    -0.486 C  
ENDROOT
BRANCH   4   5
HETATM    5  C   UNL     1     -12.308  10.526  70.811  1.00  0.00    -0.474 C  
BRANCH   5   6
HETATM    6  C   UNL     1     -11.297   9.590  71.483  1.00  0.00    -0.456 C  
BRANCH   6   7
HETATM    7  C   UNL     1     -10.863   8.424  70.583  1.00  0.00    -0.256 C  
BRANCH   7   8
HETATM    8  C   UNL     1      -9.413   7.965  70.818  1.00  0.00    -0.158 C  
HETATM    9  C   UNL     1      -8.395   9.085  70.555  1.00  0.00    -0.205 C  
HETATM   10  C   UNL     1      -8.270   9.393  69.064  1.00  0.00    -0.108 C  
HETATM   11  S   UNL     1      -8.238   7.823  68.162  1.00  0.00    -0.124 SA 
HETATM   12  S   UNL     1      -8.905   6.628  69.689  1.00  0.00    -0.143 SA 
ENDBRANCH   7   8
ENDBRANCH   6   7
ENDBRANCH   5   6
ENDBRANCH   4   5
TORSDOF 4
ENDMDL
MODEL       88
REMARK 921   NORMALIZED FREE ENERGY PREDICTED BY IDOCK:   -2.88 KCAL/MOL
REMARK 922        TOTAL FREE ENERGY PREDICTED BY IDOCK:   -4.06 KCAL/MOL
REMARK 923 INTER-LIGAND FREE ENERGY PREDICTED BY IDOCK:   -3.84 KCAL/MOL
REMARK 924 INTRA-LIGAND FREE ENERGY PREDICTED BY IDOCK:   -0.23 KCAL/MOL
REMARK 927      BINDING AFFINITY PREDICTED BY RF-SCORE:    0.00 PKD
ROOT
HETATM    1  O   UNL     1     -12.716  11.002  70.999  1.00  0.00    -0.359 OA 
HETATM    2  C   UNL     1     -12.899  12.263  71.455  1.00  0.00    -0.280 C  
HETATM    3  O   UNL     1     -13.654  12.521  72.378  1.00  0.00    -0.521 OA 
HETATM    4  C   UNL     1     -12.086  13.271  70.678  1.00  0.00    -0.361 C  
ENDROOT
BRANCH   4   5
HETATM    5  C   UNL     1     -12.315  14.704  71.163  1.00  0.00    -0.403 C  
BRANCH   5   6
HETATM    6  C   UNL     1     -12.088  15.751  70.067  1.00  0.00    -0.344 C  
BRANCH   6   7
HETATM    7  C   UNL     1     -11.980  15.142  68.661  1.00  0.00    -0.270 C  
BRANCH   7   8
HETATM    8  C   UNL     1     -11.075  15.940  67.707  1.00  0.00    -0.288 C  
HETATM    9  C   UNL     1     -10.763  15.171  66.415  1.00  0.00    -0.317 C  
HETATM   10  C   UNL     1      -9.809  14.005  66.670  1.00  0.00    -0.284 C  
HETATM   11  S   UNL     1      -8.510  14.573  67.797  1.00  0.00    -0.187 SA 
HETATM   12  S   UNL     1      -9.435  16.292  68.421  1.00  0.00    -0.223 SA 
ENDBRANCH   7   8
ENDBRANCH   6   7
ENDBRANCH   5   6
ENDBRANCH   4   5
TORSDOF 4
ENDMDL
MODEL       89
REMARK 921   NORMALIZED FREE ENERGY PREDICTED BY IDOCK:   -2.88 KCAL/MOL
REMARK 922        TOTAL FREE ENERGY PREDICTED BY IDOCK:   -4.06 KCAL/MOL
REMARK 923 INTER-LIGAND FREE ENERGY PREDICTED BY IDOCK:   -3.79 KCAL/MOL
REMARK 924 INTRA-LIGAND FREE ENERGY PREDICTED BY IDOCK:   -0.27 KCAL/MOL
REMARK 927      BINDING AFFINITY PREDICTED BY RF-SCORE:    0.00 PKD
ROOT
HETATM    1  O   UNL     1     -12.457  14.776  72.988  1.00  0.00    -0.365 OA 
HETATM    2  C   UNL     1     -12.365  14.683  71.641  1.00  0.00    -0.351 C  
HETATM    3  O   UNL     1     -12.687  13.677  71.031  1.00  0.00    -0.338 OA 
HETATM    4  C   UNL     1     -11.812  15.945  71.022  1.00  0.00    -0.468 C  
ENDROOT
BRANCH   4   5
HETATM    5  C   UNL     1     -11.671  15.837  69.503  1.00  0.00    -0.369 C  
BRANCH   5   6
HETATM    6  C   UNL     1     -10.251  15.470  69.056  1.00  0.00    -0.229 C  
BRANCH   6   7
HETATM    7  C   UNL     1      -9.571  16.575  68.235  1.00  0.00    -0.223 C  
BRANCH   7   8
HETATM    8  C   UNL     1      -9.099  17.773  69.079  1.00  0.00    -0.026 C  
HETATM    9  C   UNL     1     -10.014  18.996  68.922  1.00  0.00    -0.460 C  
HETATM   10  C   UNL     1      -9.859  19.643  67.547  1.00  0.00    -0.378 C  
HETATM   11  S   UNL     1      -8.094  19.695  67.142  1.00  0.00    -0.294 SA 
HETATM   12  S   UNL     1      -7.455  18.381  68.580  1.00  0.00    -0.288 SA 
ENDBRANCH   7   8
ENDBRANCH   6   7
ENDBRANCH   5   6
ENDBRANCH   4   5
TORSDOF 4
ENDMDL
MODEL       90
REMARK 921   NORMALIZED FREE ENERGY PREDICTED BY IDOCK:   -2.88 KCAL/MOL
REMARK 922        TOTAL FREE ENERGY PREDICTED BY IDOCK:   -4.06 KCAL/MOL
REMARK 923 INTER-LIGAND FREE ENERGY PREDICTED BY IDOCK:   -3.88 KCAL/MOL
REMARK 924 INTRA-LIGAND FREE ENERGY PREDICTED BY IDOCK:   -0.17 KCAL/MOL
REMARK 927      BINDING AFFINITY PREDICTED BY RF-SCORE:    0.00 PKD
ROOT
HETATM    1  O   UNL     1     -12.839  11.000  71.364  1.00  0.00    -0.400 OA 
HETATM    2  C   UNL     1     -13.011   9.761  71.881  1.00  0.00    -0.440 C  
HETATM    3  O   UNL     1     -13.990   9.458  72.542  1.00  0.00    -0.419 OA 
HETATM    4  C   UNL     1     -11.856   8.844  71.554  1.00  0.00    -0.402 C  
ENDROOT
BRANCH   4   5
HETATM    5  C   UNL     1     -12.024   7.452  72.165  1.00  0.00    -0.307 C  
BRANCH   5   6
HETATM    6  C   UNL     1     -11.174   6.384  71.467  1.00  0.00    -0.334 C  
BRANCH   6   7
HETATM    7  C   UNL     1     -11.381   6.345  69.946  1.00  0.00    -0.500 C  
BRANCH   7   8
HETATM    8  C   UNL     1     -10.156   6.814  69.141  1.00  0.00    -0.171 C  
HETATM    9  C   UNL     1     -10.519   7.214  67.703  1.00  0.00    -0.306 C  
HETATM   10  C   UNL     1     -10.866   5.994  66.850  1.00  0.00    -0.318 C  
HETATM   11  S   UNL     1      -9.669   4.686  67.221  1.00  0.00    -0.180 SA 
HETATM   12  S   UNL     1      -8.904   5.506  68.936  1.00  0.00    -0.107 SA 
ENDBRANCH   7   8
ENDBRANCH   6   7
ENDBRANCH   5   6
ENDBRANCH   4   5
TORSDOF 4
ENDMDL
MODEL       91
REMARK 921   NORMALIZED FREE ENERGY PREDICTED BY IDOCK:   -2.87 KCAL/MOL
REMARK 922        TOTAL FREE ENERGY PREDICTED BY IDOCK:   -4.05 KCAL/MOL
REMARK 923 INTER-LIGAND FREE ENERGY PREDICTED BY IDOCK:   -3.82 KCAL/MOL
REMARK 924 INTRA-LIGAND FREE ENERGY PREDICTED BY IDOCK:   -0.23 KCAL/MOL
REMARK 927      BINDING AFFINITY PREDICTED BY RF-SCORE:    0.00 PKD
ROOT
HETATM    1  O   UNL     1      -6.506  14.812  67.225  1.00  0.00    -0.300 OA 
HETATM    2  C   UNL     1      -7.497  14.681  68.137  1.00  0.00    -0.123 C  
HETATM    3  O   UNL     1      -7.662  13.658  68.782  1.00  0.00    -0.127 OA 
HETATM    4  C   UNL     1      -8.353  15.922  68.228  1.00  0.00    -0.165 C  
ENDROOT
BRANCH   4   5
HETATM    5  C   UNL     1      -9.498  15.770  69.231  1.00  0.00    -0.270 C  
BRANCH   5   6
HETATM    6  C   UNL     1     -10.880  15.973  68.599  1.00  0.00    -0.301 C  
BRANCH   6   7
HETATM    7  C   UNL     1     -12.036  15.688  69.568  1.00  0.00    -0.363 C  
BRANCH   7   8
HETATM    8  C   UNL     1     -11.598  14.985  70.865  1.00  0.00    -0.319 C  
HETATM    9  C   UNL     1     -12.436  13.732  71.163  1.00  0.00    -0.450 C  
HETATM   10  C   UNL     1     -13.855  14.094  71.598  1.00  0.00    -0.362 C  
HETATM   11  S   UNL     1     -13.755  15.490  72.748  1.00  0.00    -0.522 SA 
HETATM   12  S   UNL     1     -11.820  16.029  72.342  1.00  0.00    -0.521 SA 
ENDBRANCH   7   8
ENDBRANCH   6   7
ENDBRANCH   5   6
ENDBRANCH   4   5
TORSDOF 4
ENDMDL
MODEL       92
REMARK 921   NORMALIZED FREE ENERGY PREDICTED BY IDOCK:   -2.87 KCAL/MOL
REMARK 922        TOTAL FREE ENERGY PREDICTED BY IDOCK:   -4.05 KCAL/MOL
REMARK 923 INTER-LIGAND FREE ENERGY PREDICTED BY IDOCK:   -3.74 KCAL/MOL
REMARK 924 INTRA-LIGAND FREE ENERGY PREDICTED BY IDOCK:   -0.30 KCAL/MOL
REMARK 927      BINDING AFFINITY PREDICTED BY RF-SCORE:    0.00 PKD
ROOT
HETATM    1  O   UNL     1      -7.122  14.992  69.786  1.00  0.00    -0.182 OA 
HETATM    2  C   UNL     1      -8.149  15.056  68.907  1.00  0.00    -0.176 C  
HETATM    3  O   UNL     1      -8.022  14.764  67.730  1.00  0.00    -0.132 OA 
HETATM    4  C   UNL     1      -9.423  15.542  69.558  1.00  0.00    -0.269 C  
ENDROOT
BRANCH   4   5
HETATM    5  C   UNL     1     -10.581  15.653  68.565  1.00  0.00    -0.256 C  
BRANCH   5   6
HETATM    6  C   UNL     1     -11.572  14.487  68.667  1.00  0.00    -0.346 C  
BRANCH   6   7
HETATM    7  C   UNL     1     -11.577  13.587  67.423  1.00  0.00    -0.392 C  
BRANCH   7   8
HETATM    8  C   UNL     1     -11.863  14.341  66.112  1.00  0.00    -0.402 C  
HETATM    9  C   UNL     1     -12.968  13.673  65.281  1.00  0.00    -0.315 C  
HETATM   10  C   UNL     1     -12.490  12.361  64.660  1.00  0.00    -0.420 C  
HETATM   11  S   UNL     1     -10.816  12.617  64.018  1.00  0.00    -0.435 SA 
HETATM   12  S   UNL     1     -10.426  14.378  64.992  1.00  0.00    -0.416 SA 
ENDBRANCH   7   8
ENDBRANCH   6   7
ENDBRANCH   5   6
ENDBRANCH   4   5
TORSDOF 4
ENDMDL
MODEL       93
REMARK 921   NORMALIZED FREE ENERGY PREDICTED BY IDOCK:   -2.86 KCAL/MOL
REMARK 922        TOTAL FREE ENERGY PREDICTED BY IDOCK:   -4.04 KCAL/MOL
REMARK 923 INTER-LIGAND FREE ENERGY PREDICTED BY IDOCK:   -3.60 KCAL/MOL
REMARK 924 INTRA-LIGAND FREE ENERGY PREDICTED BY IDOCK:   -0.44 KCAL/MOL
REMARK 927      BINDING AFFINITY PREDICTED BY RF-SCORE:    0.00 PKD
ROOT
HETATM    1  O   UNL     1      -9.610  12.583  66.572  1.00  0.00    -0.232 OA 
HETATM    2  C   UNL     1     -10.279  13.743  66.774  1.00  0.00    -0.268 C  
HETATM    3  O   UNL     1     -10.636  14.461  65.854  1.00  0.00    -0.289 OA 
HETATM    4  C   UNL     1     -10.497  14.024  68.241  1.00  0.00    -0.245 C  
ENDROOT
BRANCH   4   5
HETATM    5  C   UNL     1     -11.220  15.351  68.481  1.00  0.00    -0.321 C  
BRANCH   5   6
HETATM    6  C   UNL     1     -10.281  16.471  68.942  1.00  0.00    -0.268 C  
BRANCH   6   7
HETATM    7  C   UNL     1     -10.596  17.828  68.296  1.00  0.00    -0.325 C  
BRANCH   7   8
HETATM    8  C   UNL     1     -10.237  17.902  66.802  1.00  0.00    -0.360 C  
HETATM    9  C   UNL     1      -8.784  17.486  66.527  1.00  0.00    -0.290 C  
HETATM   10  C   UNL     1      -7.794  18.539  67.025  1.00  0.00    -0.227 C  
HETATM   11  S   UNL     1      -8.435  20.173  66.580  1.00  0.00    -0.247 SA 
HETATM   12  S   UNL     1     -10.349  19.593  66.133  1.00  0.00    -0.529 SA 
ENDBRANCH   7   8
ENDBRANCH   6   7
ENDBRANCH   5   6
ENDBRANCH   4   5
TORSDOF 4
ENDMDL
MODEL       94
REMARK 921   NORMALIZED FREE ENERGY PREDICTED BY IDOCK:   -2.85 KCAL/MOL
REMARK 922        TOTAL FREE ENERGY PREDICTED BY IDOCK:   -4.02 KCAL/MOL
REMARK 923 INTER-LIGAND FREE ENERGY PREDICTED BY IDOCK:   -3.78 KCAL/MOL
REMARK 924 INTRA-LIGAND FREE ENERGY PREDICTED BY IDOCK:   -0.25 KCAL/MOL
REMARK 927      BINDING AFFINITY PREDICTED BY RF-SCORE:    0.00 PKD
ROOT
HETATM    1  O   UNL     1      -8.991   8.514  65.794  1.00  0.00    -0.182 OA 
HETATM    2  C   UNL     1      -9.611   9.709  65.659  1.00  0.00    -0.271 C  
HETATM    3  O   UNL     1      -9.604  10.335  64.612  1.00  0.00    -0.264 OA 
HETATM    4  C   UNL     1     -10.271  10.154  66.942  1.00  0.00    -0.295 C  
ENDROOT
BRANCH   4   5
HETATM    5  C   UNL     1     -10.944  11.521  66.809  1.00  0.00    -0.347 C  
BRANCH   5   6
HETATM    6  C   UNL     1     -11.709  11.939  68.071  1.00  0.00    -0.382 C  
BRANCH   6   7
HETATM    7  C   UNL     1     -12.058  10.756  68.985  1.00  0.00    -0.170 C  
BRANCH   7   8
HETATM    8  C   UNL     1     -11.562  10.923  70.432  1.00  0.00    -0.323 C  
HETATM    9  C   UNL     1     -10.839   9.671  70.952  1.00  0.00    -0.409 C  
HETATM   10  C   UNL     1     -11.814   8.522  71.204  1.00  0.00    -0.284 C  
HETATM   11  S   UNL     1     -13.287   9.197  72.013  1.00  0.00    -0.478 SA 
HETATM   12  S   UNL     1     -12.922  11.175  71.619  1.00  0.00    -0.372 SA 
ENDBRANCH   7   8
ENDBRANCH   6   7
ENDBRANCH   5   6
ENDBRANCH   4   5
TORSDOF 4
ENDMDL
MODEL       95
REMARK 921   NORMALIZED FREE ENERGY PREDICTED BY IDOCK:   -2.85 KCAL/MOL
REMARK 922        TOTAL FREE ENERGY PREDICTED BY IDOCK:   -4.02 KCAL/MOL
REMARK 923 INTER-LIGAND FREE ENERGY PREDICTED BY IDOCK:   -3.63 KCAL/MOL
REMARK 924 INTRA-LIGAND FREE ENERGY PREDICTED BY IDOCK:   -0.39 KCAL/MOL
REMARK 927      BINDING AFFINITY PREDICTED BY RF-SCORE:    0.00 PKD
ROOT
HETATM    1  O   UNL     1      -9.030   3.372  70.600  1.00  0.00    -0.079 OA 
HETATM    2  C   UNL     1      -9.896   4.357  70.936  1.00  0.00    -0.196 C  
HETATM    3  O   UNL     1     -10.248   5.216  70.145  1.00  0.00    -0.248 OA 
HETATM    4  C   UNL     1     -10.333   4.261  72.378  1.00  0.00    -0.230 C  
ENDROOT
BRANCH   4   5
HETATM    5  C   UNL     1     -11.284   5.391  72.777  1.00  0.00    -0.358 C  
BRANCH   5   6
HETATM    6  C   UNL     1     -10.568   6.564  73.457  1.00  0.00    -0.312 C  
BRANCH   6   7
HETATM    7  C   UNL     1     -11.020   7.934  72.932  1.00  0.00    -0.452 C  
BRANCH   7   8
HETATM    8  C   UNL     1     -11.907   7.856  71.678  1.00  0.00    -0.288 C  
HETATM    9  C   UNL     1     -11.303   8.610  70.483  1.00  0.00    -0.241 C  
HETATM   10  C   UNL     1     -11.367  10.123  70.682  1.00  0.00    -0.352 C  
HETATM   11  S   UNL     1     -12.993  10.535  71.366  1.00  0.00    -0.448 SA 
HETATM   12  S   UNL     1     -13.536   8.637  71.917  1.00  0.00    -0.431 SA 
ENDBRANCH   7   8
ENDBRANCH   6   7
ENDBRANCH   5   6
ENDBRANCH   4   5
TORSDOF 4
ENDMDL
MODEL       96
REMARK 921   NORMALIZED FREE ENERGY PREDICTED BY IDOCK:   -2.85 KCAL/MOL
REMARK 922        TOTAL FREE ENERGY PREDICTED BY IDOCK:   -4.02 KCAL/MOL
REMARK 923 INTER-LIGAND FREE ENERGY PREDICTED BY IDOCK:   -3.70 KCAL/MOL
REMARK 924 INTRA-LIGAND FREE ENERGY PREDICTED BY IDOCK:   -0.32 KCAL/MOL
REMARK 927      BINDING AFFINITY PREDICTED BY RF-SCORE:    0.00 PKD
ROOT
HETATM    1  O   UNL     1      -6.273  14.878  67.281  1.00  0.00    -0.311 OA 
HETATM    2  C   UNL     1      -7.473  14.570  67.828  1.00  0.00    -0.169 C  
HETATM    3  O   UNL     1      -7.692  13.495  68.361  1.00  0.00    -0.123 OA 
HETATM    4  C   UNL     1      -8.471  15.693  67.673  1.00  0.00    -0.169 C  
ENDROOT
BRANCH   4   5
HETATM    5  C   UNL     1      -9.841  15.340  68.256  1.00  0.00    -0.218 C  
BRANCH   5   6
HETATM    6  C   UNL     1     -10.910  16.399  67.961  1.00  0.00    -0.342 C  
BRANCH   6   7
HETATM    7  C   UNL     1     -10.521  17.347  66.817  1.00  0.00    -0.257 C  
BRANCH   7   8
HETATM    8  C   UNL     1     -10.646  18.837  67.177  1.00  0.00    -0.428 C  
HETATM    9  C   UNL     1     -10.040  19.752  66.103  1.00  0.00    -0.600 C  
HETATM   10  C   UNL     1      -8.513  19.674  66.092  1.00  0.00    -0.334 C  
HETATM   11  S   UNL     1      -7.935  19.679  67.809  1.00  0.00    -0.308 SA 
HETATM   12  S   UNL     1      -9.738  19.274  68.696  1.00  0.00    -0.446 SA 
ENDBRANCH   7   8
ENDBRANCH   6   7
ENDBRANCH   5   6
ENDBRANCH   4   5
TORSDOF 4
ENDMDL
MODEL       97
REMARK 921   NORMALIZED FREE ENERGY PREDICTED BY IDOCK:   -2.84 KCAL/MOL
REMARK 922        TOTAL FREE ENERGY PREDICTED BY IDOCK:   -4.01 KCAL/MOL
REMARK 923 INTER-LIGAND FREE ENERGY PREDICTED BY IDOCK:   -3.77 KCAL/MOL
REMARK 924 INTRA-LIGAND FREE ENERGY PREDICTED BY IDOCK:   -0.24 KCAL/MOL
REMARK 927      BINDING AFFINITY PREDICTED BY RF-SCORE:    0.00 PKD
ROOT
HETATM    1  O   UNL     1      -9.186   7.519  66.175  1.00  0.00    -0.167 OA 
HETATM    2  C   UNL     1      -9.767   8.741  66.175  1.00  0.00    -0.250 C  
HETATM    3  O   UNL     1      -9.739   9.479  65.205  1.00  0.00    -0.277 OA 
HETATM    4  C   UNL     1     -10.414   9.061  67.502  1.00  0.00    -0.338 C  
ENDROOT
BRANCH   4   5
HETATM    5  C   UNL     1     -11.043  10.456  67.523  1.00  0.00    -0.336 C  
BRANCH   5   6
HETATM    6  C   UNL     1     -10.031  11.565  67.839  1.00  0.00    -0.193 C  
BRANCH   6   7
HETATM    7  C   UNL     1      -9.875  12.582  66.699  1.00  0.00    -0.245 C  
BRANCH   7   8
HETATM    8  C   UNL     1     -10.415  13.982  67.039  1.00  0.00    -0.275 C  
HETATM    9  C   UNL     1     -11.949  14.014  67.119  1.00  0.00    -0.465 C  
HETATM   10  C   UNL     1     -12.588  13.880  65.737  1.00  0.00    -0.494 C  
HETATM   11  S   UNL     1     -11.655  14.917  64.580  1.00  0.00    -0.354 SA 
HETATM   12  S   UNL     1     -10.011  15.221  65.766  1.00  0.00    -0.374 SA 
ENDBRANCH   7   8
ENDBRANCH   6   7
ENDBRANCH   5   6
ENDBRANCH   4   5
TORSDOF 4
ENDMDL
MODEL       98
REMARK 921   NORMALIZED FREE ENERGY PREDICTED BY IDOCK:   -2.84 KCAL/MOL
REMARK 922        TOTAL FREE ENERGY PREDICTED BY IDOCK:   -4.01 KCAL/MOL
REMARK 923 INTER-LIGAND FREE ENERGY PREDICTED BY IDOCK:   -3.81 KCAL/MOL
REMARK 924 INTRA-LIGAND FREE ENERGY PREDICTED BY IDOCK:   -0.20 KCAL/MOL
REMARK 927      BINDING AFFINITY PREDICTED BY RF-SCORE:    0.00 PKD
ROOT
HETATM    1  O   UNL     1      -8.812   8.598  72.907  1.00  0.00    -0.367 OA 
HETATM    2  C   UNL     1      -9.432   8.757  71.714  1.00  0.00    -0.293 C  
HETATM    3  O   UNL     1      -8.860   8.582  70.651  1.00  0.00    -0.137 OA 
HETATM    4  C   UNL     1     -10.871   9.187  71.875  1.00  0.00    -0.353 C  
ENDROOT
BRANCH   4   5
HETATM    5  C   UNL     1     -11.569   9.404  70.532  1.00  0.00    -0.291 C  
BRANCH   5   6
HETATM    6  C   UNL     1     -11.480  10.853  70.037  1.00  0.00    -0.411 C  
BRANCH   6   7
HETATM    7  C   UNL     1     -11.656  10.985  68.517  1.00  0.00    -0.380 C  
BRANCH   7   8
HETATM    8  C   UNL     1     -10.566  11.832  67.837  1.00  0.00    -0.201 C  
HETATM    9  C   UNL     1     -10.591  13.297  68.297  1.00  0.00    -0.262 C  
HETATM   10  C   UNL     1     -11.803  14.042  67.740  1.00  0.00    -0.384 C  
HETATM   11  S   UNL     1     -12.009  13.567  66.004  1.00  0.00    -0.433 SA 
HETATM   12  S   UNL     1     -10.776  11.930  66.030  1.00  0.00    -0.295 SA 
ENDBRANCH   7   8
ENDBRANCH   6   7
ENDBRANCH   5   6
ENDBRANCH   4   5
TORSDOF 4
ENDMDL
MODEL       99
REMARK 921   NORMALIZED FREE ENERGY PREDICTED BY IDOCK:   -2.84 KCAL/MOL
REMARK 922        TOTAL FREE ENERGY PREDICTED BY IDOCK:   -4.01 KCAL/MOL
REMARK 923 INTER-LIGAND FREE ENERGY PREDICTED BY IDOCK:   -3.86 KCAL/MOL
REMARK 924 INTRA-LIGAND FREE ENERGY PREDICTED BY IDOCK:   -0.14 KCAL/MOL
REMARK 927      BINDING AFFINITY PREDICTED BY RF-SCORE:    0.00 PKD
ROOT
HETATM    1  O   UNL     1      -9.605   6.627  70.461  1.00  0.00    -0.168 OA 
HETATM    2  C   UNL     1     -10.337   6.840  69.343  1.00  0.00    -0.199 C  
HETATM    3  O   UNL     1     -11.416   6.303  69.155  1.00  0.00    -0.394 OA 
HETATM    4  C   UNL     1      -9.649   7.785  68.386  1.00  0.00    -0.157 C  
ENDROOT
BRANCH   4   5
HETATM    5  C   UNL     1     -10.453   8.004  67.103  1.00  0.00    -0.408 C  
BRANCH   5   6
HETATM    6  C   UNL     1      -9.938   9.181  66.266  1.00  0.00    -0.352 C  
BRANCH   6   7
HETATM    7  C   UNL     1     -10.512  10.534  66.709  1.00  0.00    -0.302 C  
BRANCH   7   8
HETATM    8  C   UNL     1     -10.017  11.724  65.867  1.00  0.00    -0.236 C  
HETATM    9  C   UNL     1     -10.842  12.997  66.110  1.00  0.00    -0.296 C  
HETATM   10  C   UNL     1     -12.239  12.886  65.501  1.00  0.00    -0.474 C  
HETATM   11  S   UNL     1     -12.085  12.128  63.863  1.00  0.00    -0.496 SA 
HETATM   12  S   UNL     1     -10.169  11.430  64.075  1.00  0.00    -0.383 SA 
ENDBRANCH   7   8
ENDBRANCH   6   7
ENDBRANCH   5   6
ENDBRANCH   4   5
TORSDOF 4
ENDMDL
MODEL      100
REMARK 921   NORMALIZED FREE ENERGY PREDICTED BY IDOCK:   -2.83 KCAL/MOL
REMARK 922        TOTAL FREE ENERGY PREDICTED BY IDOCK:   -4.00 KCAL/MOL
REMARK 923 INTER-LIGAND FREE ENERGY PREDICTED BY IDOCK:   -3.82 KCAL/MOL
REMARK 924 INTRA-LIGAND FREE ENERGY PREDICTED BY IDOCK:   -0.18 KCAL/MOL
REMARK 927      BINDING AFFINITY PREDICTED BY RF-SCORE:    0.00 PKD
ROOT
HETATM    1  O   UNL     1      -9.926   7.383  70.747  1.00  0.00    -0.183 OA 
HETATM    2  C   UNL     1     -10.078   8.721  70.614  1.00  0.00    -0.204 C  
HETATM    3  O   UNL     1      -9.129   9.481  70.516  1.00  0.00    -0.247 OA 
HETATM    4  C   UNL     1     -11.532   9.130  70.625  1.00  0.00    -0.310 C  
ENDROOT
BRANCH   4   5
HETATM    5  C   UNL     1     -11.713  10.645  70.511  1.00  0.00    -0.451 C  
BRANCH   5   6
HETATM    6  C   UNL     1     -11.857  11.125  69.062  1.00  0.00    -0.418 C  
BRANCH   6   7
HETATM    7  C   UNL     1     -11.176  12.477  68.803  1.00  0.00    -0.318 C  
BRANCH   7   8
HETATM    8  C   UNL     1     -12.160  13.615  68.482  1.00  0.00    -0.286 C  
HETATM    9  C   UNL     1     -12.110  14.034  67.005  1.00  0.00    -0.455 C  
HETATM   10  C   UNL     1     -10.820  14.783  66.675  1.00  0.00    -0.319 C  
HETATM   11  S   UNL     1     -10.479  15.943  68.023  1.00  0.00    -0.283 SA 
HETATM   12  S   UNL     1     -11.782  15.149  69.391  1.00  0.00    -0.347 SA 
ENDBRANCH   7   8
ENDBRANCH   6   7
ENDBRANCH   5   6
ENDBRANCH   4   5
TORSDOF 4
ENDMDL
MODEL      101
REMARK 921   NORMALIZED FREE ENERGY PREDICTED BY IDOCK:   -2.81 KCAL/MOL
REMARK 922        TOTAL FREE ENERGY PREDICTED BY IDOCK:   -3.98 KCAL/MOL
REMARK 923 INTER-LIGAND FREE ENERGY PREDICTED BY IDOCK:   -3.74 KCAL/MOL
REMARK 924 INTRA-LIGAND FREE ENERGY PREDICTED BY IDOCK:   -0.23 KCAL/MOL
REMARK 927      BINDING AFFINITY PREDICTED BY RF-SCORE:    0.00 PKD
ROOT
HETATM    1  O   UNL     1      -6.590  16.795  67.716  1.00  0.00    -0.132 OA 
HETATM    2  C   UNL     1      -7.820  16.331  68.038  1.00  0.00    -0.149 C  
HETATM    3  O   UNL     1      -8.276  16.415  69.166  1.00  0.00    -0.240 OA 
HETATM    4  C   UNL     1      -8.515  15.699  66.856  1.00  0.00    -0.286 C  
ENDROOT
BRANCH   4   5
HETATM    5  C   UNL     1      -9.892  15.139  67.219  1.00  0.00    -0.228 C  
BRANCH   5   6
HETATM    6  C   UNL     1     -10.886  15.186  66.053  1.00  0.00    -0.335 C  
BRANCH   6   7
HETATM    7  C   UNL     1     -10.451  14.333  64.853  1.00  0.00    -0.454 C  
BRANCH   7   8
HETATM    8  C   UNL     1     -11.464  13.241  64.469  1.00  0.00    -0.365 C  
HETATM    9  C   UNL     1     -12.025  12.505  65.695  1.00  0.00    -0.492 C  
HETATM   10  C   UNL     1     -10.977  11.593  66.332  1.00  0.00    -0.295 C  
HETATM   11  S   UNL     1     -10.094  10.733  65.005  1.00  0.00    -0.321 SA 
HETATM   12  S   UNL     1     -10.725  11.918  63.457  1.00  0.00    -0.446 SA 
ENDBRANCH   7   8
ENDBRANCH   6   7
ENDBRANCH   5   6
ENDBRANCH   4   5
TORSDOF 4
ENDMDL
MODEL      102
REMARK 921   NORMALIZED FREE ENERGY PREDICTED BY IDOCK:   -2.81 KCAL/MOL
REMARK 922        TOTAL FREE ENERGY PREDICTED BY IDOCK:   -3.97 KCAL/MOL
REMARK 923 INTER-LIGAND FREE ENERGY PREDICTED BY IDOCK:   -3.76 KCAL/MOL
REMARK 924 INTRA-LIGAND FREE ENERGY PREDICTED BY IDOCK:   -0.22 KCAL/MOL
REMARK 927      BINDING AFFINITY PREDICTED BY RF-SCORE:    0.00 PKD
ROOT
HETATM    1  O   UNL     1     -11.865  11.885  64.232  1.00  0.00    -0.331 OA 
HETATM    2  C   UNL     1     -11.911  13.149  64.714  1.00  0.00    -0.369 C  
HETATM    3  O   UNL     1     -12.899  13.604  65.266  1.00  0.00    -0.672 OA 
HETATM    4  C   UNL     1     -10.623  13.898  64.463  1.00  0.00    -0.375 C  
ENDROOT
BRANCH   4   5
HETATM    5  C   UNL     1     -10.678  15.340  64.971  1.00  0.00    -0.461 C  
BRANCH   5   6
HETATM    6  C   UNL     1     -10.000  15.521  66.335  1.00  0.00    -0.300 C  
BRANCH   6   7
HETATM    7  C   UNL     1      -8.721  16.367  66.266  1.00  0.00    -0.369 C  
BRANCH   7   8
HETATM    8  C   UNL     1      -7.481  15.665  66.846  1.00  0.00    -0.134 C  
HETATM    9  C   UNL     1      -7.772  14.979  68.190  1.00  0.00    -0.115 C  
HETATM   10  C   UNL     1      -7.971  15.998  69.311  1.00  0.00    -0.217 C  
HETATM   11  S   UNL     1      -6.711  17.288  69.133  1.00  0.00    -0.228 SA 
HETATM   12  S   UNL     1      -6.127  16.825  67.224  1.00  0.00    -0.185 SA 
ENDBRANCH   7   8
ENDBRANCH   6   7
ENDBRANCH   5   6
ENDBRANCH   4   5
TORSDOF 4
ENDMDL
MODEL      103
REMARK 921   NORMALIZED FREE ENERGY PREDICTED BY IDOCK:   -2.80 KCAL/MOL
REMARK 922        TOTAL FREE ENERGY PREDICTED BY IDOCK:   -3.96 KCAL/MOL
REMARK 923 INTER-LIGAND FREE ENERGY PREDICTED BY IDOCK:   -3.77 KCAL/MOL
REMARK 924 INTRA-LIGAND FREE ENERGY PREDICTED BY IDOCK:   -0.19 KCAL/MOL
REMARK 927      BINDING AFFINITY PREDICTED BY RF-SCORE:    0.00 PKD
ROOT
HETATM    1  O   UNL     1      -7.859  10.311  63.352  1.00  0.00    -0.155 OA 
HETATM    2  C   UNL     1      -8.170  10.081  64.650  1.00  0.00    -0.163 C  
HETATM    3  O   UNL     1      -7.320   9.868  65.498  1.00  0.00    -0.110 OA 
HETATM    4  C   UNL     1      -9.661  10.105  64.889  1.00  0.00    -0.369 C  
ENDROOT
BRANCH   4   5
HETATM    5  C   UNL     1     -10.023   9.811  66.346  1.00  0.00    -0.314 C  
BRANCH   5   6
HETATM    6  C   UNL     1     -10.916  10.889  66.971  1.00  0.00    -0.310 C  
BRANCH   6   7
HETATM    7  C   UNL     1     -11.427  11.917  65.951  1.00  0.00    -0.340 C  
BRANCH   7   8
HETATM    8  C   UNL     1     -11.971  13.207  66.590  1.00  0.00    -0.389 C  
HETATM    9  C   UNL     1     -12.720  14.090  65.581  1.00  0.00    -0.515 C  
HETATM   10  C   UNL     1     -11.763  14.744  64.586  1.00  0.00    -0.422 C  
HETATM   11  S   UNL     1     -10.313  15.332  65.500  1.00  0.00    -0.406 SA 
HETATM   12  S   UNL     1     -10.650  14.287  67.230  1.00  0.00    -0.280 SA 
ENDBRANCH   7   8
ENDBRANCH   6   7
ENDBRANCH   5   6
ENDBRANCH   4   5
TORSDOF 4
ENDMDL
MODEL      104
REMARK 921   NORMALIZED FREE ENERGY PREDICTED BY IDOCK:   -2.80 KCAL/MOL
REMARK 922        TOTAL FREE ENERGY PREDICTED BY IDOCK:   -3.96 KCAL/MOL
REMARK 923 INTER-LIGAND FREE ENERGY PREDICTED BY IDOCK:   -3.77 KCAL/MOL
REMARK 924 INTRA-LIGAND FREE ENERGY PREDICTED BY IDOCK:   -0.19 KCAL/MOL
REMARK 927      BINDING AFFINITY PREDICTED BY RF-SCORE:    0.00 PKD
ROOT
HETATM    1  O   UNL     1     -10.772  14.727  68.386  1.00  0.00    -0.233 OA 
HETATM    2  C   UNL     1     -11.530  13.991  69.232  1.00  0.00    -0.295 C  
HETATM    3  O   UNL     1     -12.274  14.500  70.054  1.00  0.00    -0.312 OA 
HETATM    4  C   UNL     1     -11.319  12.508  69.039  1.00  0.00    -0.342 C  
ENDROOT
BRANCH   4   5
HETATM    5  C   UNL     1     -12.144  11.669  70.016  1.00  0.00    -0.395 C  
BRANCH   5   6
HETATM    6  C   UNL     1     -11.562  10.269  70.244  1.00  0.00    -0.396 C  
BRANCH   6   7
HETATM    7  C   UNL     1     -12.010   9.637  71.570  1.00  0.00    -0.485 C  
BRANCH   7   8
HETATM    8  C   UNL     1     -11.968   8.099  71.569  1.00  0.00    -0.298 C  
HETATM    9  C   UNL     1     -11.324   7.529  72.842  1.00  0.00    -0.355 C  
HETATM   10  C   UNL     1      -9.816   7.773  72.868  1.00  0.00    -0.264 C  
HETATM   11  S   UNL     1      -9.160   7.432  71.214  1.00  0.00    -0.142 SA 
HETATM   12  S   UNL     1     -10.950   7.423  70.216  1.00  0.00    -0.250 SA 
ENDBRANCH   7   8
ENDBRANCH   6   7
ENDBRANCH   5   6
ENDBRANCH   4   5
TORSDOF 4
ENDMDL
MODEL      105
REMARK 921   NORMALIZED FREE ENERGY PREDICTED BY IDOCK:   -2.78 KCAL/MOL
REMARK 922        TOTAL FREE ENERGY PREDICTED BY IDOCK:   -3.94 KCAL/MOL
REMARK 923 INTER-LIGAND FREE ENERGY PREDICTED BY IDOCK:   -3.59 KCAL/MOL
REMARK 924 INTRA-LIGAND FREE ENERGY PREDICTED BY IDOCK:   -0.36 KCAL/MOL
REMARK 927      BINDING AFFINITY PREDICTED BY RF-SCORE:    0.00 PKD
ROOT
HETATM    1  O   UNL     1     -14.223   8.233  71.743  1.00  0.00    -0.414 OA 
HETATM    2  C   UNL     1     -12.935   7.901  71.492  1.00  0.00    -0.311 C  
HETATM    3  O   UNL     1     -12.619   6.826  71.009  1.00  0.00    -0.347 OA 
HETATM    4  C   UNL     1     -11.978   8.996  71.898  1.00  0.00    -0.445 C  
ENDROOT
BRANCH   4   5
HETATM    5  C   UNL     1     -10.517   8.615  71.652  1.00  0.00    -0.366 C  
BRANCH   5   6
HETATM    6  C   UNL     1      -9.852   9.462  70.560  1.00  0.00    -0.331 C  
BRANCH   6   7
HETATM    7  C   UNL     1     -10.572   9.376  69.206  1.00  0.00    -0.239 C  
BRANCH   7   8
HETATM    8  C   UNL     1      -9.711   8.770  68.084  1.00  0.00    -0.158 C  
HETATM    9  C   UNL     1     -10.518   7.847  67.159  1.00  0.00    -0.414 C  
HETATM   10  C   UNL     1     -10.893   6.539  67.855  1.00  0.00    -0.304 C  
HETATM   11  S   UNL     1      -9.449   5.959  68.783  1.00  0.00    -0.129 SA 
HETATM   12  S   UNL     1      -8.375   7.704  68.718  1.00  0.00    -0.129 SA 
ENDBRANCH   7   8
ENDBRANCH   6   7
ENDBRANCH   5   6
ENDBRANCH   4   5
TORSDOF 4
ENDMDL
MODEL      106
REMARK 921   NORMALIZED FREE ENERGY PREDICTED BY IDOCK:   -2.78 KCAL/MOL
REMARK 922        TOTAL FREE ENERGY PREDICTED BY IDOCK:   -3.94 KCAL/MOL
REMARK 923 INTER-LIGAND FREE ENERGY PREDICTED BY IDOCK:   -3.78 KCAL/MOL
REMARK 924 INTRA-LIGAND FREE ENERGY PREDICTED BY IDOCK:   -0.16 KCAL/MOL
REMARK 927      BINDING AFFINITY PREDICTED BY RF-SCORE:    0.00 PKD
ROOT
HETATM    1  O   UNL     1     -12.110   7.914  72.458  1.00  0.00    -0.315 OA 
HETATM    2  C   UNL     1     -12.520   9.090  71.927  1.00  0.00    -0.384 C  
HETATM    3  O   UNL     1     -13.641   9.534  72.110  1.00  0.00    -0.424 OA 
HETATM    4  C   UNL     1     -11.445   9.740  71.090  1.00  0.00    -0.472 C  
ENDROOT
BRANCH   4   5
HETATM    5  C   UNL     1     -11.912  11.051  70.456  1.00  0.00    -0.474 C  
BRANCH   5   6
HETATM    6  C   UNL     1     -12.015  10.975  68.928  1.00  0.00    -0.332 C  
BRANCH   6   7
HETATM    7  C   UNL     1     -10.766  10.374  68.267  1.00  0.00    -0.275 C  
BRANCH   7   8
HETATM    8  C   UNL     1     -10.580  10.791  66.798  1.00  0.00    -0.250 C  
HETATM    9  C   UNL     1     -10.036   9.647  65.928  1.00  0.00    -0.351 C  
HETATM   10  C   UNL     1      -8.570   9.350  66.242  1.00  0.00    -0.131 C  
HETATM   11  S   UNL     1      -7.699  10.928  66.424  1.00  0.00    -0.145 SA 
HETATM   12  S   UNL     1      -9.355  12.125  66.594  1.00  0.00    -0.228 SA 
ENDBRANCH   7   8
ENDBRANCH   6   7
ENDBRANCH   5   6
ENDBRANCH   4   5
TORSDOF 4
ENDMDL
MODEL      107
REMARK 921   NORMALIZED FREE ENERGY PREDICTED BY IDOCK:   -2.78 KCAL/MOL
REMARK 922        TOTAL FREE ENERGY PREDICTED BY IDOCK:   -3.93 KCAL/MOL
REMARK 923 INTER-LIGAND FREE ENERGY PREDICTED BY IDOCK:   -3.78 KCAL/MOL
REMARK 924 INTRA-LIGAND FREE ENERGY PREDICTED BY IDOCK:   -0.16 KCAL/MOL
REMARK 927      BINDING AFFINITY PREDICTED BY RF-SCORE:    0.00 PKD
ROOT
HETATM    1  O   UNL     1      -8.481   7.792  66.901  1.00  0.00    -0.120 OA 
HETATM    2  C   UNL     1      -8.265   8.807  66.033  1.00  0.00    -0.118 C  
HETATM    3  O   UNL     1      -7.147   9.222  65.776  1.00  0.00    -0.084 OA 
HETATM    4  C   UNL     1      -9.554   9.349  65.462  1.00  0.00    -0.328 C  
ENDROOT
BRANCH   4   5
HETATM    5  C   UNL     1      -9.323  10.522  64.508  1.00  0.00    -0.299 C  
BRANCH   5   6
HETATM    6  C   UNL     1     -10.626  11.119  63.964  1.00  0.00    -0.436 C  
BRANCH   6   7
HETATM    7  C   UNL     1     -10.646  12.654  63.992  1.00  0.00    -0.457 C  
BRANCH   7   8
HETATM    8  C   UNL     1     -11.846  13.246  64.751  1.00  0.00    -0.371 C  
HETATM    9  C   UNL     1     -12.139  14.698  64.345  1.00  0.00    -0.481 C  
HETATM   10  C   UNL     1     -11.072  15.656  64.874  1.00  0.00    -0.402 C  
HETATM   11  S   UNL     1     -10.686  15.186  66.580  1.00  0.00    -0.312 SA 
HETATM   12  S   UNL     1     -11.567  13.336  66.550  1.00  0.00    -0.369 SA 
ENDBRANCH   7   8
ENDBRANCH   6   7
ENDBRANCH   5   6
ENDBRANCH   4   5
TORSDOF 4
ENDMDL
MODEL      108
REMARK 921   NORMALIZED FREE ENERGY PREDICTED BY IDOCK:   -2.77 KCAL/MOL
REMARK 922        TOTAL FREE ENERGY PREDICTED BY IDOCK:   -3.93 KCAL/MOL
REMARK 923 INTER-LIGAND FREE ENERGY PREDICTED BY IDOCK:   -3.71 KCAL/MOL
REMARK 924 INTRA-LIGAND FREE ENERGY PREDICTED BY IDOCK:   -0.22 KCAL/MOL
REMARK 927      BINDING AFFINITY PREDICTED BY RF-SCORE:    0.00 PKD
ROOT
HETATM    1  O   UNL     1     -11.170  16.764  64.391  1.00  0.00    -1.112 OA 
HETATM    2  C   UNL     1     -10.243  16.269  65.244  1.00  0.00    -0.123 C  
HETATM    3  O   UNL     1      -9.257  16.904  65.581  1.00  0.00    -0.512 OA 
HETATM    4  C   UNL     1     -10.575  14.864  65.689  1.00  0.00    -0.358 C  
ENDROOT
BRANCH   4   5
HETATM    5  C   UNL     1      -9.514  14.282  66.625  1.00  0.00    -0.302 C  
BRANCH   5   6
HETATM    6  C   UNL     1     -10.113  13.471  67.780  1.00  0.00    -0.236 C  
BRANCH   6   7
HETATM    7  C   UNL     1      -9.601  12.024  67.832  1.00  0.00    -0.196 C  
BRANCH   7   8
HETATM    8  C   UNL     1      -9.908  11.212  66.562  1.00  0.00    -0.208 C  
HETATM    9  C   UNL     1     -10.739   9.954  66.858  1.00  0.00    -0.195 C  
HETATM   10  C   UNL     1      -9.914   8.892  67.583  1.00  0.00    -0.196 C  
HETATM   11  S   UNL     1      -8.281   8.814  66.803  1.00  0.00    -0.108 SA 
HETATM   12  S   UNL     1      -8.404  10.571  65.755  1.00  0.00    -0.167 SA 
ENDBRANCH   7   8
ENDBRANCH   6   7
ENDBRANCH   5   6
ENDBRANCH   4   5
TORSDOF 4
ENDMDL
MODEL      109
REMARK 921   NORMALIZED FREE ENERGY PREDICTED BY IDOCK:   -2.77 KCAL/MOL
REMARK 922        TOTAL FREE ENERGY PREDICTED BY IDOCK:   -3.93 KCAL/MOL
REMARK 923 INTER-LIGAND FREE ENERGY PREDICTED BY IDOCK:   -3.78 KCAL/MOL
REMARK 924 INTRA-LIGAND FREE ENERGY PREDICTED BY IDOCK:   -0.15 KCAL/MOL
REMARK 927      BINDING AFFINITY PREDICTED BY RF-SCORE:    0.00 PKD
ROOT
HETATM    1  O   UNL     1      -8.829   4.166  68.146  1.00  0.00    -0.100 OA 
HETATM    2  C   UNL     1      -9.879   5.008  68.289  1.00  0.00    -0.150 C  
HETATM    3  O   UNL     1     -10.434   5.529  67.336  1.00  0.00    -0.218 OA 
HETATM    4  C   UNL     1     -10.241   5.222  69.739  1.00  0.00    -0.364 C  
ENDROOT
BRANCH   4   5
HETATM    5  C   UNL     1     -11.403   6.201  69.912  1.00  0.00    -0.454 C  
BRANCH   5   6
HETATM    6  C   UNL     1     -11.759   6.456  71.382  1.00  0.00    -0.364 C  
BRANCH   6   7
HETATM    7  C   UNL     1     -12.807   7.563  71.567  1.00  0.00    -0.397 C  
BRANCH   7   8
HETATM    8  C   UNL     1     -12.252   8.839  72.224  1.00  0.00    -0.358 C  
HETATM    9  C   UNL     1     -13.133  10.068  71.952  1.00  0.00    -0.563 C  
HETATM   10  C   UNL     1     -13.028  10.526  70.498  1.00  0.00    -0.219 C  
HETATM   11  S   UNL     1     -11.286  10.455  70.008  1.00  0.00    -0.334 SA 
HETATM   12  S   UNL     1     -10.617   9.313  71.573  1.00  0.00    -0.261 SA 
ENDBRANCH   7   8
ENDBRANCH   6   7
ENDBRANCH   5   6
ENDBRANCH   4   5
TORSDOF 4
ENDMDL
MODEL      110
REMARK 921   NORMALIZED FREE ENERGY PREDICTED BY IDOCK:   -2.76 KCAL/MOL
REMARK 922        TOTAL FREE ENERGY PREDICTED BY IDOCK:   -3.92 KCAL/MOL
REMARK 923 INTER-LIGAND FREE ENERGY PREDICTED BY IDOCK:   -3.50 KCAL/MOL
REMARK 924 INTRA-LIGAND FREE ENERGY PREDICTED BY IDOCK:   -0.41 KCAL/MOL
REMARK 927      BINDING AFFINITY PREDICTED BY RF-SCORE:    0.00 PKD
ROOT
HETATM    1  O   UNL     1     -10.882  15.297  65.427  1.00  0.00    -0.341 OA 
HETATM    2  C   UNL     1     -11.606  14.451  66.196  1.00  0.00    -0.369 C  
HETATM    3  O   UNL     1     -12.495  13.750  65.741  1.00  0.00    -0.455 OA 
HETATM    4  C   UNL     1     -11.191  14.507  67.647  1.00  0.00    -0.335 C  
ENDROOT
BRANCH   4   5
HETATM    5  C   UNL     1     -12.028  13.581  68.531  1.00  0.00    -0.379 C  
BRANCH   5   6
HETATM    6  C   UNL     1     -11.240  12.373  69.050  1.00  0.00    -0.320 C  
BRANCH   6   7
HETATM    7  C   UNL     1     -11.493  11.093  68.240  1.00  0.00    -0.373 C  
BRANCH   7   8
HETATM    8  C   UNL     1     -10.250  10.199  68.087  1.00  0.00    -0.171 C  
HETATM    9  C   UNL     1      -9.038  10.969  67.542  1.00  0.00    -0.138 C  
HETATM   10  C   UNL     1      -9.214  11.324  66.066  1.00  0.00    -0.208 C  
HETATM   11  S   UNL     1      -9.909   9.883  65.217  1.00  0.00    -0.233 SA 
HETATM   12  S   UNL     1     -10.495   8.850  66.887  1.00  0.00    -0.181 SA 
ENDBRANCH   7   8
ENDBRANCH   6   7
ENDBRANCH   5   6
ENDBRANCH   4   5
TORSDOF 4
ENDMDL
MODEL      111
REMARK 921   NORMALIZED FREE ENERGY PREDICTED BY IDOCK:   -2.76 KCAL/MOL
REMARK 922        TOTAL FREE ENERGY PREDICTED BY IDOCK:   -3.91 KCAL/MOL
REMARK 923 INTER-LIGAND FREE ENERGY PREDICTED BY IDOCK:   -3.55 KCAL/MOL
REMARK 924 INTRA-LIGAND FREE ENERGY PREDICTED BY IDOCK:   -0.36 KCAL/MOL
REMARK 927      BINDING AFFINITY PREDICTED BY RF-SCORE:    0.00 PKD
ROOT
HETATM    1  O   UNL     1     -11.089  16.568  64.430  1.00  0.00    -0.894 OA 
HETATM    2  C   UNL     1     -11.380  15.380  65.010  1.00  0.00    -0.333 C  
HETATM    3  O   UNL     1     -11.861  14.449  64.387  1.00  0.00    -0.425 OA 
HETATM    4  C   UNL     1     -11.059  15.376  66.486  1.00  0.00    -0.227 C  
ENDROOT
BRANCH   4   5
HETATM    5  C   UNL     1     -11.419  14.050  67.158  1.00  0.00    -0.373 C  
BRANCH   5   6
HETATM    6  C   UNL     1     -10.272  13.470  67.994  1.00  0.00    -0.243 C  
BRANCH   6   7
HETATM    7  C   UNL     1      -8.889  13.966  67.549  1.00  0.00    -0.196 C  
BRANCH   7   8
HETATM    8  C   UNL     1      -8.009  14.471  68.706  1.00  0.00    -0.142 C  
HETATM    9  C   UNL     1      -8.308  15.933  69.073  1.00  0.00    -0.239 C  
HETATM   10  C   UNL     1      -7.804  16.897  67.999  1.00  0.00    -0.179 C  
HETATM   11  S   UNL     1      -6.162  16.346  67.470  1.00  0.00    -0.171 SA 
HETATM   12  S   UNL     1      -6.234  14.471  68.294  1.00  0.00    -0.133 SA 
ENDBRANCH   7   8
ENDBRANCH   6   7
ENDBRANCH   5   6
ENDBRANCH   4   5
TORSDOF 4
ENDMDL
MODEL      112
REMARK 921   NORMALIZED FREE ENERGY PREDICTED BY IDOCK:   -2.71 KCAL/MOL
REMARK 922        TOTAL FREE ENERGY PREDICTED BY IDOCK:   -3.85 KCAL/MOL
REMARK 923 INTER-LIGAND FREE ENERGY PREDICTED BY IDOCK:   -3.60 KCAL/MOL
REMARK 924 INTRA-LIGAND FREE ENERGY PREDICTED BY IDOCK:   -0.25 KCAL/MOL
REMARK 927      BINDING AFFINITY PREDICTED BY RF-SCORE:    0.00 PKD
ROOT
HETATM    1  O   UNL     1     -11.788   6.058  72.229  1.00  0.00    -0.319 OA 
HETATM    2  C   UNL     1     -11.430   7.359  72.345  1.00  0.00    -0.300 C  
HETATM    3  O   UNL     1     -10.638   7.747  73.187  1.00  0.00    -0.359 OA 
HETATM    4  C   UNL     1     -12.137   8.233  71.337  1.00  0.00    -0.331 C  
ENDROOT
BRANCH   4   5
HETATM    5  C   UNL     1     -11.767   9.710  71.485  1.00  0.00    -0.472 C  
BRANCH   5   6
HETATM    6  C   UNL     1     -12.428  10.603  70.427  1.00  0.00    -0.421 C  
BRANCH   6   7
HETATM    7  C   UNL     1     -11.417  11.415  69.605  1.00  0.00    -0.380 C  
BRANCH   7   8
HETATM    8  C   UNL     1     -10.211  10.594  69.119  1.00  0.00    -0.220 C  
HETATM    9  C   UNL     1      -9.073  11.481  68.589  1.00  0.00    -0.124 C  
HETATM   10  C   UNL     1      -9.436  12.121  67.250  1.00  0.00    -0.184 C  
HETATM   11  S   UNL     1     -10.244  10.865  66.224  1.00  0.00    -0.251 SA 
HETATM   12  S   UNL     1     -10.618   9.508  67.713  1.00  0.00    -0.242 SA 
ENDBRANCH   7   8
ENDBRANCH   6   7
ENDBRANCH   5   6
ENDBRANCH   4   5
TORSDOF 4
ENDMDL
MODEL      113
REMARK 921   NORMALIZED FREE ENERGY PREDICTED BY IDOCK:   -2.70 KCAL/MOL
REMARK 922        TOTAL FREE ENERGY PREDICTED BY IDOCK:   -3.84 KCAL/MOL
REMARK 923 INTER-LIGAND FREE ENERGY PREDICTED BY IDOCK:   -3.62 KCAL/MOL
REMARK 924 INTRA-LIGAND FREE ENERGY PREDICTED BY IDOCK:   -0.22 KCAL/MOL
REMARK 927      BINDING AFFINITY PREDICTED BY RF-SCORE:    0.00 PKD
ROOT
HETATM    1  O   UNL     1      -8.898   9.013  65.037  1.00  0.00    -0.195 OA 
HETATM    2  C   UNL     1      -9.805   9.401  65.964  1.00  0.00    -0.296 C  
HETATM    3  O   UNL     1     -10.461   8.603  66.612  1.00  0.00    -0.277 OA 
HETATM    4  C   UNL     1      -9.903  10.905  66.066  1.00  0.00    -0.280 C  
ENDROOT
BRANCH   4   5
HETATM    5  C   UNL     1     -10.951  11.353  67.086  1.00  0.00    -0.340 C  
BRANCH   5   6
HETATM    6  C   UNL     1     -11.734  12.592  66.635  1.00  0.00    -0.464 C  
BRANCH   6   7
HETATM    7  C   UNL     1     -10.996  13.909  66.918  1.00  0.00    -0.300 C  
BRANCH   7   8
HETATM    8  C   UNL     1     -10.311  13.952  68.295  1.00  0.00    -0.249 C  
HETATM    9  C   UNL     1     -11.319  14.082  69.447  1.00  0.00    -0.317 C  
HETATM   10  C   UNL     1     -11.949  15.473  69.491  1.00  0.00    -0.350 C  
HETATM   11  S   UNL     1     -10.642  16.695  69.204  1.00  0.00    -0.343 SA 
HETATM   12  S   UNL     1      -9.221  15.399  68.495  1.00  0.00    -0.207 SA 
ENDBRANCH   7   8
ENDBRANCH   6   7
ENDBRANCH   5   6
ENDBRANCH   4   5
TORSDOF 4
ENDMDL
MODEL      114
REMARK 921   NORMALIZED FREE ENERGY PREDICTED BY IDOCK:   -2.69 KCAL/MOL
REMARK 922        TOTAL FREE ENERGY PREDICTED BY IDOCK:   -3.83 KCAL/MOL
REMARK 923 INTER-LIGAND FREE ENERGY PREDICTED BY IDOCK:   -3.42 KCAL/MOL
REMARK 924 INTRA-LIGAND FREE ENERGY PREDICTED BY IDOCK:   -0.41 KCAL/MOL
REMARK 927      BINDING AFFINITY PREDICTED BY RF-SCORE:    0.00 PKD
ROOT
HETATM    1  O   UNL     1     -10.279   9.916  66.584  1.00  0.00    -0.223 OA 
HETATM    2  C   UNL     1     -10.933  11.096  66.698  1.00  0.00    -0.228 C  
HETATM    3  O   UNL     1     -11.243  11.768  65.728  1.00  0.00    -0.322 OA 
HETATM    4  C   UNL     1     -11.198  11.460  68.139  1.00  0.00    -0.343 C  
ENDROOT
BRANCH   4   5
HETATM    5  C   UNL     1     -11.904  12.810  68.279  1.00  0.00    -0.357 C  
BRANCH   5   6
HETATM    6  C   UNL     1     -11.016  13.889  68.911  1.00  0.00    -0.290 C  
BRANCH   6   7
HETATM    7  C   UNL     1     -11.043  15.219  68.143  1.00  0.00    -0.309 C  
BRANCH   7   8
HETATM    8  C   UNL     1     -10.613  15.094  66.672  1.00  0.00    -0.304 C  
HETATM    9  C   UNL     1      -9.218  14.468  66.520  1.00  0.00    -0.282 C  
HETATM   10  C   UNL     1      -8.118  15.428  66.972  1.00  0.00    -0.230 C  
HETATM   11  S   UNL     1      -8.514  17.079  66.340  1.00  0.00    -0.278 SA 
HETATM   12  S   UNL     1     -10.467  16.709  65.841  1.00  0.00    -0.255 SA 
ENDBRANCH   7   8
ENDBRANCH   6   7
ENDBRANCH   5   6
ENDBRANCH   4   5
TORSDOF 4
ENDMDL
MODEL      115
REMARK 921   NORMALIZED FREE ENERGY PREDICTED BY IDOCK:   -2.69 KCAL/MOL
REMARK 922        TOTAL FREE ENERGY PREDICTED BY IDOCK:   -3.83 KCAL/MOL
REMARK 923 INTER-LIGAND FREE ENERGY PREDICTED BY IDOCK:   -3.63 KCAL/MOL
REMARK 924 INTRA-LIGAND FREE ENERGY PREDICTED BY IDOCK:   -0.20 KCAL/MOL
REMARK 927      BINDING AFFINITY PREDICTED BY RF-SCORE:    0.00 PKD
ROOT
HETATM    1  O   UNL     1     -12.360  13.436  70.830  1.00  0.00    -0.366 OA 
HETATM    2  C   UNL     1     -12.052  14.483  70.030  1.00  0.00    -0.339 C  
HETATM    3  O   UNL     1     -12.331  15.634  70.321  1.00  0.00    -0.400 OA 
HETATM    4  C   UNL     1     -11.358  14.043  68.762  1.00  0.00    -0.309 C  
ENDROOT
BRANCH   4   5
HETATM    5  C   UNL     1     -11.039  15.217  67.835  1.00  0.00    -0.322 C  
BRANCH   5   6
HETATM    6  C   UNL     1      -9.548  15.321  67.492  1.00  0.00    -0.206 C  
BRANCH   6   7
HETATM    7  C   UNL     1      -9.176  16.645  66.809  1.00  0.00    -0.259 C  
BRANCH   7   8
HETATM    8  C   UNL     1      -7.807  17.202  67.238  1.00  0.00    -0.178 C  
HETATM    9  C   UNL     1      -7.866  17.917  68.596  1.00  0.00    -0.294 C  
HETATM   10  C   UNL     1      -8.605  19.251  68.499  1.00  0.00    -0.365 C  
HETATM   11  S   UNL     1      -8.066  20.087  66.986  1.00  0.00    -0.330 SA 
HETATM   12  S   UNL     1      -7.173  18.472  66.095  1.00  0.00    -0.263 SA 
ENDBRANCH   7   8
ENDBRANCH   6   7
ENDBRANCH   5   6
ENDBRANCH   4   5
TORSDOF 4
ENDMDL
MODEL      116
REMARK 921   NORMALIZED FREE ENERGY PREDICTED BY IDOCK:   -2.67 KCAL/MOL
REMARK 922        TOTAL FREE ENERGY PREDICTED BY IDOCK:   -3.80 KCAL/MOL
REMARK 923 INTER-LIGAND FREE ENERGY PREDICTED BY IDOCK:   -3.64 KCAL/MOL
REMARK 924 INTRA-LIGAND FREE ENERGY PREDICTED BY IDOCK:   -0.16 KCAL/MOL
REMARK 927      BINDING AFFINITY PREDICTED BY RF-SCORE:    0.00 PKD
ROOT
HETATM    1  O   UNL     1     -10.892  10.862  66.509  1.00  0.00    -0.242 OA 
HETATM    2  C   UNL     1     -11.050  12.203  66.425  1.00  0.00    -0.314 C  
HETATM    3  O   UNL     1     -11.468  12.751  65.418  1.00  0.00    -0.305 OA 
HETATM    4  C   UNL     1     -10.632  12.904  67.696  1.00  0.00    -0.232 C  
ENDROOT
BRANCH   4   5
HETATM    5  C   UNL     1     -10.773  14.424  67.598  1.00  0.00    -0.263 C  
BRANCH   5   6
HETATM    6  C   UNL     1      -9.985  15.171  68.680  1.00  0.00    -0.220 C  
BRANCH   6   7
HETATM    7  C   UNL     1     -10.385  16.648  68.809  1.00  0.00    -0.301 C  
BRANCH   7   8
HETATM    8  C   UNL     1      -9.248  17.630  68.476  1.00  0.00    -0.281 C  
HETATM    9  C   UNL     1      -9.636  19.090  68.751  1.00  0.00    -0.451 C  
HETATM   10  C   UNL     1     -10.653  19.604  67.732  1.00  0.00    -0.396 C  
HETATM   11  S   UNL     1     -10.149  19.027  66.091  1.00  0.00    -0.370 SA 
HETATM   12  S   UNL     1      -8.800  17.615  66.710  1.00  0.00    -0.266 SA 
ENDBRANCH   7   8
ENDBRANCH   6   7
ENDBRANCH   5   6
ENDBRANCH   4   5
TORSDOF 4
ENDMDL
MODEL      117
REMARK 921   NORMALIZED FREE ENERGY PREDICTED BY IDOCK:   -2.63 KCAL/MOL
REMARK 922        TOTAL FREE ENERGY PREDICTED BY IDOCK:   -3.75 KCAL/MOL
REMARK 923 INTER-LIGAND FREE ENERGY PREDICTED BY IDOCK:   -3.54 KCAL/MOL
REMARK 924 INTRA-LIGAND FREE ENERGY PREDICTED BY IDOCK:   -0.21 KCAL/MOL
REMARK 927      BINDING AFFINITY PREDICTED BY RF-SCORE:    0.00 PKD
ROOT
HETATM    1  O   UNL     1      -6.047  20.274  67.877  1.00  0.00    -0.211 OA 
HETATM    2  C   UNL     1      -7.392  20.172  67.757  1.00  0.00    -0.298 C  
HETATM    3  O   UNL     1      -8.030  20.838  66.959  1.00  0.00    -0.279 OA 
HETATM    4  C   UNL     1      -7.973  19.172  68.728  1.00  0.00    -0.382 C  
ENDROOT
BRANCH   4   5
HETATM    5  C   UNL     1      -9.496  19.076  68.626  1.00  0.00    -0.457 C  
BRANCH   5   6
HETATM    6  C   UNL     1     -10.018  17.641  68.764  1.00  0.00    -0.358 C  
BRANCH   6   7
HETATM    7  C   UNL     1      -9.074  16.594  68.154  1.00  0.00    -0.213 C  
BRANCH   7   8
HETATM    8  C   UNL     1      -9.506  15.141  68.420  1.00  0.00    -0.208 C  
HETATM    9  C   UNL     1      -8.909  14.157  67.403  1.00  0.00    -0.211 C  
HETATM   10  C   UNL     1      -9.552  14.311  66.025  1.00  0.00    -0.243 C  
HETATM   11  S   UNL     1     -11.339  14.503  66.255  1.00  0.00    -0.355 SA 
HETATM   12  S   UNL     1     -11.306  14.901  68.265  1.00  0.00    -0.323 SA 
ENDBRANCH   7   8
ENDBRANCH   6   7
ENDBRANCH   5   6
ENDBRANCH   4   5
TORSDOF 4
ENDMDL
MODEL      118
REMARK 921   NORMALIZED FREE ENERGY PREDICTED BY IDOCK:   -2.61 KCAL/MOL
REMARK 922        TOTAL FREE ENERGY PREDICTED BY IDOCK:   -3.73 KCAL/MOL
REMARK 923 INTER-LIGAND FREE ENERGY PREDICTED BY IDOCK:   -3.47 KCAL/MOL
REMARK 924 INTRA-LIGAND FREE ENERGY PREDICTED BY IDOCK:   -0.26 KCAL/MOL
REMARK 927      BINDING AFFINITY PREDICTED BY RF-SCORE:    0.00 PKD
ROOT
HETATM    1  O   UNL     1     -10.918  15.377  71.759  1.00  0.00    -0.303 OA 
HETATM    2  C   UNL     1     -11.754  15.116  70.727  1.00  0.00    -0.325 C  
HETATM    3  O   UNL     1     -12.966  15.070  70.862  1.00  0.00    -0.361 OA 
HETATM    4  C   UNL     1     -11.006  14.880  69.436  1.00  0.00    -0.284 C  
ENDROOT
BRANCH   4   5
HETATM    5  C   UNL     1     -11.942  14.549  68.272  1.00  0.00    -0.303 C  
BRANCH   5   6
HETATM    6  C   UNL     1     -11.785  13.110  67.767  1.00  0.00    -0.401 C  
BRANCH   6   7
HETATM    7  C   UNL     1     -11.815  12.999  66.236  1.00  0.00    -0.466 C  
BRANCH   7   8
HETATM    8  C   UNL     1     -10.421  12.884  65.595  1.00  0.00    -0.277 C  
HETATM    9  C   UNL     1     -10.407  11.932  64.389  1.00  0.00    -0.341 C  
HETATM   10  C   UNL     1     -10.553  10.474  64.821  1.00  0.00    -0.009 C  
HETATM   11  S   UNL     1      -9.508  10.209  66.277  1.00  0.00    -0.191 SA 
HETATM   12  S   UNL     1      -9.180  12.181  66.729  1.00  0.00    -0.209 SA 
ENDBRANCH   7   8
ENDBRANCH   6   7
ENDBRANCH   5   6
ENDBRANCH   4   5
TORSDOF 4
ENDMDL
MODEL      119
REMARK 921   NORMALIZED FREE ENERGY PREDICTED BY IDOCK:   -2.61 KCAL/MOL
REMARK 922        TOTAL FREE ENERGY PREDICTED BY IDOCK:   -3.73 KCAL/MOL
REMARK 923 INTER-LIGAND FREE ENERGY PREDICTED BY IDOCK:   -3.29 KCAL/MOL
REMARK 924 INTRA-LIGAND FREE ENERGY PREDICTED BY IDOCK:   -0.44 KCAL/MOL
REMARK 927      BINDING AFFINITY PREDICTED BY RF-SCORE:    0.00 PKD
ROOT
HETATM    1  O   UNL     1     -10.358  20.510  68.090  1.00  0.00    -0.233 OA 
HETATM    2  C   UNL     1     -10.194  19.261  67.594  1.00  0.00    -0.407 C  
HETATM    3  O   UNL     1     -10.705  18.901  66.546  1.00  0.00    -0.391 OA 
HETATM    4  C   UNL     1      -9.340  18.401  68.494  1.00  0.00    -0.354 C  
ENDROOT
BRANCH   4   5
HETATM    5  C   UNL     1      -9.179  16.976  67.960  1.00  0.00    -0.241 C  
BRANCH   5   6
HETATM    6  C   UNL     1      -7.744  16.658  67.523  1.00  0.00    -0.186 C  
BRANCH   6   7
HETATM    7  C   UNL     1      -7.316  17.414  66.256  1.00  0.00    -0.347 C  
BRANCH   7   8
HETATM    8  C   UNL     1      -5.976  18.156  66.400  1.00  0.00    -0.172 C  
HETATM    9  C   UNL     1      -6.101  19.432  67.246  1.00  0.00    -0.192 C  
HETATM   10  C   UNL     1      -6.862  20.529  66.503  1.00  0.00    -0.255 C  
HETATM   11  S   UNL     1      -6.280  20.557  64.788  1.00  0.00    -0.302 SA 
HETATM   12  S   UNL     1      -5.322  18.745  64.804  1.00  0.00    -0.205 SA 
ENDBRANCH   7   8
ENDBRANCH   6   7
ENDBRANCH   5   6
ENDBRANCH   4   5
TORSDOF 4
ENDMDL
MODEL      120
REMARK 921   NORMALIZED FREE ENERGY PREDICTED BY IDOCK:   -2.61 KCAL/MOL
REMARK 922        TOTAL FREE ENERGY PREDICTED BY IDOCK:   -3.72 KCAL/MOL
REMARK 923 INTER-LIGAND FREE ENERGY PREDICTED BY IDOCK:   -3.46 KCAL/MOL
REMARK 924 INTRA-LIGAND FREE ENERGY PREDICTED BY IDOCK:   -0.26 KCAL/MOL
REMARK 927      BINDING AFFINITY PREDICTED BY RF-SCORE:    0.00 PKD
ROOT
HETATM    1  O   UNL     1     -13.139  10.750  71.962  1.00  0.00    -0.483 OA 
HETATM    2  C   UNL     1     -13.309   9.410  71.883  1.00  0.00    -0.434 C  
HETATM    3  O   UNL     1     -14.400   8.880  72.018  1.00  0.00    -0.392 OA 
HETATM    4  C   UNL     1     -12.008   8.686  71.633  1.00  0.00    -0.388 C  
ENDROOT
BRANCH   4   5
HETATM    5  C   UNL     1     -12.186   7.168  71.578  1.00  0.00    -0.396 C  
BRANCH   5   6
HETATM    6  C   UNL     1     -11.496   6.526  70.368  1.00  0.00    -0.465 C  
BRANCH   6   7
HETATM    7  C   UNL     1      -9.970   6.693  70.383  1.00  0.00    -0.193 C  
BRANCH   7   8
HETATM    8  C   UNL     1      -9.200   5.374  70.193  1.00  0.00    -0.140 C  
HETATM    9  C   UNL     1      -9.698   4.265  71.132  1.00  0.00    -0.259 C  
HETATM   10  C   UNL     1      -9.291   4.530  72.581  1.00  0.00    -0.129 C  
HETATM   11  S   UNL     1      -7.576   5.111  72.590  1.00  0.00    -0.098 SA 
HETATM   12  S   UNL     1      -7.428   5.530  70.589  1.00  0.00    -0.086 SA 
ENDBRANCH   7   8
ENDBRANCH   6   7
ENDBRANCH   5   6
ENDBRANCH   4   5
TORSDOF 4
ENDMDL
MODEL      121
REMARK 921   NORMALIZED FREE ENERGY PREDICTED BY IDOCK:   -2.60 KCAL/MOL
REMARK 922        TOTAL FREE ENERGY PREDICTED BY IDOCK:   -3.72 KCAL/MOL
REMARK 923 INTER-LIGAND FREE ENERGY PREDICTED BY IDOCK:   -3.48 KCAL/MOL
REMARK 924 INTRA-LIGAND FREE ENERGY PREDICTED BY IDOCK:   -0.24 KCAL/MOL
REMARK 927      BINDING AFFINITY PREDICTED BY RF-SCORE:    0.00 PKD
ROOT
HETATM    1  O   UNL     1      -9.592  11.014  66.026  1.00  0.00    -0.199 OA 
HETATM    2  C   UNL     1     -10.060  11.464  67.214  1.00  0.00    -0.192 C  
HETATM    3  O   UNL     1      -9.539  12.389  67.815  1.00  0.00    -0.190 OA 
HETATM    4  C   UNL     1     -11.260  10.678  67.685  1.00  0.00    -0.361 C  
ENDROOT
BRANCH   4   5
HETATM    5  C   UNL     1     -11.774  11.155  69.045  1.00  0.00    -0.408 C  
BRANCH   5   6
HETATM    6  C   UNL     1     -11.092  10.451  70.225  1.00  0.00    -0.379 C  
BRANCH   6   7
HETATM    7  C   UNL     1     -11.960   9.353  70.856  1.00  0.00    -0.351 C  
BRANCH   7   8
HETATM    8  C   UNL     1     -11.355   7.943  70.743  1.00  0.00    -0.274 C  
HETATM    9  C   UNL     1     -11.677   7.068  71.963  1.00  0.00    -0.332 C  
HETATM   10  C   UNL     1     -10.904   7.521  73.201  1.00  0.00    -0.395 C  
HETATM   11  S   UNL     1      -9.205   7.898  72.700  1.00  0.00    -0.235 SA 
HETATM   12  S   UNL     1      -9.534   7.961  70.678  1.00  0.00    -0.162 SA 
ENDBRANCH   7   8
ENDBRANCH   6   7
ENDBRANCH   5   6
ENDBRANCH   4   5
TORSDOF 4
ENDMDL
MODEL      122
REMARK 921   NORMALIZED FREE ENERGY PREDICTED BY IDOCK:   -2.60 KCAL/MOL
REMARK 922        TOTAL FREE ENERGY PREDICTED BY IDOCK:   -3.71 KCAL/MOL
REMARK 923 INTER-LIGAND FREE ENERGY PREDICTED BY IDOCK:   -3.47 KCAL/MOL
REMARK 924 INTRA-LIGAND FREE ENERGY PREDICTED BY IDOCK:   -0.25 KCAL/MOL
REMARK 927      BINDING AFFINITY PREDICTED BY RF-SCORE:    0.00 PKD
ROOT
HETATM    1  O   UNL     1     -13.279  12.551  72.059  1.00  0.00    -0.472 OA 
HETATM    2  C   UNL     1     -13.035  11.284  71.650  1.00  0.00    -0.432 C  
HETATM    3  O   UNL     1     -13.482  10.311  72.234  1.00  0.00    -0.377 OA 
HETATM    4  C   UNL     1     -12.149  11.243  70.428  1.00  0.00    -0.474 C  
ENDROOT
BRANCH   4   5
HETATM    5  C   UNL     1     -11.839   9.814  69.980  1.00  0.00    -0.067 C  
BRANCH   5   6
HETATM    6  C   UNL     1     -10.338   9.555  69.798  1.00  0.00    -0.251 C  
BRANCH   6   7
HETATM    7  C   UNL     1      -9.806  10.015  68.433  1.00  0.00    -0.169 C  
BRANCH   7   8
HETATM    8  C   UNL     1     -10.531   9.374  67.237  1.00  0.00    -0.264 C  
HETATM    9  C   UNL     1     -10.312   7.855  67.166  1.00  0.00    -0.398 C  
HETATM   10  C   UNL     1      -8.884   7.510  66.746  1.00  0.00    -0.140 C  
HETATM   11  S   UNL     1      -8.407   8.623  65.398  1.00  0.00    -0.165 SA 
HETATM   12  S   UNL     1      -9.920   9.986  65.633  1.00  0.00    -0.259 SA 
ENDBRANCH   7   8
ENDBRANCH   6   7
ENDBRANCH   5   6
ENDBRANCH   4   5
TORSDOF 4
ENDMDL
MODEL      123
REMARK 921   NORMALIZED FREE ENERGY PREDICTED BY IDOCK:   -2.60 KCAL/MOL
REMARK 922        TOTAL FREE ENERGY PREDICTED BY IDOCK:   -3.71 KCAL/MOL
REMARK 923 INTER-LIGAND FREE ENERGY PREDICTED BY IDOCK:   -3.42 KCAL/MOL
REMARK 924 INTRA-LIGAND FREE ENERGY PREDICTED BY IDOCK:   -0.30 KCAL/MOL
REMARK 927      BINDING AFFINITY PREDICTED BY RF-SCORE:    0.00 PKD
ROOT
HETATM    1  O   UNL     1      -7.262  20.866  67.322  1.00  0.00    -0.347 OA 
HETATM    2  C   UNL     1      -7.572  19.832  66.505  1.00  0.00    -0.278 C  
HETATM    3  O   UNL     1      -7.646  19.955  65.294  1.00  0.00    -0.344 OA 
HETATM    4  C   UNL     1      -7.823  18.557  67.274  1.00  0.00    -0.240 C  
ENDROOT
BRANCH   4   5
HETATM    5  C   UNL     1      -8.210  17.392  66.362  1.00  0.00    -0.306 C  
BRANCH   5   6
HETATM    6  C   UNL     1      -9.718  17.116  66.349  1.00  0.00    -0.307 C  
BRANCH   6   7
HETATM    7  C   UNL     1     -10.071  15.713  65.834  1.00  0.00    -0.378 C  
BRANCH   7   8
HETATM    8  C   UNL     1     -10.800  14.838  66.869  1.00  0.00    -0.316 C  
HETATM    9  C   UNL     1     -10.040  14.751  68.201  1.00  0.00    -0.221 C  
HETATM   10  C   UNL     1      -8.775  13.902  68.074  1.00  0.00    -0.183 C  
HETATM   11  S   UNL     1      -9.174  12.436  67.088  1.00  0.00    -0.206 SA 
HETATM   12  S   UNL     1     -10.961  13.103  66.336  1.00  0.00    -0.292 SA 
ENDBRANCH   7   8
ENDBRANCH   6   7
ENDBRANCH   5   6
ENDBRANCH   4   5
TORSDOF 4
ENDMDL
MODEL      124
REMARK 921   NORMALIZED FREE ENERGY PREDICTED BY IDOCK:   -2.60 KCAL/MOL
REMARK 922        TOTAL FREE ENERGY PREDICTED BY IDOCK:   -3.71 KCAL/MOL
REMARK 923 INTER-LIGAND FREE ENERGY PREDICTED BY IDOCK:   -3.51 KCAL/MOL
REMARK 924 INTRA-LIGAND FREE ENERGY PREDICTED BY IDOCK:   -0.20 KCAL/MOL
REMARK 927      BINDING AFFINITY PREDICTED BY RF-SCORE:    0.00 PKD
ROOT
HETATM    1  O   UNL     1     -10.881  16.593  64.824  1.00  0.00    -0.732 OA 
HETATM    2  C   UNL     1     -10.132  15.793  65.619  1.00  0.00    -0.371 C  
HETATM    3  O   UNL     1      -8.955  16.017  65.851  1.00  0.00    -0.326 OA 
HETATM    4  C   UNL     1     -10.919  14.615  66.141  1.00  0.00    -0.329 C  
ENDROOT
BRANCH   4   5
HETATM    5  C   UNL     1     -10.071  13.685  67.011  1.00  0.00    -0.248 C  
BRANCH   5   6
HETATM    6  C   UNL     1     -10.332  12.200  66.732  1.00  0.00    -0.237 C  
BRANCH   6   7
HETATM    7  C   UNL     1     -11.238  11.538  67.780  1.00  0.00    -0.343 C  
BRANCH   7   8
HETATM    8  C   UNL     1     -10.617  11.477  69.187  1.00  0.00    -0.136 C  
HETATM    9  C   UNL     1      -9.479  10.450  69.281  1.00  0.00    -0.214 C  
HETATM   10  C   UNL     1     -10.009   9.017  69.232  1.00  0.00    -0.188 C  
HETATM   11  S   UNL     1     -11.488   8.925  70.274  1.00  0.00    -0.024 SA 
HETATM   12  S   UNL     1     -11.807  10.941  70.459  1.00  0.00    -0.360 SA 
ENDBRANCH   7   8
ENDBRANCH   6   7
ENDBRANCH   5   6
ENDBRANCH   4   5
TORSDOF 4
ENDMDL
MODEL      125
REMARK 921   NORMALIZED FREE ENERGY PREDICTED BY IDOCK:   -2.60 KCAL/MOL
REMARK 922        TOTAL FREE ENERGY PREDICTED BY IDOCK:   -3.71 KCAL/MOL
REMARK 923 INTER-LIGAND FREE ENERGY PREDICTED BY IDOCK:   -3.41 KCAL/MOL
REMARK 924 INTRA-LIGAND FREE ENERGY PREDICTED BY IDOCK:   -0.30 KCAL/MOL
REMARK 927      BINDING AFFINITY PREDICTED BY RF-SCORE:    0.00 PKD
ROOT
HETATM    1  O   UNL     1     -11.509   7.900  72.792  1.00  0.00    -0.390 OA 
HETATM    2  C   UNL     1     -11.944   7.353  71.632  1.00  0.00    -0.307 C  
HETATM    3  O   UNL     1     -13.128   7.288  71.343  1.00  0.00    -0.376 OA 
HETATM    4  C   UNL     1     -10.805   6.835  70.787  1.00  0.00    -0.291 C  
ENDROOT
BRANCH   4   5
HETATM    5  C   UNL     1     -11.290   6.182  69.491  1.00  0.00    -0.426 C  
BRANCH   5   6
HETATM    6  C   UNL     1     -10.349   6.431  68.306  1.00  0.00    -0.228 C  
BRANCH   6   7
HETATM    7  C   UNL     1     -10.638   7.748  67.571  1.00  0.00    -0.319 C  
BRANCH   7   8
HETATM    8  C   UNL     1      -9.655   8.880  67.918  1.00  0.00    -0.148 C  
HETATM    9  C   UNL     1     -10.300   9.971  68.787  1.00  0.00    -0.216 C  
HETATM   10  C   UNL     1     -11.299  10.808  67.989  1.00  0.00    -0.307 C  
HETATM   11  S   UNL     1     -10.572  11.163  66.368  1.00  0.00    -0.245 SA 
HETATM   12  S   UNL     1      -9.064   9.777  66.446  1.00  0.00    -0.161 SA 
ENDBRANCH   7   8
ENDBRANCH   6   7
ENDBRANCH   5   6
ENDBRANCH   4   5
TORSDOF 4
ENDMDL
MODEL      126
REMARK 921   NORMALIZED FREE ENERGY PREDICTED BY IDOCK:   -2.59 KCAL/MOL
REMARK 922        TOTAL FREE ENERGY PREDICTED BY IDOCK:   -3.71 KCAL/MOL
REMARK 923 INTER-LIGAND FREE ENERGY PREDICTED BY IDOCK:   -3.51 KCAL/MOL
REMARK 924 INTRA-LIGAND FREE ENERGY PREDICTED BY IDOCK:   -0.20 KCAL/MOL
REMARK 927      BINDING AFFINITY PREDICTED BY RF-SCORE:    0.00 PKD
ROOT
HETATM    1  O   UNL     1      -7.778   8.427  73.461  1.00  0.00    -0.280 OA 
HETATM    2  C   UNL     1      -9.064   8.103  73.187  1.00  0.00    -0.265 C  
HETATM    3  O   UNL     1      -9.733   7.401  73.928  1.00  0.00    -0.281 OA 
HETATM    4  C   UNL     1      -9.530   8.690  71.877  1.00  0.00    -0.369 C  
ENDROOT
BRANCH   4   5
HETATM    5  C   UNL     1     -10.970   8.299  71.542  1.00  0.00    -0.312 C  
BRANCH   5   6
HETATM    6  C   UNL     1     -11.502   8.989  70.280  1.00  0.00    -0.147 C  
BRANCH   6   7
HETATM    7  C   UNL     1     -11.288  10.510  70.288  1.00  0.00    -0.407 C  
BRANCH   7   8
HETATM    8  C   UNL     1     -11.872  11.225  69.057  1.00  0.00    -0.352 C  
HETATM    9  C   UNL     1     -11.188  10.793  67.750  1.00  0.00    -0.385 C  
HETATM   10  C   UNL     1      -9.767  11.345  67.650  1.00  0.00    -0.172 C  
HETATM   11  S   UNL     1      -9.788  13.068  68.210  1.00  0.00    -0.206 SA 
HETATM   12  S   UNL     1     -11.630  13.030  69.109  1.00  0.00    -0.328 SA 
ENDBRANCH   7   8
ENDBRANCH   6   7
ENDBRANCH   5   6
ENDBRANCH   4   5
TORSDOF 4
ENDMDL
MODEL      127
REMARK 921   NORMALIZED FREE ENERGY PREDICTED BY IDOCK:   -2.59 KCAL/MOL
REMARK 922        TOTAL FREE ENERGY PREDICTED BY IDOCK:   -3.70 KCAL/MOL
REMARK 923 INTER-LIGAND FREE ENERGY PREDICTED BY IDOCK:   -3.33 KCAL/MOL
REMARK 924 INTRA-LIGAND FREE ENERGY PREDICTED BY IDOCK:   -0.37 KCAL/MOL
REMARK 927      BINDING AFFINITY PREDICTED BY RF-SCORE:    0.00 PKD
ROOT
HETATM    1  O   UNL     1     -11.395   2.310  73.737  1.00  0.00    -0.207 OA 
HETATM    2  C   UNL     1     -10.865   3.473  73.292  1.00  0.00    -0.189 C  
HETATM    3  O   UNL     1     -10.977   4.521  73.906  1.00  0.00    -0.280 OA 
HETATM    4  C   UNL     1     -10.158   3.304  71.968  1.00  0.00    -0.178 C  
ENDROOT
BRANCH   4   5
HETATM    5  C   UNL     1      -9.587   4.621  71.439  1.00  0.00    -0.230 C  
BRANCH   5   6
HETATM    6  C   UNL     1     -10.393   5.197  70.269  1.00  0.00    -0.331 C  
BRANCH   6   7
HETATM    7  C   UNL     1     -11.384   6.290  70.697  1.00  0.00    -0.409 C  
BRANCH   7   8
HETATM    8  C   UNL     1     -10.797   7.302  71.696  1.00  0.00    -0.220 C  
HETATM    9  C   UNL     1     -11.876   8.192  72.331  1.00  0.00    -0.448 C  
HETATM   10  C   UNL     1     -12.437   9.199  71.327  1.00  0.00    -0.300 C  
HETATM   11  S   UNL     1     -11.053   9.881  70.378  1.00  0.00    -0.339 SA 
HETATM   12  S   UNL     1      -9.652   8.484  70.912  1.00  0.00    -0.200 SA 
ENDBRANCH   7   8
ENDBRANCH   6   7
ENDBRANCH   5   6
ENDBRANCH   4   5
TORSDOF 4
ENDMDL
MODEL      128
REMARK 921   NORMALIZED FREE ENERGY PREDICTED BY IDOCK:   -2.59 KCAL/MOL
REMARK 922        TOTAL FREE ENERGY PREDICTED BY IDOCK:   -3.70 KCAL/MOL
REMARK 923 INTER-LIGAND FREE ENERGY PREDICTED BY IDOCK:   -3.44 KCAL/MOL
REMARK 924 INTRA-LIGAND FREE ENERGY PREDICTED BY IDOCK:   -0.27 KCAL/MOL
REMARK 927      BINDING AFFINITY PREDICTED BY RF-SCORE:    0.00 PKD
ROOT
HETATM    1  O   UNL     1      -7.229  17.422  66.026  1.00  0.00    -0.297 OA 
HETATM    2  C   UNL     1      -8.316  16.776  66.510  1.00  0.00    -0.285 C  
HETATM    3  O   UNL     1      -9.158  16.278  65.782  1.00  0.00    -0.434 OA 
HETATM    4  C   UNL     1      -8.350  16.777  68.020  1.00  0.00    -0.200 C  
ENDROOT
BRANCH   4   5
HETATM    5  C   UNL     1      -9.594  16.081  68.575  1.00  0.00    -0.215 C  
BRANCH   5   6
HETATM    6  C   UNL     1      -9.336  14.625  68.981  1.00  0.00    -0.118 C  
BRANCH   6   7
HETATM    7  C   UNL     1      -9.697  13.617  67.880  1.00  0.00    -0.234 C  
BRANCH   7   8
HETATM    8  C   UNL     1     -11.190  13.243  67.847  1.00  0.00    -0.272 C  
HETATM    9  C   UNL     1     -11.412  11.724  67.813  1.00  0.00    -0.381 C  
HETATM   10  C   UNL     1     -11.024  11.128  66.460  1.00  0.00    -0.209 C  
HETATM   11  S   UNL     1     -11.642  12.228  65.160  1.00  0.00    -0.336 SA 
HETATM   12  S   UNL     1     -12.035  13.849  66.351  1.00  0.00    -0.454 SA 
ENDBRANCH   7   8
ENDBRANCH   6   7
ENDBRANCH   5   6
ENDBRANCH   4   5
TORSDOF 4
ENDMDL
MODEL      129
REMARK 921   NORMALIZED FREE ENERGY PREDICTED BY IDOCK:   -2.58 KCAL/MOL
REMARK 922        TOTAL FREE ENERGY PREDICTED BY IDOCK:   -3.69 KCAL/MOL
REMARK 923 INTER-LIGAND FREE ENERGY PREDICTED BY IDOCK:   -3.22 KCAL/MOL
REMARK 924 INTRA-LIGAND FREE ENERGY PREDICTED BY IDOCK:   -0.46 KCAL/MOL
REMARK 927      BINDING AFFINITY PREDICTED BY RF-SCORE:    0.00 PKD
ROOT
HETATM    1  O   UNL     1     -10.839   8.604  71.963  1.00  0.00    -0.314 OA 
HETATM    2  C   UNL     1      -9.954   9.217  71.143  1.00  0.00    -0.307 C  
HETATM    3  O   UNL     1      -8.751   9.192  71.342  1.00  0.00    -0.309 OA 
HETATM    4  C   UNL     1     -10.639   9.928  69.999  1.00  0.00    -0.335 C  
ENDROOT
BRANCH   4   5
HETATM    5  C   UNL     1      -9.649  10.654  69.087  1.00  0.00    -0.193 C  
BRANCH   5   6
HETATM    6  C   UNL     1      -9.643  10.109  67.654  1.00  0.00    -0.170 C  
BRANCH   6   7
HETATM    7  C   UNL     1     -10.659   8.979  67.433  1.00  0.00    -0.309 C  
BRANCH   7   8
HETATM    8  C   UNL     1     -10.038   7.686  66.877  1.00  0.00    -0.278 C  
HETATM    9  C   UNL     1     -10.929   6.458  67.117  1.00  0.00    -0.476 C  
HETATM   10  C   UNL     1     -10.948   6.056  68.591  1.00  0.00    -0.284 C  
HETATM   11  S   UNL     1      -9.257   6.166  69.230  1.00  0.00    -0.131 SA 
HETATM   12  S   UNL     1      -8.463   7.257  67.687  1.00  0.00    -0.116 SA 
ENDBRANCH   7   8
ENDBRANCH   6   7
ENDBRANCH   5   6
ENDBRANCH   4   5
TORSDOF 4
ENDMDL
MODEL      130
REMARK 921   NORMALIZED FREE ENERGY PREDICTED BY IDOCK:   -2.58 KCAL/MOL
REMARK 922        TOTAL FREE ENERGY PREDICTED BY IDOCK:   -3.68 KCAL/MOL
REMARK 923 INTER-LIGAND FREE ENERGY PREDICTED BY IDOCK:   -3.37 KCAL/MOL
REMARK 924 INTRA-LIGAND FREE ENERGY PREDICTED BY IDOCK:   -0.32 KCAL/MOL
REMARK 927      BINDING AFFINITY PREDICTED BY RF-SCORE:    0.00 PKD
ROOT
HETATM    1  O   UNL     1     -13.455  11.784  72.189  1.00  0.00    -0.446 OA 
HETATM    2  C   UNL     1     -12.999  11.036  71.158  1.00  0.00    -0.324 C  
HETATM    3  O   UNL     1     -13.312   9.866  71.010  1.00  0.00    -0.374 OA 
HETATM    4  C   UNL     1     -12.067  11.815  70.260  1.00  0.00    -0.426 C  
ENDROOT
BRANCH   4   5
HETATM    5  C   UNL     1     -11.518  10.967  69.112  1.00  0.00    -0.373 C  
BRANCH   5   6
HETATM    6  C   UNL     1     -10.169  10.315  69.439  1.00  0.00    -0.255 C  
BRANCH   6   7
HETATM    7  C   UNL     1     -10.287   8.826  69.792  1.00  0.00    -0.214 C  
BRANCH   7   8
HETATM    8  C   UNL     1     -10.177   8.536  71.299  1.00  0.00    -0.223 C  
HETATM    9  C   UNL     1      -8.725   8.586  71.800  1.00  0.00    -0.266 C  
HETATM   10  C   UNL     1      -7.916   7.388  71.304  1.00  0.00    -0.096 C  
HETATM   11  S   UNL     1      -8.946   5.906  71.462  1.00  0.00    -0.143 SA 
HETATM   12  S   UNL     1     -10.740   6.859  71.737  1.00  0.00    -0.224 SA 
ENDBRANCH   7   8
ENDBRANCH   6   7
ENDBRANCH   5   6
ENDBRANCH   4   5
TORSDOF 4
ENDMDL
MODEL      131
REMARK 921   NORMALIZED FREE ENERGY PREDICTED BY IDOCK:   -2.57 KCAL/MOL
REMARK 922        TOTAL FREE ENERGY PREDICTED BY IDOCK:   -3.68 KCAL/MOL
REMARK 923 INTER-LIGAND FREE ENERGY PREDICTED BY IDOCK:   -3.55 KCAL/MOL
REMARK 924 INTRA-LIGAND FREE ENERGY PREDICTED BY IDOCK:   -0.14 KCAL/MOL
REMARK 927      BINDING AFFINITY PREDICTED BY RF-SCORE:    0.00 PKD
ROOT
HETATM    1  O   UNL     1     -10.870  12.061  64.543  1.00  0.00    -0.285 OA 
HETATM    2  C   UNL     1     -11.214  11.606  65.770  1.00  0.00    -0.230 C  
HETATM    3  O   UNL     1     -12.130  12.089  66.415  1.00  0.00    -0.610 OA 
HETATM    4  C   UNL     1     -10.325  10.473  66.224  1.00  0.00    -0.276 C  
ENDROOT
BRANCH   4   5
HETATM    5  C   UNL     1     -10.682   9.976  67.626  1.00  0.00    -0.340 C  
BRANCH   5   6
HETATM    6  C   UNL     1      -9.943   8.689  68.013  1.00  0.00    -0.221 C  
BRANCH   6   7
HETATM    7  C   UNL     1     -10.729   7.814  68.999  1.00  0.00    -0.119 C  
BRANCH   7   8
HETATM    8  C   UNL     1      -9.874   7.257  70.151  1.00  0.00    -0.179 C  
HETATM    9  C   UNL     1     -10.549   6.073  70.862  1.00  0.00    -0.310 C  
HETATM   10  C   UNL     1     -11.745   6.526  71.698  1.00  0.00    -0.324 C  
HETATM   11  S   UNL     1     -11.282   8.045  72.570  1.00  0.00    -0.396 SA 
HETATM   12  S   UNL     1      -9.601   8.475  71.479  1.00  0.00    -0.254 SA 
ENDBRANCH   7   8
ENDBRANCH   6   7
ENDBRANCH   5   6
ENDBRANCH   4   5
TORSDOF 4
ENDMDL
MODEL      132
REMARK 921   NORMALIZED FREE ENERGY PREDICTED BY IDOCK:   -2.57 KCAL/MOL
REMARK 922        TOTAL FREE ENERGY PREDICTED BY IDOCK:   -3.67 KCAL/MOL
REMARK 923 INTER-LIGAND FREE ENERGY PREDICTED BY IDOCK:   -3.37 KCAL/MOL
REMARK 924 INTRA-LIGAND FREE ENERGY PREDICTED BY IDOCK:   -0.30 KCAL/MOL
REMARK 927      BINDING AFFINITY PREDICTED BY RF-SCORE:    0.00 PKD
ROOT
HETATM    1  O   UNL     1      -6.434  21.066  64.379  1.00  0.00    -0.291 OA 
HETATM    2  C   UNL     1      -6.150  19.755  64.563  1.00  0.00    -0.261 C  
HETATM    3  O   UNL     1      -5.866  19.011  63.639  1.00  0.00    -0.422 OA 
HETATM    4  C   UNL     1      -6.250  19.352  66.015  1.00  0.00    -0.204 C  
ENDROOT
BRANCH   4   5
HETATM    5  C   UNL     1      -5.966  17.864  66.229  1.00  0.00    -0.231 C  
BRANCH   5   6
HETATM    6  C   UNL     1      -7.236  17.004  66.219  1.00  0.00    -0.269 C  
BRANCH   6   7
HETATM    7  C   UNL     1      -7.954  16.971  67.575  1.00  0.00    -0.189 C  
BRANCH   7   8
HETATM    8  C   UNL     1      -9.489  17.004  67.465  1.00  0.00    -0.246 C  
HETATM    9  C   UNL     1      -9.978  17.994  66.398  1.00  0.00    -0.362 C  
HETATM   10  C   UNL     1      -9.776  19.443  66.839  1.00  0.00    -0.343 C  
HETATM   11  S   UNL     1     -10.258  19.577  68.580  1.00  0.00    -0.354 SA 
HETATM   12  S   UNL     1     -10.293  17.571  68.999  1.00  0.00    -0.202 SA 
ENDBRANCH   7   8
ENDBRANCH   6   7
ENDBRANCH   5   6
ENDBRANCH   4   5
TORSDOF 4
ENDMDL
MODEL      133
REMARK 921   NORMALIZED FREE ENERGY PREDICTED BY IDOCK:   -2.57 KCAL/MOL
REMARK 922        TOTAL FREE ENERGY PREDICTED BY IDOCK:   -3.67 KCAL/MOL
REMARK 923 INTER-LIGAND FREE ENERGY PREDICTED BY IDOCK:   -3.47 KCAL/MOL
REMARK 924 INTRA-LIGAND FREE ENERGY PREDICTED BY IDOCK:   -0.20 KCAL/MOL
REMARK 927      BINDING AFFINITY PREDICTED BY RF-SCORE:    0.00 PKD
ROOT
HETATM    1  O   UNL     1      -7.095  11.985  68.450  1.00  0.00    -0.072 OA 
HETATM    2  C   UNL     1      -8.374  12.264  68.106  1.00  0.00    -0.174 C  
HETATM    3  O   UNL     1      -8.700  13.331  67.612  1.00  0.00    -0.171 OA 
HETATM    4  C   UNL     1      -9.310  11.123  68.426  1.00  0.00    -0.185 C  
ENDROOT
BRANCH   4   5
HETATM    5  C   UNL     1     -10.763  11.444  68.074  1.00  0.00    -0.240 C  
BRANCH   5   6
HETATM    6  C   UNL     1     -11.762  10.919  69.112  1.00  0.00    -0.397 C  
BRANCH   6   7
HETATM    7  C   UNL     1     -11.280   9.648  69.826  1.00  0.00    -0.208 C  
BRANCH   7   8
HETATM    8  C   UNL     1     -11.491   9.675  71.350  1.00  0.00    -0.385 C  
HETATM    9  C   UNL     1     -11.461   8.270  71.970  1.00  0.00    -0.399 C  
HETATM   10  C   UNL     1     -12.709   7.467  71.607  1.00  0.00    -0.355 C  
HETATM   11  S   UNL     1     -14.146   8.560  71.753  1.00  0.00    -0.434 SA 
HETATM   12  S   UNL     1     -13.122  10.334  71.824  1.00  0.00    -0.450 SA 
ENDBRANCH   7   8
ENDBRANCH   6   7
ENDBRANCH   5   6
ENDBRANCH   4   5
TORSDOF 4
ENDMDL
MODEL      134
REMARK 921   NORMALIZED FREE ENERGY PREDICTED BY IDOCK:   -2.55 KCAL/MOL
REMARK 922        TOTAL FREE ENERGY PREDICTED BY IDOCK:   -3.66 KCAL/MOL
REMARK 923 INTER-LIGAND FREE ENERGY PREDICTED BY IDOCK:   -3.42 KCAL/MOL
REMARK 924 INTRA-LIGAND FREE ENERGY PREDICTED BY IDOCK:   -0.24 KCAL/MOL
REMARK 927      BINDING AFFINITY PREDICTED BY RF-SCORE:    0.00 PKD
ROOT
HETATM    1  O   UNL     1      -8.983   7.382  69.606  1.00  0.00    -0.141 OA 
HETATM    2  C   UNL     1      -9.646   8.527  69.895  1.00  0.00    -0.171 C  
HETATM    3  O   UNL     1     -10.250   8.687  70.942  1.00  0.00    -0.191 OA 
HETATM    4  C   UNL     1      -9.555   9.533  68.772  1.00  0.00    -0.159 C  
ENDROOT
BRANCH   4   5
HETATM    5  C   UNL     1     -10.332  10.816  69.074  1.00  0.00    -0.235 C  
BRANCH   5   6
HETATM    6  C   UNL     1     -11.379  11.149  68.004  1.00  0.00    -0.380 C  
BRANCH   6   7
HETATM    7  C   UNL     1     -11.197  12.546  67.395  1.00  0.00    -0.344 C  
BRANCH   7   8
HETATM    8  C   UNL     1     -10.168  12.596  66.252  1.00  0.00    -0.251 C  
HETATM    9  C   UNL     1     -10.269  13.888  65.428  1.00  0.00    -0.356 C  
HETATM   10  C   UNL     1     -11.530  13.910  64.566  1.00  0.00    -0.381 C  
HETATM   11  S   UNL     1     -11.737  12.270  63.825  1.00  0.00    -0.520 SA 
HETATM   12  S   UNL     1     -10.412  11.269  65.026  1.00  0.00    -0.291 SA 
ENDBRANCH   7   8
ENDBRANCH   6   7
ENDBRANCH   5   6
ENDBRANCH   4   5
TORSDOF 4
ENDMDL
MODEL      135
REMARK 921   NORMALIZED FREE ENERGY PREDICTED BY IDOCK:   -2.55 KCAL/MOL
REMARK 922        TOTAL FREE ENERGY PREDICTED BY IDOCK:   -3.65 KCAL/MOL
REMARK 923 INTER-LIGAND FREE ENERGY PREDICTED BY IDOCK:   -3.33 KCAL/MOL
REMARK 924 INTRA-LIGAND FREE ENERGY PREDICTED BY IDOCK:   -0.32 KCAL/MOL
REMARK 927      BINDING AFFINITY PREDICTED BY RF-SCORE:    0.00 PKD
ROOT
HETATM    1  O   UNL     1      -6.927  12.572  68.294  1.00  0.00    -0.075 OA 
HETATM    2  C   UNL     1      -7.971  13.429  68.205  1.00  0.00    -0.147 C  
HETATM    3  O   UNL     1      -8.131  14.348  68.991  1.00  0.00    -0.128 OA 
HETATM    4  C   UNL     1      -8.886  13.090  67.053  1.00  0.00    -0.213 C  
ENDROOT
BRANCH   4   5
HETATM    5  C   UNL     1     -10.089  14.031  66.967  1.00  0.00    -0.255 C  
BRANCH   5   6
HETATM    6  C   UNL     1     -10.197  14.744  65.613  1.00  0.00    -0.382 C  
BRANCH   6   7
HETATM    7  C   UNL     1     -10.259  16.273  65.738  1.00  0.00    -0.390 C  
BRANCH   7   8
HETATM    8  C   UNL     1      -9.489  16.828  66.948  1.00  0.00    -0.241 C  
HETATM    9  C   UNL     1     -10.378  17.680  67.867  1.00  0.00    -0.371 C  
HETATM   10  C   UNL     1     -10.734  19.019  67.223  1.00  0.00    -0.470 C  
HETATM   11  S   UNL     1      -9.245  19.679  66.430  1.00  0.00    -0.388 SA 
HETATM   12  S   UNL     1      -8.139  17.954  66.468  1.00  0.00    -0.271 SA 
ENDBRANCH   7   8
ENDBRANCH   6   7
ENDBRANCH   5   6
ENDBRANCH   4   5
TORSDOF 4
ENDMDL
MODEL      136
REMARK 921   NORMALIZED FREE ENERGY PREDICTED BY IDOCK:   -2.54 KCAL/MOL
REMARK 922        TOTAL FREE ENERGY PREDICTED BY IDOCK:   -3.65 KCAL/MOL
REMARK 923 INTER-LIGAND FREE ENERGY PREDICTED BY IDOCK:   -3.40 KCAL/MOL
REMARK 924 INTRA-LIGAND FREE ENERGY PREDICTED BY IDOCK:   -0.25 KCAL/MOL
REMARK 927      BINDING AFFINITY PREDICTED BY RF-SCORE:    0.00 PKD
ROOT
HETATM    1  O   UNL     1      -8.642   2.931  67.816  1.00  0.00    -0.082 OA 
HETATM    2  C   UNL     1      -9.481   3.988  67.928  1.00  0.00    -0.173 C  
HETATM    3  O   UNL     1     -10.006   4.512  66.960  1.00  0.00    -0.204 OA 
HETATM    4  C   UNL     1      -9.653   4.426  69.363  1.00  0.00    -0.269 C  
ENDROOT
BRANCH   4   5
HETATM    5  C   UNL     1     -10.570   5.643  69.496  1.00  0.00    -0.384 C  
BRANCH   5   6
HETATM    6  C   UNL     1      -9.803   6.948  69.743  1.00  0.00    -0.177 C  
BRANCH   6   7
HETATM    7  C   UNL     1     -10.640   8.204  69.457  1.00  0.00    -0.215 C  
BRANCH   7   8
HETATM    8  C   UNL     1     -10.419   9.340  70.471  1.00  0.00    -0.255 C  
HETATM    9  C   UNL     1     -10.544   8.860  71.925  1.00  0.00    -0.419 C  
HETATM   10  C   UNL     1     -11.994   8.542  72.289  1.00  0.00    -0.385 C  
HETATM   11  S   UNL     1     -13.048   9.847  71.604  1.00  0.00    -0.459 SA 
HETATM   12  S   UNL     1     -11.665  10.662  70.330  1.00  0.00    -0.374 SA 
ENDBRANCH   7   8
ENDBRANCH   6   7
ENDBRANCH   5   6
ENDBRANCH   4   5
TORSDOF 4
ENDMDL
MODEL      137
REMARK 921   NORMALIZED FREE ENERGY PREDICTED BY IDOCK:   -2.54 KCAL/MOL
REMARK 922        TOTAL FREE ENERGY PREDICTED BY IDOCK:   -3.64 KCAL/MOL
REMARK 923 INTER-LIGAND FREE ENERGY PREDICTED BY IDOCK:   -3.22 KCAL/MOL
REMARK 924 INTRA-LIGAND FREE ENERGY PREDICTED BY IDOCK:   -0.42 KCAL/MOL
REMARK 927      BINDING AFFINITY PREDICTED BY RF-SCORE:    0.00 PKD
ROOT
HETATM    1  O   UNL     1      -9.504   5.252  69.076  1.00  0.00    -0.120 OA 
HETATM    2  C   UNL     1      -9.846   5.434  70.373  1.00  0.00    -0.205 C  
HETATM    3  O   UNL     1      -9.114   5.111  71.294  1.00  0.00    -0.139 OA 
HETATM    4  C   UNL     1     -11.217   6.051  70.518  1.00  0.00    -0.363 C  
ENDROOT
BRANCH   4   5
HETATM    5  C   UNL     1     -11.626   6.227  71.981  1.00  0.00    -0.372 C  
BRANCH   5   6
HETATM    6  C   UNL     1     -11.587   7.689  72.443  1.00  0.00    -0.386 C  
BRANCH   6   7
HETATM    7  C   UNL     1     -11.955   8.684  71.333  1.00  0.00    -0.355 C  
BRANCH   7   8
HETATM    8  C   UNL     1     -10.925   9.811  71.144  1.00  0.00    -0.316 C  
HETATM    9  C   UNL     1     -11.240  10.696  69.929  1.00  0.00    -0.378 C  
HETATM   10  C   UNL     1     -10.979   9.961  68.615  1.00  0.00    -0.179 C  
HETATM   11  S   UNL     1      -9.420   9.054  68.774  1.00  0.00    -0.149 SA 
HETATM   12  S   UNL     1      -9.246   9.184  70.813  1.00  0.00    -0.259 SA 
ENDBRANCH   7   8
ENDBRANCH   6   7
ENDBRANCH   5   6
ENDBRANCH   4   5
TORSDOF 4
ENDMDL
MODEL      138
REMARK 921   NORMALIZED FREE ENERGY PREDICTED BY IDOCK:   -2.54 KCAL/MOL
REMARK 922        TOTAL FREE ENERGY PREDICTED BY IDOCK:   -3.64 KCAL/MOL
REMARK 923 INTER-LIGAND FREE ENERGY PREDICTED BY IDOCK:   -3.08 KCAL/MOL
REMARK 924 INTRA-LIGAND FREE ENERGY PREDICTED BY IDOCK:   -0.56 KCAL/MOL
REMARK 927      BINDING AFFINITY PREDICTED BY RF-SCORE:    0.00 PKD
ROOT
HETATM    1  O   UNL     1      -8.522  16.291  67.104  1.00  0.00    -0.169 OA 
HETATM    2  C   UNL     1      -8.516  15.257  67.977  1.00  0.00    -0.147 C  
HETATM    3  O   UNL     1      -8.801  15.393  69.155  1.00  0.00    -0.215 OA 
HETATM    4  C   UNL     1      -8.102  13.962  67.319  1.00  0.00    -0.162 C  
ENDROOT
BRANCH   4   5
HETATM    5  C   UNL     1      -8.056  12.794  68.306  1.00  0.00    -0.154 C  
BRANCH   5   6
HETATM    6  C   UNL     1      -8.827  11.563  67.815  1.00  0.00    -0.153 C  
BRANCH   6   7
HETATM    7  C   UNL     1      -9.673  11.839  66.563  1.00  0.00    -0.224 C  
BRANCH   7   8
HETATM    8  C   UNL     1     -11.183  11.636  66.779  1.00  0.00    -0.308 C  
HETATM    9  C   UNL     1     -12.019  12.781  66.187  1.00  0.00    -0.476 C  
HETATM   10  C   UNL     1     -11.869  14.066  67.001  1.00  0.00    -0.428 C  
HETATM   11  S   UNL     1     -11.927  13.631  68.759  1.00  0.00    -0.316 SA 
HETATM   12  S   UNL     1     -11.647  11.613  68.541  1.00  0.00    -0.329 SA 
ENDBRANCH   7   8
ENDBRANCH   6   7
ENDBRANCH   5   6
ENDBRANCH   4   5
TORSDOF 4
ENDMDL
MODEL      139
REMARK 921   NORMALIZED FREE ENERGY PREDICTED BY IDOCK:   -2.54 KCAL/MOL
REMARK 922        TOTAL FREE ENERGY PREDICTED BY IDOCK:   -3.64 KCAL/MOL
REMARK 923 INTER-LIGAND FREE ENERGY PREDICTED BY IDOCK:   -3.15 KCAL/MOL
REMARK 924 INTRA-LIGAND FREE ENERGY PREDICTED BY IDOCK:   -0.49 KCAL/MOL
REMARK 927      BINDING AFFINITY PREDICTED BY RF-SCORE:    0.00 PKD
ROOT
HETATM    1  O   UNL     1      -8.358   8.537  73.205  1.00  0.00    -0.369 OA 
HETATM    2  C   UNL     1      -9.486   7.970  72.719  1.00  0.00    -0.269 C  
HETATM    3  O   UNL     1     -10.519   8.599  72.560  1.00  0.00    -0.299 OA 
HETATM    4  C   UNL     1      -9.303   6.498  72.431  1.00  0.00    -0.137 C  
ENDROOT
BRANCH   4   5
HETATM    5  C   UNL     1     -10.584   5.840  71.916  1.00  0.00    -0.285 C  
BRANCH   5   6
HETATM    6  C   UNL     1     -10.530   5.512  70.419  1.00  0.00    -0.356 C  
BRANCH   6   7
HETATM    7  C   UNL     1     -10.914   6.701  69.525  1.00  0.00    -0.367 C  
BRANCH   7   8
HETATM    8  C   UNL     1      -9.802   7.129  68.551  1.00  0.00    -0.153 C  
HETATM    9  C   UNL     1      -8.918   8.246  69.125  1.00  0.00    -0.147 C  
HETATM   10  C   UNL     1      -9.663   9.580  69.182  1.00  0.00    -0.178 C  
HETATM   11  S   UNL     1     -10.592   9.775  67.640  1.00  0.00    -0.273 SA 
HETATM   12  S   UNL     1     -10.456   7.832  67.002  1.00  0.00    -0.312 SA 
ENDBRANCH   7   8
ENDBRANCH   6   7
ENDBRANCH   5   6
ENDBRANCH   4   5
TORSDOF 4
ENDMDL
MODEL      140
REMARK 921   NORMALIZED FREE ENERGY PREDICTED BY IDOCK:   -2.52 KCAL/MOL
REMARK 922        TOTAL FREE ENERGY PREDICTED BY IDOCK:   -3.61 KCAL/MOL
REMARK 923 INTER-LIGAND FREE ENERGY PREDICTED BY IDOCK:   -3.19 KCAL/MOL
REMARK 924 INTRA-LIGAND FREE ENERGY PREDICTED BY IDOCK:   -0.42 KCAL/MOL
REMARK 927      BINDING AFFINITY PREDICTED BY RF-SCORE:    0.00 PKD
ROOT
HETATM    1  O   UNL     1      -9.363   5.791  67.674  1.00  0.00    -0.109 OA 
HETATM    2  C   UNL     1     -10.185   6.863  67.590  1.00  0.00    -0.185 C  
HETATM    3  O   UNL     1     -11.238   6.833  66.976  1.00  0.00    -0.393 OA 
HETATM    4  C   UNL     1      -9.629   8.063  68.319  1.00  0.00    -0.156 C  
ENDROOT
BRANCH   4   5
HETATM    5  C   UNL     1     -10.535   9.290  68.199  1.00  0.00    -0.263 C  
BRANCH   5   6
HETATM    6  C   UNL     1     -10.962   9.855  69.559  1.00  0.00    -0.274 C  
BRANCH   6   7
HETATM    7  C   UNL     1     -10.189   9.246  70.737  1.00  0.00    -0.353 C  
BRANCH   7   8
HETATM    8  C   UNL     1     -11.089   8.573  71.789  1.00  0.00    -0.307 C  
HETATM    9  C   UNL     1     -10.280   7.914  72.916  1.00  0.00    -0.397 C  
HETATM   10  C   UNL     1      -9.560   6.656  72.432  1.00  0.00    -0.147 C  
HETATM   11  S   UNL     1     -10.702   5.720  71.382  1.00  0.00    -0.245 SA 
HETATM   12  S   UNL     1     -12.081   7.210  71.098  1.00  0.00    -0.361 SA 
ENDBRANCH   7   8
ENDBRANCH   6   7
ENDBRANCH   5   6
ENDBRANCH   4   5
TORSDOF 4
ENDMDL
MODEL      141
REMARK 921   NORMALIZED FREE ENERGY PREDICTED BY IDOCK:   -2.49 KCAL/MOL
REMARK 922        TOTAL FREE ENERGY PREDICTED BY IDOCK:   -3.58 KCAL/MOL
REMARK 923 INTER-LIGAND FREE ENERGY PREDICTED BY IDOCK:   -3.35 KCAL/MOL
REMARK 924 INTRA-LIGAND FREE ENERGY PREDICTED BY IDOCK:   -0.23 KCAL/MOL
REMARK 927      BINDING AFFINITY PREDICTED BY RF-SCORE:    0.00 PKD
ROOT
HETATM    1  O   UNL     1      -9.229   7.025  66.695  1.00  0.00    -0.148 OA 
HETATM    2  C   UNL     1      -9.658   8.295  66.508  1.00  0.00    -0.244 C  
HETATM    3  O   UNL     1      -9.375   8.941  65.513  1.00  0.00    -0.215 OA 
HETATM    4  C   UNL     1     -10.488   8.790  67.669  1.00  0.00    -0.310 C  
ENDROOT
BRANCH   4   5
HETATM    5  C   UNL     1     -10.947  10.237  67.483  1.00  0.00    -0.344 C  
BRANCH   5   6
HETATM    6  C   UNL     1     -11.611  10.822  68.736  1.00  0.00    -0.350 C  
BRANCH   6   7
HETATM    7  C   UNL     1     -11.387  12.333  68.889  1.00  0.00    -0.337 C  
BRANCH   7   8
HETATM    8  C   UNL     1     -10.683  12.981  67.684  1.00  0.00    -0.227 C  
HETATM    9  C   UNL     1      -9.388  13.705  68.081  1.00  0.00    -0.212 C  
HETATM   10  C   UNL     1      -9.677  14.987  68.861  1.00  0.00    -0.224 C  
HETATM   11  S   UNL     1     -11.057  15.841  68.054  1.00  0.00    -0.323 SA 
HETATM   12  S   UNL     1     -11.691  14.276  66.892  1.00  0.00    -0.420 SA 
ENDBRANCH   7   8
ENDBRANCH   6   7
ENDBRANCH   5   6
ENDBRANCH   4   5
TORSDOF 4
ENDMDL
MODEL      142
REMARK 921   NORMALIZED FREE ENERGY PREDICTED BY IDOCK:   -2.49 KCAL/MOL
REMARK 922        TOTAL FREE ENERGY PREDICTED BY IDOCK:   -3.58 KCAL/MOL
REMARK 923 INTER-LIGAND FREE ENERGY PREDICTED BY IDOCK:   -3.48 KCAL/MOL
REMARK 924 INTRA-LIGAND FREE ENERGY PREDICTED BY IDOCK:   -0.09 KCAL/MOL
REMARK 927      BINDING AFFINITY PREDICTED BY RF-SCORE:    0.00 PKD
ROOT
HETATM    1  O   UNL     1     -13.088   9.139  72.482  1.00  0.00    -0.429 OA 
HETATM    2  C   UNL     1     -11.926   8.510  72.185  1.00  0.00    -0.383 C  
HETATM    3  O   UNL     1     -11.652   7.403  72.617  1.00  0.00    -0.299 OA 
HETATM    4  C   UNL     1     -11.041   9.348  71.293  1.00  0.00    -0.446 C  
ENDROOT
BRANCH   4   5
HETATM    5  C   UNL     1      -9.710   8.662  70.981  1.00  0.00    -0.266 C  
BRANCH   5   6
HETATM    6  C   UNL     1      -9.206   8.948  69.561  1.00  0.00    -0.150 C  
BRANCH   6   7
HETATM    7  C   UNL     1      -9.679  10.302  69.014  1.00  0.00    -0.213 C  
BRANCH   7   8
HETATM    8  C   UNL     1     -10.881  10.199  68.058  1.00  0.00    -0.270 C  
HETATM    9  C   UNL     1     -10.679   9.126  66.977  1.00  0.00    -0.189 C  
HETATM   10  C   UNL     1      -9.636   9.554  65.946  1.00  0.00    -0.261 C  
HETATM   11  S   UNL     1      -9.924  11.296  65.541  1.00  0.00    -0.260 SA 
HETATM   12  S   UNL     1     -11.164  11.732  67.114  1.00  0.00    -0.319 SA 
ENDBRANCH   7   8
ENDBRANCH   6   7
ENDBRANCH   5   6
ENDBRANCH   4   5
TORSDOF 4
ENDMDL
MODEL      143
REMARK 921   NORMALIZED FREE ENERGY PREDICTED BY IDOCK:   -2.47 KCAL/MOL
REMARK 922        TOTAL FREE ENERGY PREDICTED BY IDOCK:   -3.55 KCAL/MOL
REMARK 923 INTER-LIGAND FREE ENERGY PREDICTED BY IDOCK:   -3.35 KCAL/MOL
REMARK 924 INTRA-LIGAND FREE ENERGY PREDICTED BY IDOCK:   -0.20 KCAL/MOL
REMARK 927      BINDING AFFINITY PREDICTED BY RF-SCORE:    0.00 PKD
ROOT
HETATM    1  O   UNL     1      -8.946  11.246  66.436  1.00  0.00    -0.176 OA 
HETATM    2  C   UNL     1      -9.747  10.303  66.984  1.00  0.00    -0.176 C  
HETATM    3  O   UNL     1     -10.963  10.389  66.971  1.00  0.00    -0.244 OA 
HETATM    4  C   UNL     1      -8.954   9.180  67.610  1.00  0.00    -0.130 C  
ENDROOT
BRANCH   4   5
HETATM    5  C   UNL     1      -9.849   8.127  68.264  1.00  0.00    -0.191 C  
BRANCH   5   6
HETATM    6  C   UNL     1     -10.001   8.324  69.777  1.00  0.00    -0.191 C  
BRANCH   6   7
HETATM    7  C   UNL     1     -11.155   9.266  70.151  1.00  0.00    -0.260 C  
BRANCH   7   8
HETATM    8  C   UNL     1     -11.502   9.256  71.650  1.00  0.00    -0.398 C  
HETATM    9  C   UNL     1     -11.670   7.833  72.203  1.00  0.00    -0.368 C  
HETATM   10  C   UNL     1     -12.954   7.178  71.693  1.00  0.00    -0.370 C  
HETATM   11  S   UNL     1     -14.282   8.409  71.763  1.00  0.00    -0.452 SA 
HETATM   12  S   UNL     1     -13.096  10.063  72.009  1.00  0.00    -0.397 SA 
ENDBRANCH   7   8
ENDBRANCH   6   7
ENDBRANCH   5   6
ENDBRANCH   4   5
TORSDOF 4
ENDMDL
MODEL      144
REMARK 921   NORMALIZED FREE ENERGY PREDICTED BY IDOCK:   -2.46 KCAL/MOL
REMARK 922        TOTAL FREE ENERGY PREDICTED BY IDOCK:   -3.55 KCAL/MOL
REMARK 923 INTER-LIGAND FREE ENERGY PREDICTED BY IDOCK:   -3.32 KCAL/MOL
REMARK 924 INTRA-LIGAND FREE ENERGY PREDICTED BY IDOCK:   -0.23 KCAL/MOL
REMARK 927      BINDING AFFINITY PREDICTED BY RF-SCORE:    0.00 PKD
ROOT
HETATM    1  O   UNL     1     -10.384  15.280  64.856  1.00  0.00    -0.363 OA 
HETATM    2  C   UNL     1     -10.360  14.125  65.560  1.00  0.00    -0.351 C  
HETATM    3  O   UNL     1      -9.724  14.002  66.594  1.00  0.00    -0.269 OA 
HETATM    4  C   UNL     1     -11.183  13.043  64.903  1.00  0.00    -0.329 C  
ENDROOT
BRANCH   4   5
HETATM    5  C   UNL     1     -11.132  11.722  65.673  1.00  0.00    -0.340 C  
BRANCH   5   6
HETATM    6  C   UNL     1     -10.217  10.680  65.018  1.00  0.00    -0.380 C  
BRANCH   6   7
HETATM    7  C   UNL     1      -9.517   9.767  66.034  1.00  0.00    -0.269 C  
BRANCH   7   8
HETATM    8  C   UNL     1     -10.467   9.163  67.083  1.00  0.00    -0.255 C  
HETATM    9  C   UNL     1     -10.025   9.474  68.521  1.00  0.00    -0.184 C  
HETATM   10  C   UNL     1      -8.772   8.689  68.907  1.00  0.00    -0.131 C  
HETATM   11  S   UNL     1      -8.955   6.994  68.294  1.00  0.00    -0.126 SA 
HETATM   12  S   UNL     1     -10.522   7.343  67.019  1.00  0.00    -0.324 SA 
ENDBRANCH   7   8
ENDBRANCH   6   7
ENDBRANCH   5   6
ENDBRANCH   4   5
TORSDOF 4
ENDMDL
MODEL      145
REMARK 921   NORMALIZED FREE ENERGY PREDICTED BY IDOCK:   -2.45 KCAL/MOL
REMARK 922        TOTAL FREE ENERGY PREDICTED BY IDOCK:   -3.53 KCAL/MOL
REMARK 923 INTER-LIGAND FREE ENERGY PREDICTED BY IDOCK:   -3.28 KCAL/MOL
REMARK 924 INTRA-LIGAND FREE ENERGY PREDICTED BY IDOCK:   -0.25 KCAL/MOL
REMARK 927      BINDING AFFINITY PREDICTED BY RF-SCORE:    0.00 PKD
ROOT
HETATM    1  O   UNL     1      -8.600   8.598  72.951  1.00  0.00    -0.398 OA 
HETATM    2  C   UNL     1      -9.749   8.636  72.237  1.00  0.00    -0.286 C  
HETATM    3  O   UNL     1     -10.816   8.262  72.694  1.00  0.00    -0.345 OA 
HETATM    4  C   UNL     1      -9.531   9.166  70.839  1.00  0.00    -0.343 C  
ENDROOT
BRANCH   4   5
HETATM    5  C   UNL     1     -10.818   9.179  70.012  1.00  0.00    -0.256 C  
BRANCH   5   6
HETATM    6  C   UNL     1     -10.588   8.817  68.540  1.00  0.00    -0.171 C  
BRANCH   6   7
HETATM    7  C   UNL     1     -10.905   9.971  67.578  1.00  0.00    -0.326 C  
BRANCH   7   8
HETATM    8  C   UNL     1      -9.665  10.769  67.138  1.00  0.00    -0.170 C  
HETATM    9  C   UNL     1      -9.642  12.188  67.727  1.00  0.00    -0.195 C  
HETATM   10  C   UNL     1     -10.699  13.083  67.082  1.00  0.00    -0.254 C  
HETATM   11  S   UNL     1     -10.687  12.774  65.297  1.00  0.00    -0.302 SA 
HETATM   12  S   UNL     1      -9.602  11.036  65.336  1.00  0.00    -0.237 SA 
ENDBRANCH   7   8
ENDBRANCH   6   7
ENDBRANCH   5   6
ENDBRANCH   4   5
TORSDOF 4
ENDMDL
MODEL      146
REMARK 921   NORMALIZED FREE ENERGY PREDICTED BY IDOCK:   -2.45 KCAL/MOL
REMARK 922        TOTAL FREE ENERGY PREDICTED BY IDOCK:   -3.52 KCAL/MOL
REMARK 923 INTER-LIGAND FREE ENERGY PREDICTED BY IDOCK:   -3.27 KCAL/MOL
REMARK 924 INTRA-LIGAND FREE ENERGY PREDICTED BY IDOCK:   -0.25 KCAL/MOL
REMARK 927      BINDING AFFINITY PREDICTED BY RF-SCORE:    0.00 PKD
ROOT
HETATM    1  O   UNL     1      -6.568  21.018  64.323  1.00  0.00    -0.279 OA 
HETATM    2  C   UNL     1      -6.328  19.729  64.658  1.00  0.00    -0.217 C  
HETATM    3  O   UNL     1      -5.875  18.920  63.865  1.00  0.00    -0.399 OA 
HETATM    4  C   UNL     1      -6.704  19.436  66.091  1.00  0.00    -0.235 C  
ENDROOT
BRANCH   4   5
HETATM    5  C   UNL     1      -6.471  17.972  66.468  1.00  0.00    -0.243 C  
BRANCH   5   6
HETATM    6  C   UNL     1      -7.738  17.115  66.360  1.00  0.00    -0.345 C  
BRANCH   6   7
HETATM    7  C   UNL     1      -8.570  17.102  67.651  1.00  0.00    -0.214 C  
BRANCH   7   8
HETATM    8  C   UNL     1     -10.064  17.395  67.428  1.00  0.00    -0.321 C  
HETATM    9  C   UNL     1     -10.972  16.353  68.099  1.00  0.00    -0.339 C  
HETATM   10  C   UNL     1     -10.919  15.010  67.373  1.00  0.00    -0.315 C  
HETATM   11  S   UNL     1     -10.961  15.328  65.590  1.00  0.00    -0.330 SA 
HETATM   12  S   UNL     1     -10.540  17.332  65.670  1.00  0.00    -0.035 SA 
ENDBRANCH   7   8
ENDBRANCH   6   7
ENDBRANCH   5   6
ENDBRANCH   4   5
TORSDOF 4
ENDMDL
MODEL      147
REMARK 921   NORMALIZED FREE ENERGY PREDICTED BY IDOCK:   -2.43 KCAL/MOL
REMARK 922        TOTAL FREE ENERGY PREDICTED BY IDOCK:   -3.51 KCAL/MOL
REMARK 923 INTER-LIGAND FREE ENERGY PREDICTED BY IDOCK:   -3.30 KCAL/MOL
REMARK 924 INTRA-LIGAND FREE ENERGY PREDICTED BY IDOCK:   -0.21 KCAL/MOL
REMARK 927      BINDING AFFINITY PREDICTED BY RF-SCORE:    0.00 PKD
ROOT
HETATM    1  O   UNL     1     -12.426  14.756  73.021  1.00  0.00    -0.365 OA 
HETATM    2  C   UNL     1     -12.064  14.667  71.720  1.00  0.00    -0.319 C  
HETATM    3  O   UNL     1     -12.324  13.693  71.034  1.00  0.00    -0.356 OA 
HETATM    4  C   UNL     1     -11.304  15.888  71.258  1.00  0.00    -0.425 C  
ENDROOT
BRANCH   4   5
HETATM    5  C   UNL     1     -10.859  15.781  69.798  1.00  0.00    -0.314 C  
BRANCH   5   6
HETATM    6  C   UNL     1      -9.429  15.250  69.645  1.00  0.00    -0.171 C  
BRANCH   6   7
HETATM    7  C   UNL     1      -8.452  16.297  69.090  1.00  0.00    -0.218 C  
BRANCH   7   8
HETATM    8  C   UNL     1      -7.905  15.956  67.693  1.00  0.00    -0.146 C  
HETATM    9  C   UNL     1      -7.508  17.208  66.897  1.00  0.00    -0.239 C  
HETATM   10  C   UNL     1      -8.735  18.000  66.446  1.00  0.00    -0.227 C  
HETATM   11  S   UNL     1      -9.978  16.825  65.850  1.00  0.00    -0.230 SA 
HETATM   12  S   UNL     1      -9.137  15.129  66.636  1.00  0.00    -0.294 SA 
ENDBRANCH   7   8
ENDBRANCH   6   7
ENDBRANCH   5   6
ENDBRANCH   4   5
TORSDOF 4
ENDMDL
MODEL      148
REMARK 921   NORMALIZED FREE ENERGY PREDICTED BY IDOCK:   -2.43 KCAL/MOL
REMARK 922        TOTAL FREE ENERGY PREDICTED BY IDOCK:   -3.50 KCAL/MOL
REMARK 923 INTER-LIGAND FREE ENERGY PREDICTED BY IDOCK:   -3.38 KCAL/MOL
REMARK 924 INTRA-LIGAND FREE ENERGY PREDICTED BY IDOCK:   -0.13 KCAL/MOL
REMARK 927      BINDING AFFINITY PREDICTED BY RF-SCORE:    0.00 PKD
ROOT
HETATM    1  O   UNL     1     -10.264  10.731  67.514  1.00  0.00    -0.183 OA 
HETATM    2  C   UNL     1      -9.735  11.719  66.755  1.00  0.00    -0.197 C  
HETATM    3  O   UNL     1      -8.700  11.576  66.124  1.00  0.00    -0.186 OA 
HETATM    4  C   UNL     1     -10.561  12.982  66.811  1.00  0.00    -0.269 C  
ENDROOT
BRANCH   4   5
HETATM    5  C   UNL     1      -9.950  14.116  65.986  1.00  0.00    -0.340 C  
BRANCH   5   6
HETATM    6  C   UNL     1      -8.771  14.801  66.687  1.00  0.00    -0.229 C  
BRANCH   6   7
HETATM    7  C   UNL     1      -8.535  16.240  66.206  1.00  0.00    -0.369 C  
BRANCH   7   8
HETATM    8  C   UNL     1      -8.203  17.226  67.339  1.00  0.00    -0.191 C  
HETATM    9  C   UNL     1      -9.040  16.970  68.602  1.00  0.00    -0.271 C  
HETATM   10  C   UNL     1     -10.500  17.375  68.402  1.00  0.00    -0.384 C  
HETATM   11  S   UNL     1     -10.532  18.958  67.523  1.00  0.00    -0.456 SA 
HETATM   12  S   UNL     1      -8.579  18.955  66.901  1.00  0.00    -0.301 SA 
ENDBRANCH   7   8
ENDBRANCH   6   7
ENDBRANCH   5   6
ENDBRANCH   4   5
TORSDOF 4
ENDMDL
MODEL      149
REMARK 921   NORMALIZED FREE ENERGY PREDICTED BY IDOCK:   -2.43 KCAL/MOL
REMARK 922        TOTAL FREE ENERGY PREDICTED BY IDOCK:   -3.50 KCAL/MOL
REMARK 923 INTER-LIGAND FREE ENERGY PREDICTED BY IDOCK:   -3.27 KCAL/MOL
REMARK 924 INTRA-LIGAND FREE ENERGY PREDICTED BY IDOCK:   -0.23 KCAL/MOL
REMARK 927      BINDING AFFINITY PREDICTED BY RF-SCORE:    0.00 PKD
ROOT
HETATM    1  O   UNL     1      -7.172   7.293  68.052  1.00  0.00    -0.085 OA 
HETATM    2  C   UNL     1      -8.118   7.589  67.130  1.00  0.00    -0.118 C  
HETATM    3  O   UNL     1      -8.390   6.839  66.208  1.00  0.00    -0.114 OA 
HETATM    4  C   UNL     1      -8.753   8.936  67.382  1.00  0.00    -0.128 C  
ENDROOT
BRANCH   4   5
HETATM    5  C   UNL     1      -9.798   9.295  66.324  1.00  0.00    -0.361 C  
BRANCH   5   6
HETATM    6  C   UNL     1      -9.343  10.424  65.391  1.00  0.00    -0.252 C  
BRANCH   6   7
HETATM    7  C   UNL     1     -10.490  11.025  64.565  1.00  0.00    -0.411 C  
BRANCH   7   8
HETATM    8  C   UNL     1     -10.337  12.533  64.297  1.00  0.00    -0.370 C  
HETATM    9  C   UNL     1      -9.927  13.313  65.555  1.00  0.00    -0.222 C  
HETATM   10  C   UNL     1     -11.073  13.401  66.562  1.00  0.00    -0.297 C  
HETATM   11  S   UNL     1     -12.598  13.761  65.653  1.00  0.00    -0.473 SA 
HETATM   12  S   UNL     1     -11.898  13.317  63.778  1.00  0.00    -0.440 SA 
ENDBRANCH   7   8
ENDBRANCH   6   7
ENDBRANCH   5   6
ENDBRANCH   4   5
TORSDOF 4
ENDMDL
MODEL      150
REMARK 921   NORMALIZED FREE ENERGY PREDICTED BY IDOCK:   -2.42 KCAL/MOL
REMARK 922        TOTAL FREE ENERGY PREDICTED BY IDOCK:   -3.49 KCAL/MOL
REMARK 923 INTER-LIGAND FREE ENERGY PREDICTED BY IDOCK:   -3.23 KCAL/MOL
REMARK 924 INTRA-LIGAND FREE ENERGY PREDICTED BY IDOCK:   -0.27 KCAL/MOL
REMARK 927      BINDING AFFINITY PREDICTED BY RF-SCORE:    0.00 PKD
ROOT
HETATM    1  O   UNL     1     -10.663   5.639  67.798  1.00  0.00    -0.228 OA 
HETATM    2  C   UNL     1     -10.847   6.547  68.784  1.00  0.00    -0.299 C  
HETATM    3  O   UNL     1     -11.464   6.290  69.804  1.00  0.00    -0.430 OA 
HETATM    4  C   UNL     1     -10.223   7.881  68.450  1.00  0.00    -0.232 C  
ENDROOT
BRANCH   4   5
HETATM    5  C   UNL     1     -10.458   8.926  69.543  1.00  0.00    -0.229 C  
BRANCH   5   6
HETATM    6  C   UNL     1     -10.435  10.364  69.013  1.00  0.00    -0.240 C  
BRANCH   6   7
HETATM    7  C   UNL     1     -11.116  10.515  67.644  1.00  0.00    -0.375 C  
BRANCH   7   8
HETATM    8  C   UNL     1     -10.522  11.639  66.777  1.00  0.00    -0.230 C  
HETATM    9  C   UNL     1     -10.786  11.424  65.279  1.00  0.00    -0.297 C  
HETATM   10  C   UNL     1      -9.951  10.273  64.719  1.00  0.00    -0.321 C  
HETATM   11  S   UNL     1      -8.277  10.407  65.399  1.00  0.00    -0.153 SA 
HETATM   12  S   UNL     1      -8.707  11.738  66.898  1.00  0.00    -0.192 SA 
ENDBRANCH   7   8
ENDBRANCH   6   7
ENDBRANCH   5   6
ENDBRANCH   4   5
TORSDOF 4
ENDMDL
MODEL      151
REMARK 921   NORMALIZED FREE ENERGY PREDICTED BY IDOCK:   -2.42 KCAL/MOL
REMARK 922        TOTAL FREE ENERGY PREDICTED BY IDOCK:   -3.49 KCAL/MOL
REMARK 923 INTER-LIGAND FREE ENERGY PREDICTED BY IDOCK:   -3.28 KCAL/MOL
REMARK 924 INTRA-LIGAND FREE ENERGY PREDICTED BY IDOCK:   -0.21 KCAL/MOL
REMARK 927      BINDING AFFINITY PREDICTED BY RF-SCORE:    0.00 PKD
ROOT
HETATM    1  O   UNL     1      -9.957  11.072  67.790  1.00  0.00    -0.169 OA 
HETATM    2  C   UNL     1      -9.519   9.795  67.890  1.00  0.00    -0.130 C  
HETATM    3  O   UNL     1      -8.488   9.501  68.472  1.00  0.00    -0.116 OA 
HETATM    4  C   UNL     1     -10.438   8.823  67.189  1.00  0.00    -0.354 C  
ENDROOT
BRANCH   4   5
HETATM    5  C   UNL     1      -9.932   7.382  67.266  1.00  0.00    -0.259 C  
BRANCH   5   6
HETATM    6  C   UNL     1     -10.740   6.513  68.237  1.00  0.00    -0.341 C  
BRANCH   6   7
HETATM    7  C   UNL     1     -10.417   6.794  69.712  1.00  0.00    -0.240 C  
BRANCH   7   8
HETATM    8  C   UNL     1     -11.368   6.094  70.699  1.00  0.00    -0.298 C  
HETATM    9  C   UNL     1     -12.328   7.078  71.384  1.00  0.00    -0.419 C  
HETATM   10  C   UNL     1     -11.601   7.963  72.396  1.00  0.00    -0.380 C  
HETATM   11  S   UNL     1     -10.448   6.923  73.330  1.00  0.00    -0.356 SA 
HETATM   12  S   UNL     1     -10.487   5.298  72.081  1.00  0.00    -0.221 SA 
ENDBRANCH   7   8
ENDBRANCH   6   7
ENDBRANCH   5   6
ENDBRANCH   4   5
TORSDOF 4
ENDMDL
MODEL      152
REMARK 921   NORMALIZED FREE ENERGY PREDICTED BY IDOCK:   -2.42 KCAL/MOL
REMARK 922        TOTAL FREE ENERGY PREDICTED BY IDOCK:   -3.49 KCAL/MOL
REMARK 923 INTER-LIGAND FREE ENERGY PREDICTED BY IDOCK:   -3.36 KCAL/MOL
REMARK 924 INTRA-LIGAND FREE ENERGY PREDICTED BY IDOCK:   -0.13 KCAL/MOL
REMARK 927      BINDING AFFINITY PREDICTED BY RF-SCORE:    0.00 PKD
ROOT
HETATM    1  O   UNL     1     -11.304  11.583  68.437  1.00  0.00    -0.230 OA 
HETATM    2  C   UNL     1     -11.679  12.793  67.961  1.00  0.00    -0.356 C  
HETATM    3  O   UNL     1     -12.361  12.919  66.958  1.00  0.00    -0.360 OA 
HETATM    4  C   UNL     1     -11.139  13.926  68.802  1.00  0.00    -0.291 C  
ENDROOT
BRANCH   4   5
HETATM    5  C   UNL     1     -11.528  15.299  68.251  1.00  0.00    -0.359 C  
BRANCH   5   6
HETATM    6  C   UNL     1     -10.579  16.416  68.702  1.00  0.00    -0.305 C  
BRANCH   6   7
HETATM    7  C   UNL     1      -9.510  16.760  67.654  1.00  0.00    -0.234 C  
BRANCH   7   8
HETATM    8  C   UNL     1      -8.498  17.819  68.126  1.00  0.00    -0.262 C  
HETATM    9  C   UNL     1      -8.071  18.767  66.995  1.00  0.00    -0.266 C  
HETATM   10  C   UNL     1      -7.171  18.064  65.980  1.00  0.00    -0.281 C  
HETATM   11  S   UNL     1      -5.982  17.044  66.891  1.00  0.00    -0.194 SA 
HETATM   12  S   UNL     1      -6.932  17.088  68.706  1.00  0.00    -0.221 SA 
ENDBRANCH   7   8
ENDBRANCH   6   7
ENDBRANCH   5   6
ENDBRANCH   4   5
TORSDOF 4
ENDMDL
MODEL      153
REMARK 921   NORMALIZED FREE ENERGY PREDICTED BY IDOCK:   -2.41 KCAL/MOL
REMARK 922        TOTAL FREE ENERGY PREDICTED BY IDOCK:   -3.49 KCAL/MOL
REMARK 923 INTER-LIGAND FREE ENERGY PREDICTED BY IDOCK:   -3.37 KCAL/MOL
REMARK 924 INTRA-LIGAND FREE ENERGY PREDICTED BY IDOCK:   -0.12 KCAL/MOL
REMARK 927      BINDING AFFINITY PREDICTED BY RF-SCORE:    0.00 PKD
ROOT
HETATM    1  O   UNL     1      -9.452   3.605  64.953  1.00  0.00    -0.145 OA 
HETATM    2  C   UNL     1      -9.393   4.629  65.836  1.00  0.00    -0.155 C  
HETATM    3  O   UNL     1      -8.336   5.082  66.243  1.00  0.00    -0.111 OA 
HETATM    4  C   UNL     1     -10.767   5.102  66.248  1.00  0.00    -0.272 C  
ENDROOT
BRANCH   4   5
HETATM    5  C   UNL     1     -10.710   6.236  67.274  1.00  0.00    -0.424 C  
BRANCH   5   6
HETATM    6  C   UNL     1     -10.602   5.732  68.718  1.00  0.00    -0.321 C  
BRANCH   6   7
HETATM    7  C   UNL     1     -10.935   6.809  69.761  1.00  0.00    -0.345 C  
BRANCH   7   8
HETATM    8  C   UNL     1     -11.737   6.282  70.963  1.00  0.00    -0.217 C  
HETATM    9  C   UNL     1     -12.549   7.387  71.656  1.00  0.00    -0.391 C  
HETATM   10  C   UNL     1     -11.646   8.352  72.422  1.00  0.00    -0.380 C  
HETATM   11  S   UNL     1     -10.390   7.381  73.294  1.00  0.00    -0.366 SA 
HETATM   12  S   UNL     1     -10.671   5.619  72.285  1.00  0.00    -0.239 SA 
ENDBRANCH   7   8
ENDBRANCH   6   7
ENDBRANCH   5   6
ENDBRANCH   4   5
TORSDOF 4
ENDMDL
MODEL      154
REMARK 921   NORMALIZED FREE ENERGY PREDICTED BY IDOCK:   -2.41 KCAL/MOL
REMARK 922        TOTAL FREE ENERGY PREDICTED BY IDOCK:   -3.48 KCAL/MOL
REMARK 923 INTER-LIGAND FREE ENERGY PREDICTED BY IDOCK:   -3.30 KCAL/MOL
REMARK 924 INTRA-LIGAND FREE ENERGY PREDICTED BY IDOCK:   -0.18 KCAL/MOL
REMARK 927      BINDING AFFINITY PREDICTED BY RF-SCORE:    0.00 PKD
ROOT
HETATM    1  O   UNL     1      -9.511  20.890  67.236  1.00  0.00    -0.405 OA 
HETATM    2  C   UNL     1     -10.089  19.702  67.529  1.00  0.00    -0.409 C  
HETATM    3  O   UNL     1     -11.152  19.353  67.043  1.00  0.00    -0.420 OA 
HETATM    4  C   UNL     1      -9.274  18.905  68.520  1.00  0.00    -0.404 C  
ENDROOT
BRANCH   4   5
HETATM    5  C   UNL     1      -9.937  17.575  68.885  1.00  0.00    -0.313 C  
BRANCH   5   6
HETATM    6  C   UNL     1      -9.242  16.364  68.250  1.00  0.00    -0.207 C  
BRANCH   6   7
HETATM    7  C   UNL     1      -8.195  16.752  67.196  1.00  0.00    -0.210 C  
BRANCH   7   8
HETATM    8  C   UNL     1      -6.787  16.206  67.490  1.00  0.00    -0.165 C  
HETATM    9  C   UNL     1      -6.476  16.166  68.994  1.00  0.00    -0.154 C  
HETATM   10  C   UNL     1      -6.272  17.569  69.564  1.00  0.00    -0.246 C  
HETATM   11  S   UNL     1      -5.267  18.515  68.391  1.00  0.00    -0.174 SA 
HETATM   12  S   UNL     1      -5.466  17.249  66.791  1.00  0.00    -0.192 SA 
ENDBRANCH   7   8
ENDBRANCH   6   7
ENDBRANCH   5   6
ENDBRANCH   4   5
TORSDOF 4
ENDMDL
MODEL      155
REMARK 921   NORMALIZED FREE ENERGY PREDICTED BY IDOCK:   -2.41 KCAL/MOL
REMARK 922        TOTAL FREE ENERGY PREDICTED BY IDOCK:   -3.48 KCAL/MOL
REMARK 923 INTER-LIGAND FREE ENERGY PREDICTED BY IDOCK:   -3.21 KCAL/MOL
REMARK 924 INTRA-LIGAND FREE ENERGY PREDICTED BY IDOCK:   -0.27 KCAL/MOL
REMARK 927      BINDING AFFINITY PREDICTED BY RF-SCORE:    0.00 PKD
ROOT
HETATM    1  O   UNL     1     -10.564  10.697  64.260  1.00  0.00    -0.298 OA 
HETATM    2  C   UNL     1     -10.114  11.387  65.334  1.00  0.00    -0.261 C  
HETATM    3  O   UNL     1      -8.935  11.661  65.488  1.00  0.00    -0.109 OA 
HETATM    4  C   UNL     1     -11.228  11.739  66.290  1.00  0.00    -0.370 C  
ENDROOT
BRANCH   4   5
HETATM    5  C   UNL     1     -10.723  12.487  67.525  1.00  0.00    -0.250 C  
BRANCH   5   6
HETATM    6  C   UNL     1     -11.603  12.266  68.762  1.00  0.00    -0.380 C  
BRANCH   6   7
HETATM    7  C   UNL     1     -11.670  10.797  69.201  1.00  0.00    -0.368 C  
BRANCH   7   8
HETATM    8  C   UNL     1     -10.536  10.383  70.156  1.00  0.00    -0.188 C  
HETATM    9  C   UNL     1      -9.448   9.559  69.451  1.00  0.00    -0.182 C  
HETATM   10  C   UNL     1      -9.941   8.156  69.101  1.00  0.00    -0.192 C  
HETATM   11  S   UNL     1     -10.877   7.517  70.515  1.00  0.00    -0.243 SA 
HETATM   12  S   UNL     1     -11.111   9.298  71.503  1.00  0.00    -0.368 SA 
ENDBRANCH   7   8
ENDBRANCH   6   7
ENDBRANCH   5   6
ENDBRANCH   4   5
TORSDOF 4
ENDMDL
MODEL      156
REMARK 921   NORMALIZED FREE ENERGY PREDICTED BY IDOCK:   -2.38 KCAL/MOL
REMARK 922        TOTAL FREE ENERGY PREDICTED BY IDOCK:   -3.44 KCAL/MOL
REMARK 923 INTER-LIGAND FREE ENERGY PREDICTED BY IDOCK:   -3.23 KCAL/MOL
REMARK 924 INTRA-LIGAND FREE ENERGY PREDICTED BY IDOCK:   -0.21 KCAL/MOL
REMARK 927      BINDING AFFINITY PREDICTED BY RF-SCORE:    0.00 PKD
ROOT
HETATM    1  O   UNL     1     -10.530   8.437  66.610  1.00  0.00    -0.294 OA 
HETATM    2  C   UNL     1     -10.353   9.282  67.653  1.00  0.00    -0.253 C  
HETATM    3  O   UNL     1     -10.776   9.038  68.771  1.00  0.00    -0.195 OA 
HETATM    4  C   UNL     1      -9.606  10.531  67.251  1.00  0.00    -0.188 C  
ENDROOT
BRANCH   4   5
HETATM    5  C   UNL     1      -9.433  11.508  68.415  1.00  0.00    -0.195 C  
BRANCH   5   6
HETATM    6  C   UNL     1      -8.832  12.852  67.985  1.00  0.00    -0.195 C  
BRANCH   6   7
HETATM    7  C   UNL     1      -9.482  13.427  66.718  1.00  0.00    -0.263 C  
BRANCH   7   8
HETATM    8  C   UNL     1     -10.771  14.222  66.989  1.00  0.00    -0.290 C  
HETATM    9  C   UNL     1     -11.547  14.535  65.701  1.00  0.00    -0.344 C  
HETATM   10  C   UNL     1     -10.833  15.588  64.855  1.00  0.00    -0.427 C  
HETATM   11  S   UNL     1     -10.229  16.888  65.962  1.00  0.00    -0.297 SA 
HETATM   12  S   UNL     1     -10.448  15.859  67.721  1.00  0.00    -0.294 SA 
ENDBRANCH   7   8
ENDBRANCH   6   7
ENDBRANCH   5   6
ENDBRANCH   4   5
TORSDOF 4
ENDMDL
MODEL      157
REMARK 921   NORMALIZED FREE ENERGY PREDICTED BY IDOCK:   -2.38 KCAL/MOL
REMARK 922        TOTAL FREE ENERGY PREDICTED BY IDOCK:   -3.44 KCAL/MOL
REMARK 923 INTER-LIGAND FREE ENERGY PREDICTED BY IDOCK:   -2.97 KCAL/MOL
REMARK 924 INTRA-LIGAND FREE ENERGY PREDICTED BY IDOCK:   -0.47 KCAL/MOL
REMARK 927      BINDING AFFINITY PREDICTED BY RF-SCORE:    0.00 PKD
ROOT
HETATM    1  O   UNL     1      -8.584   4.921  72.361  1.00  0.00    -0.121 OA 
HETATM    2  C   UNL     1      -9.183   5.404  71.247  1.00  0.00    -0.146 C  
HETATM    3  O   UNL     1     -10.311   5.075  70.916  1.00  0.00    -0.230 OA 
HETATM    4  C   UNL     1      -8.288   6.354  70.489  1.00  0.00    -0.129 C  
ENDROOT
BRANCH   4   5
HETATM    5  C   UNL     1      -8.944   6.877  69.209  1.00  0.00    -0.137 C  
BRANCH   5   6
HETATM    6  C   UNL     1      -9.263   8.376  69.268  1.00  0.00    -0.154 C  
BRANCH   6   7
HETATM    7  C   UNL     1     -10.705   8.669  69.708  1.00  0.00    -0.215 C  
BRANCH   7   8
HETATM    8  C   UNL     1     -10.807   9.354  71.082  1.00  0.00    -0.357 C  
HETATM    9  C   UNL     1     -11.047   8.351  72.220  1.00  0.00    -0.438 C  
HETATM   10  C   UNL     1     -12.463   7.777  72.175  1.00  0.00    -0.243 C  
HETATM   11  S   UNL     1     -13.611   9.132  71.818  1.00  0.00    -0.414 SA 
HETATM   12  S   UNL     1     -12.219  10.501  71.195  1.00  0.00    -0.389 SA 
ENDBRANCH   7   8
ENDBRANCH   6   7
ENDBRANCH   5   6
ENDBRANCH   4   5
TORSDOF 4
ENDMDL
MODEL      158
REMARK 921   NORMALIZED FREE ENERGY PREDICTED BY IDOCK:   -2.37 KCAL/MOL
REMARK 922        TOTAL FREE ENERGY PREDICTED BY IDOCK:   -3.43 KCAL/MOL
REMARK 923 INTER-LIGAND FREE ENERGY PREDICTED BY IDOCK:   -3.09 KCAL/MOL
REMARK 924 INTRA-LIGAND FREE ENERGY PREDICTED BY IDOCK:   -0.35 KCAL/MOL
REMARK 927      BINDING AFFINITY PREDICTED BY RF-SCORE:    0.00 PKD
ROOT
HETATM    1  O   UNL     1      -7.983   7.292  73.806  1.00  0.00    -0.103 OA 
HETATM    2  C   UNL     1      -9.305   7.480  73.584  1.00  0.00    -0.277 C  
HETATM    3  O   UNL     1     -10.166   6.952  74.269  1.00  0.00    -0.349 OA 
HETATM    4  C   UNL     1      -9.558   8.384  72.401  1.00  0.00    -0.373 C  
ENDROOT
BRANCH   4   5
HETATM    5  C   UNL     1     -11.050   8.574  72.120  1.00  0.00    -0.436 C  
BRANCH   5   6
HETATM    6  C   UNL     1     -11.327   9.610  71.024  1.00  0.00    -0.444 C  
BRANCH   6   7
HETATM    7  C   UNL     1     -10.131   9.835  70.088  1.00  0.00    -0.317 C  
BRANCH   7   8
HETATM    8  C   UNL     1     -10.395   9.412  68.633  1.00  0.00    -0.203 C  
HETATM    9  C   UNL     1     -10.468   7.886  68.470  1.00  0.00    -0.202 C  
HETATM   10  C   UNL     1      -9.093   7.237  68.623  1.00  0.00    -0.133 C  
HETATM   11  S   UNL     1      -7.886   8.250  67.730  1.00  0.00    -0.115 SA 
HETATM   12  S   UNL     1      -9.059   9.916  67.499  1.00  0.00    -0.134 SA 
ENDBRANCH   7   8
ENDBRANCH   6   7
ENDBRANCH   5   6
ENDBRANCH   4   5
TORSDOF 4
ENDMDL
MODEL      159
REMARK 921   NORMALIZED FREE ENERGY PREDICTED BY IDOCK:   -2.37 KCAL/MOL
REMARK 922        TOTAL FREE ENERGY PREDICTED BY IDOCK:   -3.43 KCAL/MOL
REMARK 923 INTER-LIGAND FREE ENERGY PREDICTED BY IDOCK:   -3.02 KCAL/MOL
REMARK 924 INTRA-LIGAND FREE ENERGY PREDICTED BY IDOCK:   -0.41 KCAL/MOL
REMARK 927      BINDING AFFINITY PREDICTED BY RF-SCORE:    0.00 PKD
ROOT
HETATM    1  O   UNL     1     -11.400   7.962  73.127  1.00  0.00    -0.361 OA 
HETATM    2  C   UNL     1     -11.328   6.823  72.399  1.00  0.00    -0.268 C  
HETATM    3  O   UNL     1     -12.264   6.412  71.733  1.00  0.00    -0.342 OA 
HETATM    4  C   UNL     1      -9.985   6.146  72.536  1.00  0.00    -0.188 C  
ENDROOT
BRANCH   4   5
HETATM    5  C   UNL     1      -9.908   4.838  71.746  1.00  0.00    -0.242 C  
BRANCH   5   6
HETATM    6  C   UNL     1      -9.234   5.004  70.378  1.00  0.00    -0.198 C  
BRANCH   6   7
HETATM    7  C   UNL     1     -10.227   4.975  69.207  1.00  0.00    -0.245 C  
BRANCH   7   8
HETATM    8  C   UNL     1     -10.697   6.370  68.759  1.00  0.00    -0.287 C  
HETATM    9  C   UNL     1     -10.939   6.447  67.244  1.00  0.00    -0.474 C  
HETATM   10  C   UNL     1      -9.626   6.414  66.462  1.00  0.00    -0.145 C  
HETATM   11  S   UNL     1      -8.436   7.485  67.309  1.00  0.00    -0.118 SA 
HETATM   12  S   UNL     1      -9.457   7.667  69.077  1.00  0.00    -0.150 SA 
ENDBRANCH   7   8
ENDBRANCH   6   7
ENDBRANCH   5   6
ENDBRANCH   4   5
TORSDOF 4
ENDMDL
MODEL      160
REMARK 921   NORMALIZED FREE ENERGY PREDICTED BY IDOCK:   -2.37 KCAL/MOL
REMARK 922        TOTAL FREE ENERGY PREDICTED BY IDOCK:   -3.43 KCAL/MOL
REMARK 923 INTER-LIGAND FREE ENERGY PREDICTED BY IDOCK:   -3.05 KCAL/MOL
REMARK 924 INTRA-LIGAND FREE ENERGY PREDICTED BY IDOCK:   -0.38 KCAL/MOL
REMARK 927      BINDING AFFINITY PREDICTED BY RF-SCORE:    0.00 PKD
ROOT
HETATM    1  O   UNL     1     -10.221   9.963  70.544  1.00  0.00    -0.278 OA 
HETATM    2  C   UNL     1     -10.901   9.256  71.477  1.00  0.00    -0.372 C  
HETATM    3  O   UNL     1     -12.063   9.494  71.759  1.00  0.00    -0.370 OA 
HETATM    4  C   UNL     1     -10.045   8.186  72.112  1.00  0.00    -0.320 C  
ENDROOT
BRANCH   4   5
HETATM    5  C   UNL     1     -10.794   7.406  73.194  1.00  0.00    -0.435 C  
BRANCH   5   6
HETATM    6  C   UNL     1     -11.054   5.945  72.809  1.00  0.00    -0.321 C  
BRANCH   6   7
HETATM    7  C   UNL     1     -10.607   5.608  71.379  1.00  0.00    -0.317 C  
BRANCH   7   8
HETATM    8  C   UNL     1      -9.614   4.435  71.300  1.00  0.00    -0.172 C  
HETATM    9  C   UNL     1      -8.193   4.840  71.721  1.00  0.00    -0.109 C  
HETATM   10  C   UNL     1      -7.531   5.737  70.676  1.00  0.00    -0.086 C  
HETATM   11  S   UNL     1      -7.901   5.062  69.036  1.00  0.00    -0.081 SA 
HETATM   12  S   UNL     1      -9.410   3.798  69.605  1.00  0.00    -0.185 SA 
ENDBRANCH   7   8
ENDBRANCH   6   7
ENDBRANCH   5   6
ENDBRANCH   4   5
TORSDOF 4
ENDMDL
MODEL      161
REMARK 921   NORMALIZED FREE ENERGY PREDICTED BY IDOCK:   -2.36 KCAL/MOL
REMARK 922        TOTAL FREE ENERGY PREDICTED BY IDOCK:   -3.42 KCAL/MOL
REMARK 923 INTER-LIGAND FREE ENERGY PREDICTED BY IDOCK:   -2.95 KCAL/MOL
REMARK 924 INTRA-LIGAND FREE ENERGY PREDICTED BY IDOCK:   -0.47 KCAL/MOL
REMARK 927      BINDING AFFINITY PREDICTED BY RF-SCORE:    0.00 PKD
ROOT
HETATM    1  O   UNL     1      -8.314   9.719  70.696  1.00  0.00    -0.224 OA 
HETATM    2  C   UNL     1      -9.579   9.261  70.845  1.00  0.00    -0.269 C  
HETATM    3  O   UNL     1     -10.550   9.997  70.801  1.00  0.00    -0.287 OA 
HETATM    4  C   UNL     1      -9.617   7.771  71.084  1.00  0.00    -0.174 C  
ENDROOT
BRANCH   4   5
HETATM    5  C   UNL     1     -11.041   7.249  71.290  1.00  0.00    -0.270 C  
BRANCH   5   6
HETATM    6  C   UNL     1     -11.659   6.673  70.011  1.00  0.00    -0.423 C  
BRANCH   6   7
HETATM    7  C   UNL     1     -10.701   5.758  69.235  1.00  0.00    -0.386 C  
BRANCH   7   8
HETATM    8  C   UNL     1     -10.677   6.026  67.720  1.00  0.00    -0.289 C  
HETATM    9  C   UNL     1      -9.452   5.403  67.034  1.00  0.00    -0.133 C  
HETATM   10  C   UNL     1      -8.167   6.148  67.392  1.00  0.00    -0.109 C  
HETATM   11  S   UNL     1      -8.510   7.926  67.336  1.00  0.00    -0.122 SA 
HETATM   12  S   UNL     1     -10.555   7.800  67.321  1.00  0.00    -0.262 SA 
ENDBRANCH   7   8
ENDBRANCH   6   7
ENDBRANCH   5   6
ENDBRANCH   4   5
TORSDOF 4
ENDMDL
MODEL      162
REMARK 921   NORMALIZED FREE ENERGY PREDICTED BY IDOCK:   -2.36 KCAL/MOL
REMARK 922        TOTAL FREE ENERGY PREDICTED BY IDOCK:   -3.42 KCAL/MOL
REMARK 923 INTER-LIGAND FREE ENERGY PREDICTED BY IDOCK:   -3.12 KCAL/MOL
REMARK 924 INTRA-LIGAND FREE ENERGY PREDICTED BY IDOCK:   -0.30 KCAL/MOL
REMARK 927      BINDING AFFINITY PREDICTED BY RF-SCORE:    0.00 PKD
ROOT
HETATM    1  O   UNL     1      -9.248   5.039  67.165  1.00  0.00    -0.116 OA 
HETATM    2  C   UNL     1     -10.155   5.923  67.641  1.00  0.00    -0.163 C  
HETATM    3  O   UNL     1     -10.632   6.808  66.950  1.00  0.00    -0.280 OA 
HETATM    4  C   UNL     1     -10.468   5.685  69.099  1.00  0.00    -0.339 C  
ENDROOT
BRANCH   4   5
HETATM    5  C   UNL     1     -11.465   6.703  69.656  1.00  0.00    -0.358 C  
BRANCH   5   6
HETATM    6  C   UNL     1     -11.759   6.500  71.148  1.00  0.00    -0.392 C  
BRANCH   6   7
HETATM    7  C   UNL     1     -11.263   7.659  72.025  1.00  0.00    -0.317 C  
BRANCH   7   8
HETATM    8  C   UNL     1     -10.562   7.203  73.317  1.00  0.00    -0.364 C  
HETATM    9  C   UNL     1      -9.170   7.830  73.481  1.00  0.00    -0.350 C  
HETATM   10  C   UNL     1      -8.167   7.241  72.488  1.00  0.00    -0.107 C  
HETATM   11  S   UNL     1      -8.422   5.449  72.423  1.00  0.00    -0.118 SA 
HETATM   12  S   UNL     1     -10.249   5.408  73.352  1.00  0.00    -0.213 SA 
ENDBRANCH   7   8
ENDBRANCH   6   7
ENDBRANCH   5   6
ENDBRANCH   4   5
TORSDOF 4
ENDMDL
MODEL      163
REMARK 921   NORMALIZED FREE ENERGY PREDICTED BY IDOCK:   -2.35 KCAL/MOL
REMARK 922        TOTAL FREE ENERGY PREDICTED BY IDOCK:   -3.41 KCAL/MOL
REMARK 923 INTER-LIGAND FREE ENERGY PREDICTED BY IDOCK:   -3.25 KCAL/MOL
REMARK 924 INTRA-LIGAND FREE ENERGY PREDICTED BY IDOCK:   -0.15 KCAL/MOL
REMARK 927      BINDING AFFINITY PREDICTED BY RF-SCORE:    0.00 PKD
ROOT
HETATM    1  O   UNL     1     -12.581  14.111  66.875  1.00  0.00    -0.260 OA 
HETATM    2  C   UNL     1     -11.375  14.378  67.429  1.00  0.00    -0.337 C  
HETATM    3  O   UNL     1     -10.785  13.574  68.131  1.00  0.00    -0.239 OA 
HETATM    4  C   UNL     1     -10.890  15.767  67.088  1.00  0.00    -0.289 C  
ENDROOT
BRANCH   4   5
HETATM    5  C   UNL     1      -9.545  16.092  67.740  1.00  0.00    -0.223 C  
BRANCH   5   6
HETATM    6  C   UNL     1      -9.079  17.528  67.470  1.00  0.00    -0.234 C  
BRANCH   6   7
HETATM    7  C   UNL     1      -8.127  18.067  68.547  1.00  0.00    -0.306 C  
BRANCH   7   8
HETATM    8  C   UNL     1      -6.674  18.229  68.067  1.00  0.00    -0.203 C  
HETATM    9  C   UNL     1      -6.162  19.669  68.226  1.00  0.00    -0.267 C  
HETATM   10  C   UNL     1      -6.816  20.614  67.219  1.00  0.00    -0.323 C  
HETATM   11  S   UNL     1      -6.873  19.777  65.613  1.00  0.00    -0.302 SA 
HETATM   12  S   UNL     1      -6.478  17.883  66.288  1.00  0.00    -0.271 SA 
ENDBRANCH   7   8
ENDBRANCH   6   7
ENDBRANCH   5   6
ENDBRANCH   4   5
TORSDOF 4
ENDMDL
MODEL      164
REMARK 921   NORMALIZED FREE ENERGY PREDICTED BY IDOCK:   -2.35 KCAL/MOL
REMARK 922        TOTAL FREE ENERGY PREDICTED BY IDOCK:   -3.41 KCAL/MOL
REMARK 923 INTER-LIGAND FREE ENERGY PREDICTED BY IDOCK:   -3.16 KCAL/MOL
REMARK 924 INTRA-LIGAND FREE ENERGY PREDICTED BY IDOCK:   -0.24 KCAL/MOL
REMARK 927      BINDING AFFINITY PREDICTED BY RF-SCORE:    0.00 PKD
ROOT
HETATM    1  O   UNL     1      -8.568   2.175  67.734  1.00  0.00    -0.075 OA 
HETATM    2  C   UNL     1      -9.193   3.375  67.776  1.00  0.00    -0.190 C  
HETATM    3  O   UNL     1      -9.557   3.959  66.769  1.00  0.00    -0.198 OA 
HETATM    4  C   UNL     1      -9.354   3.881  69.190  1.00  0.00    -0.240 C  
ENDROOT
BRANCH   4   5
HETATM    5  C   UNL     1     -10.027   5.253  69.246  1.00  0.00    -0.285 C  
BRANCH   5   6
HETATM    6  C   UNL     1     -10.706   5.534  70.591  1.00  0.00    -0.303 C  
BRANCH   6   7
HETATM    7  C   UNL     1     -11.720   6.685  70.528  1.00  0.00    -0.453 C  
BRANCH   7   8
HETATM    8  C   UNL     1     -11.617   7.668  71.707  1.00  0.00    -0.270 C  
HETATM    9  C   UNL     1     -11.630   9.135  71.250  1.00  0.00    -0.401 C  
HETATM   10  C   UNL     1     -10.325   9.518  70.553  1.00  0.00    -0.288 C  
HETATM   11  S   UNL     1      -8.951   8.808  71.494  1.00  0.00    -0.212 SA 
HETATM   12  S   UNL     1     -10.053   7.503  72.627  1.00  0.00    -0.246 SA 
ENDBRANCH   7   8
ENDBRANCH   6   7
ENDBRANCH   5   6
ENDBRANCH   4   5
TORSDOF 4
ENDMDL
MODEL      165
REMARK 921   NORMALIZED FREE ENERGY PREDICTED BY IDOCK:   -2.35 KCAL/MOL
REMARK 922        TOTAL FREE ENERGY PREDICTED BY IDOCK:   -3.40 KCAL/MOL
REMARK 923 INTER-LIGAND FREE ENERGY PREDICTED BY IDOCK:   -3.03 KCAL/MOL
REMARK 924 INTRA-LIGAND FREE ENERGY PREDICTED BY IDOCK:   -0.37 KCAL/MOL
REMARK 927      BINDING AFFINITY PREDICTED BY RF-SCORE:    0.00 PKD
ROOT
HETATM    1  O   UNL     1      -9.604   5.056  67.178  1.00  0.00    -0.134 OA 
HETATM    2  C   UNL     1     -10.482   5.708  67.975  1.00  0.00    -0.200 C  
HETATM    3  O   UNL     1     -11.332   6.462  67.532  1.00  0.00    -0.274 OA 
HETATM    4  C   UNL     1     -10.258   5.401  69.437  1.00  0.00    -0.334 C  
ENDROOT
BRANCH   4   5
HETATM    5  C   UNL     1     -11.223   6.162  70.347  1.00  0.00    -0.423 C  
BRANCH   5   6
HETATM    6  C   UNL     1     -10.621   7.454  70.912  1.00  0.00    -0.234 C  
BRANCH   6   7
HETATM    7  C   UNL     1     -11.230   8.723  70.298  1.00  0.00    -0.212 C  
BRANCH   7   8
HETATM    8  C   UNL     1     -10.188   9.792  69.924  1.00  0.00    -0.254 C  
HETATM    9  C   UNL     1     -10.811  10.981  69.177  1.00  0.00    -0.283 C  
HETATM   10  C   UNL     1     -11.227  10.599  67.757  1.00  0.00    -0.313 C  
HETATM   11  S   UNL     1      -9.912   9.583  67.037  1.00  0.00    -0.230 SA 
HETATM   12  S   UNL     1      -8.916   9.166  68.779  1.00  0.00    -0.137 SA 
ENDBRANCH   7   8
ENDBRANCH   6   7
ENDBRANCH   5   6
ENDBRANCH   4   5
TORSDOF 4
ENDMDL
MODEL      166
REMARK 921   NORMALIZED FREE ENERGY PREDICTED BY IDOCK:   -2.34 KCAL/MOL
REMARK 922        TOTAL FREE ENERGY PREDICTED BY IDOCK:   -3.40 KCAL/MOL
REMARK 923 INTER-LIGAND FREE ENERGY PREDICTED BY IDOCK:   -3.03 KCAL/MOL
REMARK 924 INTRA-LIGAND FREE ENERGY PREDICTED BY IDOCK:   -0.37 KCAL/MOL
REMARK 927      BINDING AFFINITY PREDICTED BY RF-SCORE:    0.00 PKD
ROOT
HETATM    1  O   UNL     1     -11.464   7.892  72.790  1.00  0.00    -0.390 OA 
HETATM    2  C   UNL     1     -11.630   7.267  71.600  1.00  0.00    -0.274 C  
HETATM    3  O   UNL     1     -12.679   7.311  70.979  1.00  0.00    -0.322 OA 
HETATM    4  C   UNL     1     -10.388   6.520  71.174  1.00  0.00    -0.237 C  
ENDROOT
BRANCH   4   5
HETATM    5  C   UNL     1     -10.578   5.781  69.848  1.00  0.00    -0.388 C  
BRANCH   5   6
HETATM    6  C   UNL     1      -9.727   6.360  68.711  1.00  0.00    -0.135 C  
BRANCH   6   7
HETATM    7  C   UNL     1     -10.549   7.153  67.684  1.00  0.00    -0.318 C  
BRANCH   7   8
HETATM    8  C   UNL     1     -10.334   8.674  67.759  1.00  0.00    -0.242 C  
HETATM    9  C   UNL     1     -10.069   9.297  66.380  1.00  0.00    -0.337 C  
HETATM   10  C   UNL     1      -8.686   8.923  65.849  1.00  0.00    -0.170 C  
HETATM   11  S   UNL     1      -7.503   9.053  67.215  1.00  0.00    -0.084 SA 
HETATM   12  S   UNL     1      -8.868   9.131  68.741  1.00  0.00    -0.133 SA 
ENDBRANCH   7   8
ENDBRANCH   6   7
ENDBRANCH   5   6
ENDBRANCH   4   5
TORSDOF 4
ENDMDL
MODEL      167
REMARK 921   NORMALIZED FREE ENERGY PREDICTED BY IDOCK:   -2.34 KCAL/MOL
REMARK 922        TOTAL FREE ENERGY PREDICTED BY IDOCK:   -3.39 KCAL/MOL
REMARK 923 INTER-LIGAND FREE ENERGY PREDICTED BY IDOCK:   -3.20 KCAL/MOL
REMARK 924 INTRA-LIGAND FREE ENERGY PREDICTED BY IDOCK:   -0.19 KCAL/MOL
REMARK 927      BINDING AFFINITY PREDICTED BY RF-SCORE:    0.00 PKD
ROOT
HETATM    1  O   UNL     1      -7.714   3.232  71.380  1.00  0.00    -0.050 OA 
HETATM    2  C   UNL     1      -9.000   3.544  71.092  1.00  0.00    -0.097 C  
HETATM    3  O   UNL     1      -9.866   2.694  70.963  1.00  0.00    -0.130 OA 
HETATM    4  C   UNL     1      -9.202   5.033  70.939  1.00  0.00    -0.192 C  
ENDROOT
BRANCH   4   5
HETATM    5  C   UNL     1     -10.644   5.392  70.578  1.00  0.00    -0.312 C  
BRANCH   5   6
HETATM    6  C   UNL     1     -11.424   5.994  71.753  1.00  0.00    -0.314 C  
BRANCH   6   7
HETATM    7  C   UNL     1     -12.138   7.306  71.396  1.00  0.00    -0.370 C  
BRANCH   7   8
HETATM    8  C   UNL     1     -11.549   8.543  72.097  1.00  0.00    -0.377 C  
HETATM    9  C   UNL     1     -12.060   9.858  71.491  1.00  0.00    -0.496 C  
HETATM   10  C   UNL     1     -11.465  10.109  70.105  1.00  0.00    -0.296 C  
HETATM   11  S   UNL     1      -9.704   9.686  70.162  1.00  0.00    -0.248 SA 
HETATM   12  S   UNL     1      -9.737   8.651  71.930  1.00  0.00    -0.320 SA 
ENDBRANCH   7   8
ENDBRANCH   6   7
ENDBRANCH   5   6
ENDBRANCH   4   5
TORSDOF 4
ENDMDL
MODEL      168
REMARK 921   NORMALIZED FREE ENERGY PREDICTED BY IDOCK:   -2.33 KCAL/MOL
REMARK 922        TOTAL FREE ENERGY PREDICTED BY IDOCK:   -3.39 KCAL/MOL
REMARK 923 INTER-LIGAND FREE ENERGY PREDICTED BY IDOCK:   -3.16 KCAL/MOL
REMARK 924 INTRA-LIGAND FREE ENERGY PREDICTED BY IDOCK:   -0.22 KCAL/MOL
REMARK 927      BINDING AFFINITY PREDICTED BY RF-SCORE:    0.00 PKD
ROOT
HETATM    1  O   UNL     1     -12.906  12.647  63.429  1.00  0.00    -0.689 OA 
HETATM    2  C   UNL     1     -12.360  12.410  64.645  1.00  0.00    -0.441 C  
HETATM    3  O   UNL     1     -12.847  12.842  65.676  1.00  0.00    -0.458 OA 
HETATM    4  C   UNL     1     -11.098  11.585  64.548  1.00  0.00    -0.340 C  
ENDROOT
BRANCH   4   5
HETATM    5  C   UNL     1     -10.453  11.344  65.914  1.00  0.00    -0.309 C  
BRANCH   5   6
HETATM    6  C   UNL     1     -10.009   9.890  66.119  1.00  0.00    -0.331 C  
BRANCH   6   7
HETATM    7  C   UNL     1      -8.636   9.767  66.794  1.00  0.00    -0.133 C  
BRANCH   7   8
HETATM    8  C   UNL     1      -7.668  10.911  66.444  1.00  0.00    -0.154 C  
HETATM    9  C   UNL     1      -6.307  10.397  65.954  1.00  0.00    -0.119 C  
HETATM   10  C   UNL     1      -5.492   9.784  67.092  1.00  0.00    -0.042 C  
HETATM   11  S   UNL     1      -5.658  10.853  68.545  1.00  0.00    -0.042 SA 
HETATM   12  S   UNL     1      -7.258  11.951  67.883  1.00  0.00    -0.105 SA 
ENDBRANCH   7   8
ENDBRANCH   6   7
ENDBRANCH   5   6
ENDBRANCH   4   5
TORSDOF 4
ENDMDL
MODEL      169
REMARK 921   NORMALIZED FREE ENERGY PREDICTED BY IDOCK:   -2.33 KCAL/MOL
REMARK 922        TOTAL FREE ENERGY PREDICTED BY IDOCK:   -3.38 KCAL/MOL
REMARK 923 INTER-LIGAND FREE ENERGY PREDICTED BY IDOCK:   -3.10 KCAL/MOL
REMARK 924 INTRA-LIGAND FREE ENERGY PREDICTED BY IDOCK:   -0.28 KCAL/MOL
REMARK 927      BINDING AFFINITY PREDICTED BY RF-SCORE:    0.00 PKD
ROOT
HETATM    1  O   UNL     1     -12.042  14.198  65.286  1.00  0.00    -0.370 OA 
HETATM    2  C   UNL     1     -11.318  14.412  66.410  1.00  0.00    -0.350 C  
HETATM    3  O   UNL     1     -11.704  14.063  67.513  1.00  0.00    -0.343 OA 
HETATM    4  C   UNL     1     -10.023  15.133  66.121  1.00  0.00    -0.317 C  
ENDROOT
BRANCH   4   5
HETATM    5  C   UNL     1      -9.215  15.412  67.390  1.00  0.00    -0.204 C  
BRANCH   5   6
HETATM    6  C   UNL     1      -7.713  15.163  67.211  1.00  0.00    -0.241 C  
BRANCH   6   7
HETATM    7  C   UNL     1      -6.850  16.377  67.585  1.00  0.00    -0.161 C  
BRANCH   7   8
HETATM    8  C   UNL     1      -7.507  17.729  67.257  1.00  0.00    -0.196 C  
HETATM    9  C   UNL     1      -7.038  18.297  65.908  1.00  0.00    -0.291 C  
HETATM   10  C   UNL     1      -5.592  18.785  65.975  1.00  0.00    -0.159 C  
HETATM   11  S   UNL     1      -5.369  19.681  67.534  1.00  0.00    -0.167 SA 
HETATM   12  S   UNL     1      -7.079  19.031  68.459  1.00  0.00    -0.302 SA 
ENDBRANCH   7   8
ENDBRANCH   6   7
ENDBRANCH   5   6
ENDBRANCH   4   5
TORSDOF 4
ENDMDL
MODEL      170
REMARK 921   NORMALIZED FREE ENERGY PREDICTED BY IDOCK:   -2.32 KCAL/MOL
REMARK 922        TOTAL FREE ENERGY PREDICTED BY IDOCK:   -3.36 KCAL/MOL
REMARK 923 INTER-LIGAND FREE ENERGY PREDICTED BY IDOCK:   -3.17 KCAL/MOL
REMARK 924 INTRA-LIGAND FREE ENERGY PREDICTED BY IDOCK:   -0.19 KCAL/MOL
REMARK 927      BINDING AFFINITY PREDICTED BY RF-SCORE:    0.00 PKD
ROOT
HETATM    1  O   UNL     1     -11.072   5.814  67.696  1.00  0.00    -0.171 OA 
HETATM    2  C   UNL     1     -10.855   6.373  68.910  1.00  0.00    -0.325 C  
HETATM    3  O   UNL     1     -11.454   6.016  69.911  1.00  0.00    -0.388 OA 
HETATM    4  C   UNL     1      -9.821   7.472  68.851  1.00  0.00    -0.159 C  
ENDROOT
BRANCH   4   5
HETATM    5  C   UNL     1      -9.595   8.134  70.212  1.00  0.00    -0.171 C  
BRANCH   5   6
HETATM    6  C   UNL     1      -9.998   9.614  70.233  1.00  0.00    -0.326 C  
BRANCH   6   7
HETATM    7  C   UNL     1     -11.096   9.926  71.260  1.00  0.00    -0.302 C  
BRANCH   7   8
HETATM    8  C   UNL     1     -12.426  10.373  70.629  1.00  0.00    -0.348 C  
HETATM    9  C   UNL     1     -12.220  11.222  69.366  1.00  0.00    -0.315 C  
HETATM   10  C   UNL     1     -11.678  12.611  69.703  1.00  0.00    -0.303 C  
HETATM   11  S   UNL     1     -12.573  13.230  71.151  1.00  0.00    -0.251 SA 
HETATM   12  S   UNL     1     -13.403  11.448  71.731  1.00  0.00    -0.112 SA 
ENDBRANCH   7   8
ENDBRANCH   6   7
ENDBRANCH   5   6
ENDBRANCH   4   5
TORSDOF 4
ENDMDL
MODEL      171
REMARK 921   NORMALIZED FREE ENERGY PREDICTED BY IDOCK:   -2.31 KCAL/MOL
REMARK 922        TOTAL FREE ENERGY PREDICTED BY IDOCK:   -3.36 KCAL/MOL
REMARK 923 INTER-LIGAND FREE ENERGY PREDICTED BY IDOCK:   -2.89 KCAL/MOL
REMARK 924 INTRA-LIGAND FREE ENERGY PREDICTED BY IDOCK:   -0.46 KCAL/MOL
REMARK 927      BINDING AFFINITY PREDICTED BY RF-SCORE:    0.00 PKD
ROOT
HETATM    1  O   UNL     1      -9.760   7.576  73.834  1.00  0.00    -0.281 OA 
HETATM    2  C   UNL     1     -10.632   6.873  73.074  1.00  0.00    -0.278 C  
HETATM    3  O   UNL     1     -11.000   5.749  73.370  1.00  0.00    -0.268 OA 
HETATM    4  C   UNL     1     -11.055   7.638  71.842  1.00  0.00    -0.290 C  
ENDROOT
BRANCH   4   5
HETATM    5  C   UNL     1     -12.012   6.837  70.958  1.00  0.00    -0.431 C  
BRANCH   5   6
HETATM    6  C   UNL     1     -11.372   6.379  69.642  1.00  0.00    -0.479 C  
BRANCH   6   7
HETATM    7  C   UNL     1     -10.337   5.259  69.831  1.00  0.00    -0.374 C  
BRANCH   7   8
HETATM    8  C   UNL     1      -9.058   5.450  68.998  1.00  0.00    -0.115 C  
HETATM    9  C   UNL     1      -7.791   5.059  69.773  1.00  0.00    -0.071 C  
HETATM   10  C   UNL     1      -7.469   6.070  70.873  1.00  0.00    -0.091 C  
HETATM   11  S   UNL     1      -7.721   7.734  70.204  1.00  0.00    -0.091 SA 
HETATM   12  S   UNL     1      -8.774   7.189  68.532  1.00  0.00    -0.125 SA 
ENDBRANCH   7   8
ENDBRANCH   6   7
ENDBRANCH   5   6
ENDBRANCH   4   5
TORSDOF 4
ENDMDL
MODEL      172
REMARK 921   NORMALIZED FREE ENERGY PREDICTED BY IDOCK:   -2.31 KCAL/MOL
REMARK 922        TOTAL FREE ENERGY PREDICTED BY IDOCK:   -3.36 KCAL/MOL
REMARK 923 INTER-LIGAND FREE ENERGY PREDICTED BY IDOCK:   -3.14 KCAL/MOL
REMARK 924 INTRA-LIGAND FREE ENERGY PREDICTED BY IDOCK:   -0.21 KCAL/MOL
REMARK 927      BINDING AFFINITY PREDICTED BY RF-SCORE:    0.00 PKD
ROOT
HETATM    1  O   UNL     1     -11.094  16.631  64.880  1.00  0.00    -0.557 OA 
HETATM    2  C   UNL     1     -10.551  15.558  65.501  1.00  0.00    -0.396 C  
HETATM    3  O   UNL     1      -9.545  15.639  66.186  1.00  0.00    -0.276 OA 
HETATM    4  C   UNL     1     -11.322  14.290  65.221  1.00  0.00    -0.336 C  
ENDROOT
BRANCH   4   5
HETATM    5  C   UNL     1     -10.694  13.065  65.889  1.00  0.00    -0.292 C  
BRANCH   5   6
HETATM    6  C   UNL     1     -10.431  11.916  64.909  1.00  0.00    -0.331 C  
BRANCH   6   7
HETATM    7  C   UNL     1     -10.530  10.530  65.561  1.00  0.00    -0.220 C  
BRANCH   7   8
HETATM    8  C   UNL     1      -9.446  10.264  66.620  1.00  0.00    -0.166 C  
HETATM    9  C   UNL     1      -8.032  10.257  66.021  1.00  0.00    -0.138 C  
HETATM   10  C   UNL     1      -7.789   9.014  65.166  1.00  0.00    -0.108 C  
HETATM   11  S   UNL     1      -8.480   7.584  66.037  1.00  0.00    -0.153 SA 
HETATM   12  S   UNL     1      -9.608   8.623  67.397  1.00  0.00    -0.169 SA 
ENDBRANCH   7   8
ENDBRANCH   6   7
ENDBRANCH   5   6
ENDBRANCH   4   5
TORSDOF 4
ENDMDL
MODEL      173
REMARK 921   NORMALIZED FREE ENERGY PREDICTED BY IDOCK:   -2.31 KCAL/MOL
REMARK 922        TOTAL FREE ENERGY PREDICTED BY IDOCK:   -3.35 KCAL/MOL
REMARK 923 INTER-LIGAND FREE ENERGY PREDICTED BY IDOCK:   -3.14 KCAL/MOL
REMARK 924 INTRA-LIGAND FREE ENERGY PREDICTED BY IDOCK:   -0.21 KCAL/MOL
REMARK 927      BINDING AFFINITY PREDICTED BY RF-SCORE:    0.00 PKD
ROOT
HETATM    1  O   UNL     1     -12.799  10.502  71.933  1.00  0.00    -0.444 OA 
HETATM    2  C   UNL     1     -12.939   9.156  71.963  1.00  0.00    -0.424 C  
HETATM    3  O   UNL     1     -14.011   8.614  72.171  1.00  0.00    -0.405 OA 
HETATM    4  C   UNL     1     -11.627   8.444  71.732  1.00  0.00    -0.372 C  
ENDROOT
BRANCH   4   5
HETATM    5  C   UNL     1     -11.768   6.923  71.801  1.00  0.00    -0.338 C  
BRANCH   5   6
HETATM    6  C   UNL     1     -10.537   6.181  71.265  1.00  0.00    -0.295 C  
BRANCH   6   7
HETATM    7  C   UNL     1      -9.595   7.082  70.454  1.00  0.00    -0.169 C  
BRANCH   7   8
HETATM    8  C   UNL     1      -9.412   6.632  68.994  1.00  0.00    -0.131 C  
HETATM    9  C   UNL     1      -7.957   6.763  68.519  1.00  0.00    -0.119 C  
HETATM   10  C   UNL     1      -7.555   8.225  68.332  1.00  0.00    -0.101 C  
HETATM   11  S   UNL     1      -8.923   9.088  67.516  1.00  0.00    -0.121 SA 
HETATM   12  S   UNL     1     -10.356   7.655  67.818  1.00  0.00    -0.219 SA 
ENDBRANCH   7   8
ENDBRANCH   6   7
ENDBRANCH   5   6
ENDBRANCH   4   5
TORSDOF 4
ENDMDL
MODEL      174
REMARK 921   NORMALIZED FREE ENERGY PREDICTED BY IDOCK:   -2.30 KCAL/MOL
REMARK 922        TOTAL FREE ENERGY PREDICTED BY IDOCK:   -3.35 KCAL/MOL
REMARK 923 INTER-LIGAND FREE ENERGY PREDICTED BY IDOCK:   -3.00 KCAL/MOL
REMARK 924 INTRA-LIGAND FREE ENERGY PREDICTED BY IDOCK:   -0.35 KCAL/MOL
REMARK 927      BINDING AFFINITY PREDICTED BY RF-SCORE:    0.00 PKD
ROOT
HETATM    1  O   UNL     1      -8.483  10.354  69.383  1.00  0.00    -0.161 OA 
HETATM    2  C   UNL     1      -9.559   9.536  69.457  1.00  0.00    -0.188 C  
HETATM    3  O   UNL     1     -10.189   9.192  68.470  1.00  0.00    -0.186 OA 
HETATM    4  C   UNL     1      -9.873   9.140  70.880  1.00  0.00    -0.359 C  
ENDROOT
BRANCH   4   5
HETATM    5  C   UNL     1     -11.110   8.245  70.977  1.00  0.00    -0.284 C  
BRANCH   5   6
HETATM    6  C   UNL     1     -11.475   7.880  72.421  1.00  0.00    -0.433 C  
BRANCH   6   7
HETATM    7  C   UNL     1     -10.248   7.716  73.331  1.00  0.00    -0.375 C  
BRANCH   7   8
HETATM    8  C   UNL     1     -10.047   6.281  73.849  1.00  0.00    -0.270 C  
HETATM    9  C   UNL     1      -8.610   5.780  73.640  1.00  0.00    -0.119 C  
HETATM   10  C   UNL     1      -8.318   5.506  72.165  1.00  0.00    -0.122 C  
HETATM   11  S   UNL     1      -9.753   4.661  71.452  1.00  0.00    -0.188 SA 
HETATM   12  S   UNL     1     -11.075   5.063  72.966  1.00  0.00    -0.308 SA 
ENDBRANCH   7   8
ENDBRANCH   6   7
ENDBRANCH   5   6
ENDBRANCH   4   5
TORSDOF 4
ENDMDL
MODEL      175
REMARK 921   NORMALIZED FREE ENERGY PREDICTED BY IDOCK:   -2.27 KCAL/MOL
REMARK 922        TOTAL FREE ENERGY PREDICTED BY IDOCK:   -3.30 KCAL/MOL
REMARK 923 INTER-LIGAND FREE ENERGY PREDICTED BY IDOCK:   -3.14 KCAL/MOL
REMARK 924 INTRA-LIGAND FREE ENERGY PREDICTED BY IDOCK:   -0.16 KCAL/MOL
REMARK 927      BINDING AFFINITY PREDICTED BY RF-SCORE:    0.00 PKD
ROOT
HETATM    1  O   UNL     1      -8.536   3.493  65.558  1.00  0.00    -0.109 OA 
HETATM    2  C   UNL     1      -9.617   4.236  65.895  1.00  0.00    -0.191 C  
HETATM    3  O   UNL     1     -10.553   4.411  65.133  1.00  0.00    -0.246 OA 
HETATM    4  C   UNL     1      -9.497   4.812  67.286  1.00  0.00    -0.163 C  
ENDROOT
BRANCH   4   5
HETATM    5  C   UNL     1     -10.697   5.683  67.662  1.00  0.00    -0.260 C  
BRANCH   5   6
HETATM    6  C   UNL     1     -10.865   5.852  69.177  1.00  0.00    -0.406 C  
BRANCH   6   7
HETATM    7  C   UNL     1     -11.161   7.300  69.594  1.00  0.00    -0.109 C  
BRANCH   7   8
HETATM    8  C   UNL     1     -11.096   7.532  71.114  1.00  0.00    -0.251 C  
HETATM    9  C   UNL     1     -11.999   6.565  71.894  1.00  0.00    -0.389 C  
HETATM   10  C   UNL     1     -13.478   6.896  71.701  1.00  0.00    -0.196 C  
HETATM   11  S   UNL     1     -13.672   8.695  71.798  1.00  0.00    -0.423 SA 
HETATM   12  S   UNL     1     -11.692   9.184  71.600  1.00  0.00    -0.398 SA 
ENDBRANCH   7   8
ENDBRANCH   6   7
ENDBRANCH   5   6
ENDBRANCH   4   5
TORSDOF 4
ENDMDL
MODEL      176
REMARK 921   NORMALIZED FREE ENERGY PREDICTED BY IDOCK:   -2.25 KCAL/MOL
REMARK 922        TOTAL FREE ENERGY PREDICTED BY IDOCK:   -3.28 KCAL/MOL
REMARK 923 INTER-LIGAND FREE ENERGY PREDICTED BY IDOCK:   -2.88 KCAL/MOL
REMARK 924 INTRA-LIGAND FREE ENERGY PREDICTED BY IDOCK:   -0.40 KCAL/MOL
REMARK 927      BINDING AFFINITY PREDICTED BY RF-SCORE:    0.00 PKD
ROOT
HETATM    1  O   UNL     1     -10.337  15.077  64.801  1.00  0.00    -0.349 OA 
HETATM    2  C   UNL     1     -10.388  14.095  65.731  1.00  0.00    -0.325 C  
HETATM    3  O   UNL     1      -9.797  14.171  66.796  1.00  0.00    -0.256 OA 
HETATM    4  C   UNL     1     -11.230  12.927  65.277  1.00  0.00    -0.319 C  
ENDROOT
BRANCH   4   5
HETATM    5  C   UNL     1     -11.263  11.796  66.307  1.00  0.00    -0.370 C  
BRANCH   5   6
HETATM    6  C   UNL     1     -10.400  10.594  65.906  1.00  0.00    -0.291 C  
BRANCH   6   7
HETATM    7  C   UNL     1      -9.378  10.198  66.982  1.00  0.00    -0.178 C  
BRANCH   7   8
HETATM    8  C   UNL     1      -9.499  11.012  68.282  1.00  0.00    -0.172 C  
HETATM    9  C   UNL     1      -8.167  11.652  68.700  1.00  0.00    -0.110 C  
HETATM   10  C   UNL     1      -7.175  10.606  69.207  1.00  0.00    -0.113 C  
HETATM   11  S   UNL     1      -8.071   9.448  70.274  1.00  0.00    -0.175 SA 
HETATM   12  S   UNL     1      -9.967   9.986  69.714  1.00  0.00    -0.225 SA 
ENDBRANCH   7   8
ENDBRANCH   6   7
ENDBRANCH   5   6
ENDBRANCH   4   5
TORSDOF 4
ENDMDL
MODEL      177
REMARK 921   NORMALIZED FREE ENERGY PREDICTED BY IDOCK:   -2.21 KCAL/MOL
REMARK 922        TOTAL FREE ENERGY PREDICTED BY IDOCK:   -3.24 KCAL/MOL
REMARK 923 INTER-LIGAND FREE ENERGY PREDICTED BY IDOCK:   -2.76 KCAL/MOL
REMARK 924 INTRA-LIGAND FREE ENERGY PREDICTED BY IDOCK:   -0.48 KCAL/MOL
REMARK 927      BINDING AFFINITY PREDICTED BY RF-SCORE:    0.00 PKD
ROOT
HETATM    1  O   UNL     1      -6.979   9.525  71.549  1.00  0.00    -0.319 OA 
HETATM    2  C   UNL     1      -7.572   8.577  72.312  1.00  0.00    -0.058 C  
HETATM    3  O   UNL     1      -8.069   8.827  73.397  1.00  0.00    -0.402 OA 
HETATM    4  C   UNL     1      -7.517   7.213  71.665  1.00  0.00    -0.086 C  
ENDROOT
BRANCH   4   5
HETATM    5  C   UNL     1      -8.152   6.128  72.537  1.00  0.00    -0.104 C  
BRANCH   5   6
HETATM    6  C   UNL     1      -9.583   5.779  72.110  1.00  0.00    -0.167 C  
BRANCH   6   7
HETATM    7  C   UNL     1      -9.766   5.732  70.586  1.00  0.00    -0.224 C  
BRANCH   7   8
HETATM    8  C   UNL     1     -11.086   6.355  70.101  1.00  0.00    -0.365 C  
HETATM    9  C   UNL     1     -10.861   7.503  69.106  1.00  0.00    -0.105 C  
HETATM   10  C   UNL     1     -10.294   8.743  69.796  1.00  0.00    -0.211 C  
HETATM   11  S   UNL     1     -11.179   8.974  71.359  1.00  0.00    -0.353 SA 
HETATM   12  S   UNL     1     -12.043   7.118  71.450  1.00  0.00    -0.363 SA 
ENDBRANCH   7   8
ENDBRANCH   6   7
ENDBRANCH   5   6
ENDBRANCH   4   5
TORSDOF 4
ENDMDL
MODEL      178
REMARK 921   NORMALIZED FREE ENERGY PREDICTED BY IDOCK:   -2.21 KCAL/MOL
REMARK 922        TOTAL FREE ENERGY PREDICTED BY IDOCK:   -3.23 KCAL/MOL
REMARK 923 INTER-LIGAND FREE ENERGY PREDICTED BY IDOCK:   -2.85 KCAL/MOL
REMARK 924 INTRA-LIGAND FREE ENERGY PREDICTED BY IDOCK:   -0.38 KCAL/MOL
REMARK 927      BINDING AFFINITY PREDICTED BY RF-SCORE:    0.00 PKD
ROOT
HETATM    1  O   UNL     1      -8.954   7.596  67.038  1.00  0.00    -0.126 OA 
HETATM    2  C   UNL     1      -8.615   7.374  68.330  1.00  0.00    -0.124 C  
HETATM    3  O   UNL     1      -8.377   6.258  68.762  1.00  0.00    -0.118 OA 
HETATM    4  C   UNL     1      -8.593   8.650  69.137  1.00  0.00    -0.129 C  
ENDROOT
BRANCH   4   5
HETATM    5  C   UNL     1      -8.246   8.405  70.607  1.00  0.00    -0.117 C  
BRANCH   5   6
HETATM    6  C   UNL     1      -9.287   8.983  71.573  1.00  0.00    -0.294 C  
BRANCH   6   7
HETATM    7  C   UNL     1      -9.481   8.128  72.834  1.00  0.00    -0.345 C  
BRANCH   7   8
HETATM    8  C   UNL     1     -10.916   7.602  73.012  1.00  0.00    -0.400 C  
HETATM    9  C   UNL     1     -10.981   6.067  73.019  1.00  0.00    -0.289 C  
HETATM   10  C   UNL     1     -10.724   5.487  71.629  1.00  0.00    -0.231 C  
HETATM   11  S   UNL     1     -11.627   6.490  70.421  1.00  0.00    -0.362 SA 
HETATM   12  S   UNL     1     -12.019   8.087  71.645  1.00  0.00    -0.312 SA 
ENDBRANCH   7   8
ENDBRANCH   6   7
ENDBRANCH   5   6
ENDBRANCH   4   5
TORSDOF 4
ENDMDL
MODEL      179
REMARK 921   NORMALIZED FREE ENERGY PREDICTED BY IDOCK:   -2.20 KCAL/MOL
REMARK 922        TOTAL FREE ENERGY PREDICTED BY IDOCK:   -3.21 KCAL/MOL
REMARK 923 INTER-LIGAND FREE ENERGY PREDICTED BY IDOCK:   -2.98 KCAL/MOL
REMARK 924 INTRA-LIGAND FREE ENERGY PREDICTED BY IDOCK:   -0.24 KCAL/MOL
REMARK 927      BINDING AFFINITY PREDICTED BY RF-SCORE:    0.00 PKD
ROOT
HETATM    1  O   UNL     1     -10.067   4.361  69.862  1.00  0.00    -0.222 OA 
HETATM    2  C   UNL     1      -9.572   5.571  69.509  1.00  0.00    -0.151 C  
HETATM    3  O   UNL     1      -8.398   5.865  69.656  1.00  0.00    -0.114 OA 
HETATM    4  C   UNL     1     -10.641   6.479  68.948  1.00  0.00    -0.280 C  
ENDROOT
BRANCH   4   5
HETATM    5  C   UNL     1     -10.098   7.861  68.581  1.00  0.00    -0.210 C  
BRANCH   5   6
HETATM    6  C   UNL     1     -10.528   8.322  67.183  1.00  0.00    -0.386 C  
BRANCH   6   7
HETATM    7  C   UNL     1     -10.767   9.836  67.093  1.00  0.00    -0.273 C  
BRANCH   7   8
HETATM    8  C   UNL     1     -10.560  10.577  68.425  1.00  0.00    -0.199 C  
HETATM    9  C   UNL     1     -11.699  11.561  68.732  1.00  0.00    -0.397 C  
HETATM   10  C   UNL     1     -11.652  12.781  67.812  1.00  0.00    -0.353 C  
HETATM   11  S   UNL     1      -9.926  13.311  67.665  1.00  0.00    -0.235 SA 
HETATM   12  S   UNL     1      -9.063  11.616  68.428  1.00  0.00    -0.157 SA 
ENDBRANCH   7   8
ENDBRANCH   6   7
ENDBRANCH   5   6
ENDBRANCH   4   5
TORSDOF 4
ENDMDL
MODEL      180
REMARK 921   NORMALIZED FREE ENERGY PREDICTED BY IDOCK:   -2.17 KCAL/MOL
REMARK 922        TOTAL FREE ENERGY PREDICTED BY IDOCK:   -3.18 KCAL/MOL
REMARK 923 INTER-LIGAND FREE ENERGY PREDICTED BY IDOCK:   -2.95 KCAL/MOL
REMARK 924 INTRA-LIGAND FREE ENERGY PREDICTED BY IDOCK:   -0.23 KCAL/MOL
REMARK 927      BINDING AFFINITY PREDICTED BY RF-SCORE:    0.00 PKD
ROOT
HETATM    1  O   UNL     1     -11.125   7.565  73.105  1.00  0.00    -0.383 OA 
HETATM    2  C   UNL     1     -11.697   8.490  72.299  1.00  0.00    -0.373 C  
HETATM    3  O   UNL     1     -12.906   8.599  72.183  1.00  0.00    -0.349 OA 
HETATM    4  C   UNL     1     -10.667   9.325  71.575  1.00  0.00    -0.425 C  
ENDROOT
BRANCH   4   5
HETATM    5  C   UNL     1     -11.303  10.350  70.635  1.00  0.00    -0.411 C  
BRANCH   5   6
HETATM    6  C   UNL     1     -10.925  10.131  69.165  1.00  0.00    -0.270 C  
BRANCH   6   7
HETATM    7  C   UNL     1     -10.891   8.649  68.763  1.00  0.00    -0.009 C  
BRANCH   7   8
HETATM    8  C   UNL     1     -10.119   8.377  67.460  1.00  0.00    -0.218 C  
HETATM    9  C   UNL     1      -9.621   6.927  67.366  1.00  0.00    -0.163 C  
HETATM   10  C   UNL     1      -8.474   6.662  68.341  1.00  0.00    -0.125 C  
HETATM   11  S   UNL     1      -7.347   8.079  68.287  1.00  0.00    -0.097 SA 
HETATM   12  S   UNL     1      -8.602   9.378  67.318  1.00  0.00    -0.128 SA 
ENDBRANCH   7   8
ENDBRANCH   6   7
ENDBRANCH   5   6
ENDBRANCH   4   5
TORSDOF 4
ENDMDL
MODEL      181
REMARK 921   NORMALIZED FREE ENERGY PREDICTED BY IDOCK:   -2.17 KCAL/MOL
REMARK 922        TOTAL FREE ENERGY PREDICTED BY IDOCK:   -3.18 KCAL/MOL
REMARK 923 INTER-LIGAND FREE ENERGY PREDICTED BY IDOCK:   -2.93 KCAL/MOL
REMARK 924 INTRA-LIGAND FREE ENERGY PREDICTED BY IDOCK:   -0.25 KCAL/MOL
REMARK 927      BINDING AFFINITY PREDICTED BY RF-SCORE:    0.00 PKD
ROOT
HETATM    1  O   UNL     1     -14.199   7.822  71.353  1.00  0.00    -0.405 OA 
HETATM    2  C   UNL     1     -12.918   7.516  71.663  1.00  0.00    -0.358 C  
HETATM    3  O   UNL     1     -12.434   6.420  71.437  1.00  0.00    -0.217 OA 
HETATM    4  C   UNL     1     -12.203   8.672  72.323  1.00  0.00    -0.447 C  
ENDROOT
BRANCH   4   5
HETATM    5  C   UNL     1     -10.765   8.323  72.711  1.00  0.00    -0.313 C  
BRANCH   5   6
HETATM    6  C   UNL     1      -9.724   8.939  71.768  1.00  0.00    -0.365 C  
BRANCH   6   7
HETATM    7  C   UNL     1      -9.688   8.268  70.387  1.00  0.00    -0.175 C  
BRANCH   7   8
HETATM    8  C   UNL     1      -8.418   7.437  70.134  1.00  0.00    -0.137 C  
HETATM    9  C   UNL     1      -8.698   6.180  69.297  1.00  0.00    -0.122 C  
HETATM   10  C   UNL     1      -9.470   5.131  70.097  1.00  0.00    -0.168 C  
HETATM   11  S   UNL     1      -8.756   5.050  71.760  1.00  0.00    -0.130 SA 
HETATM   12  S   UNL     1      -7.680   6.793  71.670  1.00  0.00    -0.097 SA 
ENDBRANCH   7   8
ENDBRANCH   6   7
ENDBRANCH   5   6
ENDBRANCH   4   5
TORSDOF 4
ENDMDL
MODEL      182
REMARK 921   NORMALIZED FREE ENERGY PREDICTED BY IDOCK:   -2.15 KCAL/MOL
REMARK 922        TOTAL FREE ENERGY PREDICTED BY IDOCK:   -3.16 KCAL/MOL
REMARK 923 INTER-LIGAND FREE ENERGY PREDICTED BY IDOCK:   -2.83 KCAL/MOL
REMARK 924 INTRA-LIGAND FREE ENERGY PREDICTED BY IDOCK:   -0.33 KCAL/MOL
REMARK 927      BINDING AFFINITY PREDICTED BY RF-SCORE:    0.00 PKD
ROOT
HETATM    1  O   UNL     1     -10.607   6.537  67.079  1.00  0.00    -0.255 OA 
HETATM    2  C   UNL     1      -9.883   5.733  67.893  1.00  0.00    -0.127 C  
HETATM    3  O   UNL     1      -9.799   4.529  67.718  1.00  0.00    -0.159 OA 
HETATM    4  C   UNL     1      -9.234   6.503  69.019  1.00  0.00    -0.130 C  
ENDROOT
BRANCH   4   5
HETATM    5  C   UNL     1      -8.444   5.598  69.965  1.00  0.00    -0.122 C  
BRANCH   5   6
HETATM    6  C   UNL     1      -8.937   5.670  71.415  1.00  0.00    -0.148 C  
BRANCH   6   7
HETATM    7  C   UNL     1     -10.362   5.127  71.597  1.00  0.00    -0.274 C  
BRANCH   7   8
HETATM    8  C   UNL     1     -11.214   5.940  72.587  1.00  0.00    -0.291 C  
HETATM    9  C   UNL     1     -12.424   6.603  71.913  1.00  0.00    -0.334 C  
HETATM   10  C   UNL     1     -12.000   7.762  71.011  1.00  0.00    -0.262 C  
HETATM   11  S   UNL     1     -10.729   8.718  71.879  1.00  0.00    -0.358 SA 
HETATM   12  S   UNL     1     -10.299   7.332  73.326  1.00  0.00    -0.370 SA 
ENDBRANCH   7   8
ENDBRANCH   6   7
ENDBRANCH   5   6
ENDBRANCH   4   5
TORSDOF 4
ENDMDL
MODEL      183
REMARK 921   NORMALIZED FREE ENERGY PREDICTED BY IDOCK:   -2.15 KCAL/MOL
REMARK 922        TOTAL FREE ENERGY PREDICTED BY IDOCK:   -3.16 KCAL/MOL
REMARK 923 INTER-LIGAND FREE ENERGY PREDICTED BY IDOCK:   -2.83 KCAL/MOL
REMARK 924 INTRA-LIGAND FREE ENERGY PREDICTED BY IDOCK:   -0.32 KCAL/MOL
REMARK 927      BINDING AFFINITY PREDICTED BY RF-SCORE:    0.00 PKD
ROOT
HETATM    1  O   UNL     1      -6.633  10.167  63.954  1.00  0.00    -0.132 OA 
HETATM    2  C   UNL     1      -7.976  10.172  64.128  1.00  0.00    -0.154 C  
HETATM    3  O   UNL     1      -8.744  10.593  63.279  1.00  0.00    -0.176 OA 
HETATM    4  C   UNL     1      -8.374   9.622  65.477  1.00  0.00    -0.143 C  
ENDROOT
BRANCH   4   5
HETATM    5  C   UNL     1      -9.888   9.657  65.697  1.00  0.00    -0.369 C  
BRANCH   5   6
HETATM    6  C   UNL     1     -10.346  10.862  66.527  1.00  0.00    -0.299 C  
BRANCH   6   7
HETATM    7  C   UNL     1     -11.254  10.476  67.704  1.00  0.00    -0.338 C  
BRANCH   7   8
HETATM    8  C   UNL     1     -10.639  10.769  69.083  1.00  0.00    -0.222 C  
HETATM    9  C   UNL     1      -9.379   9.934  69.353  1.00  0.00    -0.226 C  
HETATM   10  C   UNL     1      -9.718   8.463  69.592  1.00  0.00    -0.173 C  
HETATM   11  S   UNL     1     -11.179   8.387  70.660  1.00  0.00    -0.236 SA 
HETATM   12  S   UNL     1     -11.757  10.343  70.458  1.00  0.00    -0.366 SA 
ENDBRANCH   7   8
ENDBRANCH   6   7
ENDBRANCH   5   6
ENDBRANCH   4   5
TORSDOF 4
ENDMDL
MODEL      184
REMARK 921   NORMALIZED FREE ENERGY PREDICTED BY IDOCK:   -2.13 KCAL/MOL
REMARK 922        TOTAL FREE ENERGY PREDICTED BY IDOCK:   -3.13 KCAL/MOL
REMARK 923 INTER-LIGAND FREE ENERGY PREDICTED BY IDOCK:   -2.97 KCAL/MOL
REMARK 924 INTRA-LIGAND FREE ENERGY PREDICTED BY IDOCK:   -0.16 KCAL/MOL
REMARK 927      BINDING AFFINITY PREDICTED BY RF-SCORE:    0.00 PKD
ROOT
HETATM    1  O   UNL     1      -9.179   3.590  66.872  1.00  0.00    -0.162 OA 
HETATM    2  C   UNL     1     -10.054   4.607  67.057  1.00  0.00    -0.167 C  
HETATM    3  O   UNL     1     -10.766   5.028  66.160  1.00  0.00    -0.315 OA 
HETATM    4  C   UNL     1     -10.014   5.140  68.469  1.00  0.00    -0.221 C  
ENDROOT
BRANCH   4   5
HETATM    5  C   UNL     1     -10.974   6.313  68.677  1.00  0.00    -0.423 C  
BRANCH   5   6
HETATM    6  C   UNL     1     -10.265   7.596  69.130  1.00  0.00    -0.204 C  
BRANCH   6   7
HETATM    7  C   UNL     1     -10.534   8.793  68.207  1.00  0.00    -0.236 C  
BRANCH   7   8
HETATM    8  C   UNL     1     -10.427  10.156  68.913  1.00  0.00    -0.210 C  
HETATM    9  C   UNL     1     -11.575  11.104  68.532  1.00  0.00    -0.385 C  
HETATM   10  C   UNL     1     -11.436  11.608  67.097  1.00  0.00    -0.271 C  
HETATM   11  S   UNL     1      -9.698  12.027  66.810  1.00  0.00    -0.212 SA 
HETATM   12  S   UNL     1      -8.922  11.074  68.450  1.00  0.00    -0.162 SA 
ENDBRANCH   7   8
ENDBRANCH   6   7
ENDBRANCH   5   6
ENDBRANCH   4   5
TORSDOF 4
ENDMDL
MODEL      185
REMARK 921   NORMALIZED FREE ENERGY PREDICTED BY IDOCK:   -2.12 KCAL/MOL
REMARK 922        TOTAL FREE ENERGY PREDICTED BY IDOCK:   -3.12 KCAL/MOL
REMARK 923 INTER-LIGAND FREE ENERGY PREDICTED BY IDOCK:   -2.78 KCAL/MOL
REMARK 924 INTRA-LIGAND FREE ENERGY PREDICTED BY IDOCK:   -0.34 KCAL/MOL
REMARK 927      BINDING AFFINITY PREDICTED BY RF-SCORE:    0.00 PKD
ROOT
HETATM    1  O   UNL     1     -10.189   2.906  72.566  1.00  0.00    -0.157 OA 
HETATM    2  C   UNL     1     -10.417   4.240  72.612  1.00  0.00    -0.171 C  
HETATM    3  O   UNL     1     -10.857   4.795  73.605  1.00  0.00    -0.255 OA 
HETATM    4  C   UNL     1     -10.082   4.917  71.304  1.00  0.00    -0.269 C  
ENDROOT
BRANCH   4   5
HETATM    5  C   UNL     1     -10.371   6.419  71.334  1.00  0.00    -0.240 C  
BRANCH   5   6
HETATM    6  C   UNL     1     -11.334   6.867  70.227  1.00  0.00    -0.373 C  
BRANCH   6   7
HETATM    7  C   UNL     1     -11.123   6.118  68.903  1.00  0.00    -0.417 C  
BRANCH   7   8
HETATM    8  C   UNL     1     -10.859   7.043  67.703  1.00  0.00    -0.242 C  
HETATM    9  C   UNL     1      -9.731   6.523  66.799  1.00  0.00    -0.208 C  
HETATM   10  C   UNL     1      -8.364   6.664  67.467  1.00  0.00    -0.121 C  
HETATM   11  S   UNL     1      -8.292   8.285  68.272  1.00  0.00    -0.133 SA 
HETATM   12  S   UNL     1     -10.297   8.703  68.203  1.00  0.00    -0.197 SA 
ENDBRANCH   7   8
ENDBRANCH   6   7
ENDBRANCH   5   6
ENDBRANCH   4   5
TORSDOF 4
ENDMDL
MODEL      186
REMARK 921   NORMALIZED FREE ENERGY PREDICTED BY IDOCK:   -2.11 KCAL/MOL
REMARK 922        TOTAL FREE ENERGY PREDICTED BY IDOCK:   -3.11 KCAL/MOL
REMARK 923 INTER-LIGAND FREE ENERGY PREDICTED BY IDOCK:   -3.01 KCAL/MOL
REMARK 924 INTRA-LIGAND FREE ENERGY PREDICTED BY IDOCK:   -0.10 KCAL/MOL
REMARK 927      BINDING AFFINITY PREDICTED BY RF-SCORE:    0.00 PKD
ROOT
HETATM    1  O   UNL     1      -9.630   4.549  67.107  1.00  0.00    -0.160 OA 
HETATM    2  C   UNL     1      -9.936   5.825  66.773  1.00  0.00    -0.175 C  
HETATM    3  O   UNL     1     -11.084   6.233  66.733  1.00  0.00    -0.343 OA 
HETATM    4  C   UNL     1      -8.704   6.638  66.450  1.00  0.00    -0.144 C  
ENDROOT
BRANCH   4   5
HETATM    5  C   UNL     1      -9.042   8.071  66.037  1.00  0.00    -0.193 C  
BRANCH   5   6
HETATM    6  C   UNL     1      -9.416   8.966  67.225  1.00  0.00    -0.195 C  
BRANCH   6   7
HETATM    7  C   UNL     1     -10.464  10.032  66.873  1.00  0.00    -0.284 C  
BRANCH   7   8
HETATM    8  C   UNL     1      -9.859  11.349  66.358  1.00  0.00    -0.211 C  
HETATM    9  C   UNL     1     -10.033  12.503  67.357  1.00  0.00    -0.207 C  
HETATM   10  C   UNL     1     -11.488  12.965  67.436  1.00  0.00    -0.336 C  
HETATM   11  S   UNL     1     -12.152  13.032  65.751  1.00  0.00    -0.453 SA 
HETATM   12  S   UNL     1     -10.668  11.950  64.840  1.00  0.00    -0.314 SA 
ENDBRANCH   7   8
ENDBRANCH   6   7
ENDBRANCH   5   6
ENDBRANCH   4   5
TORSDOF 4
ENDMDL
MODEL      187
REMARK 921   NORMALIZED FREE ENERGY PREDICTED BY IDOCK:   -2.09 KCAL/MOL
REMARK 922        TOTAL FREE ENERGY PREDICTED BY IDOCK:   -3.09 KCAL/MOL
REMARK 923 INTER-LIGAND FREE ENERGY PREDICTED BY IDOCK:   -2.85 KCAL/MOL
REMARK 924 INTRA-LIGAND FREE ENERGY PREDICTED BY IDOCK:   -0.24 KCAL/MOL
REMARK 927      BINDING AFFINITY PREDICTED BY RF-SCORE:    0.00 PKD
ROOT
HETATM    1  O   UNL     1      -8.754   8.643  73.075  1.00  0.00    -0.380 OA 
HETATM    2  C   UNL     1      -9.831   8.541  72.262  1.00  0.00    -0.313 C  
HETATM    3  O   UNL     1     -10.973   8.688  72.666  1.00  0.00    -0.252 OA 
HETATM    4  C   UNL     1      -9.440   8.211  70.841  1.00  0.00    -0.186 C  
ENDROOT
BRANCH   4   5
HETATM    5  C   UNL     1     -10.654   8.057  69.922  1.00  0.00    -0.242 C  
BRANCH   5   6
HETATM    6  C   UNL     1     -11.175   6.616  69.853  1.00  0.00    -0.421 C  
BRANCH   6   7
HETATM    7  C   UNL     1     -11.050   5.994  68.455  1.00  0.00    -0.279 C  
BRANCH   7   8
HETATM    8  C   UNL     1      -9.607   5.952  67.922  1.00  0.00    -0.115 C  
HETATM    9  C   UNL     1      -9.549   5.696  66.409  1.00  0.00    -0.175 C  
HETATM   10  C   UNL     1      -9.933   4.258  66.066  1.00  0.00    -0.219 C  
HETATM   11  S   UNL     1      -9.138   3.158  67.266  1.00  0.00    -0.181 SA 
HETATM   12  S   UNL     1      -8.630   4.592  68.640  1.00  0.00    -0.090 SA 
ENDBRANCH   7   8
ENDBRANCH   6   7
ENDBRANCH   5   6
ENDBRANCH   4   5
TORSDOF 4
ENDMDL
MODEL      188
REMARK 921   NORMALIZED FREE ENERGY PREDICTED BY IDOCK:   -2.09 KCAL/MOL
REMARK 922        TOTAL FREE ENERGY PREDICTED BY IDOCK:   -3.09 KCAL/MOL
REMARK 923 INTER-LIGAND FREE ENERGY PREDICTED BY IDOCK:   -2.75 KCAL/MOL
REMARK 924 INTRA-LIGAND FREE ENERGY PREDICTED BY IDOCK:   -0.34 KCAL/MOL
REMARK 927      BINDING AFFINITY PREDICTED BY RF-SCORE:    0.00 PKD
ROOT
HETATM    1  O   UNL     1      -8.799  16.756  66.397  1.00  0.00    -0.254 OA 
HETATM    2  C   UNL     1      -9.862  15.933  66.551  1.00  0.00    -0.261 C  
HETATM    3  O   UNL     1     -10.562  15.587  65.614  1.00  0.00    -0.327 OA 
HETATM    4  C   UNL     1     -10.067  15.534  67.993  1.00  0.00    -0.223 C  
ENDROOT
BRANCH   4   5
HETATM    5  C   UNL     1     -11.288  14.633  68.182  1.00  0.00    -0.321 C  
BRANCH   5   6
HETATM    6  C   UNL     1     -10.923  13.218  68.648  1.00  0.00    -0.294 C  
BRANCH   6   7
HETATM    7  C   UNL     1     -10.736  12.229  67.489  1.00  0.00    -0.255 C  
BRANCH   7   8
HETATM    8  C   UNL     1      -9.324  12.252  66.876  1.00  0.00    -0.210 C  
HETATM    9  C   UNL     1      -8.998  10.963  66.108  1.00  0.00    -0.196 C  
HETATM   10  C   UNL     1      -8.789   9.781  67.054  1.00  0.00    -0.135 C  
HETATM   11  S   UNL     1      -7.797  10.350  68.458  1.00  0.00    -0.114 SA 
HETATM   12  S   UNL     1      -8.012  12.363  68.136  1.00  0.00    -0.160 SA 
ENDBRANCH   7   8
ENDBRANCH   6   7
ENDBRANCH   5   6
ENDBRANCH   4   5
TORSDOF 4
ENDMDL
MODEL      189
REMARK 921   NORMALIZED FREE ENERGY PREDICTED BY IDOCK:   -2.08 KCAL/MOL
REMARK 922        TOTAL FREE ENERGY PREDICTED BY IDOCK:   -3.07 KCAL/MOL
REMARK 923 INTER-LIGAND FREE ENERGY PREDICTED BY IDOCK:   -2.85 KCAL/MOL
REMARK 924 INTRA-LIGAND FREE ENERGY PREDICTED BY IDOCK:   -0.22 KCAL/MOL
REMARK 927      BINDING AFFINITY PREDICTED BY RF-SCORE:    0.00 PKD
ROOT
HETATM    1  O   UNL     1      -8.920   6.608  70.379  1.00  0.00    -0.150 OA 
HETATM    2  C   UNL     1      -8.765   7.872  69.920  1.00  0.00    -0.140 C  
HETATM    3  O   UNL     1      -7.722   8.491  70.048  1.00  0.00    -0.081 OA 
HETATM    4  C   UNL     1     -10.022   8.397  69.268  1.00  0.00    -0.195 C  
ENDROOT
BRANCH   4   5
HETATM    5  C   UNL     1      -9.867   9.838  68.777  1.00  0.00    -0.176 C  
BRANCH   5   6
HETATM    6  C   UNL     1     -10.135   9.992  67.275  1.00  0.00    -0.259 C  
BRANCH   6   7
HETATM    7  C   UNL     1     -10.856  11.301  66.922  1.00  0.00    -0.333 C  
BRANCH   7   8
HETATM    8  C   UNL     1     -10.579  12.448  67.908  1.00  0.00    -0.213 C  
HETATM    9  C   UNL     1     -11.831  13.289  68.196  1.00  0.00    -0.388 C  
HETATM   10  C   UNL     1     -12.223  14.147  66.993  1.00  0.00    -0.339 C  
HETATM   11  S   UNL     1     -10.713  14.864  66.295  1.00  0.00    -0.327 SA 
HETATM   12  S   UNL     1      -9.373  13.654  67.265  1.00  0.00    -0.243 SA 
ENDBRANCH   7   8
ENDBRANCH   6   7
ENDBRANCH   5   6
ENDBRANCH   4   5
TORSDOF 4
ENDMDL
MODEL      190
REMARK 921   NORMALIZED FREE ENERGY PREDICTED BY IDOCK:   -2.06 KCAL/MOL
REMARK 922        TOTAL FREE ENERGY PREDICTED BY IDOCK:   -3.05 KCAL/MOL
REMARK 923 INTER-LIGAND FREE ENERGY PREDICTED BY IDOCK:   -2.69 KCAL/MOL
REMARK 924 INTRA-LIGAND FREE ENERGY PREDICTED BY IDOCK:   -0.36 KCAL/MOL
REMARK 927      BINDING AFFINITY PREDICTED BY RF-SCORE:    0.00 PKD
ROOT
HETATM    1  O   UNL     1     -11.696   1.979  73.639  1.00  0.00    -0.218 OA 
HETATM    2  C   UNL     1     -10.583   2.628  73.223  1.00  0.00    -0.164 C  
HETATM    3  O   UNL     1     -10.080   3.539  73.859  1.00  0.00    -0.115 OA 
HETATM    4  C   UNL     1     -10.082   2.102  71.899  1.00  0.00    -0.194 C  
ENDROOT
BRANCH   4   5
HETATM    5  C   UNL     1      -8.846   2.853  71.402  1.00  0.00    -0.134 C  
BRANCH   5   6
HETATM    6  C   UNL     1      -9.153   3.816  70.248  1.00  0.00    -0.193 C  
BRANCH   6   7
HETATM    7  C   UNL     1      -9.442   5.249  70.718  1.00  0.00    -0.221 C  
BRANCH   7   8
HETATM    8  C   UNL     1     -10.936   5.616  70.705  1.00  0.00    -0.187 C  
HETATM    9  C   UNL     1     -11.267   6.691  69.660  1.00  0.00    -0.397 C  
HETATM   10  C   UNL     1     -10.725   8.060  70.069  1.00  0.00    -0.244 C  
HETATM   11  S   UNL     1     -11.053   8.292  71.836  1.00  0.00    -0.316 SA 
HETATM   12  S   UNL     1     -11.496   6.341  72.280  1.00  0.00    -0.304 SA 
ENDBRANCH   7   8
ENDBRANCH   6   7
ENDBRANCH   5   6
ENDBRANCH   4   5
TORSDOF 4
ENDMDL
MODEL      191
REMARK 921   NORMALIZED FREE ENERGY PREDICTED BY IDOCK:   -2.06 KCAL/MOL
REMARK 922        TOTAL FREE ENERGY PREDICTED BY IDOCK:   -3.05 KCAL/MOL
REMARK 923 INTER-LIGAND FREE ENERGY PREDICTED BY IDOCK:   -2.82 KCAL/MOL
REMARK 924 INTRA-LIGAND FREE ENERGY PREDICTED BY IDOCK:   -0.22 KCAL/MOL
REMARK 927      BINDING AFFINITY PREDICTED BY RF-SCORE:    0.00 PKD
ROOT
HETATM    1  O   UNL     1      -9.476   5.680  69.289  1.00  0.00    -0.124 OA 
HETATM    2  C   UNL     1     -10.005   6.292  70.374  1.00  0.00    -0.178 C  
HETATM    3  O   UNL     1      -9.699   5.983  71.514  1.00  0.00    -0.163 OA 
HETATM    4  C   UNL     1     -11.007   7.356  69.993  1.00  0.00    -0.264 C  
ENDROOT
BRANCH   4   5
HETATM    5  C   UNL     1     -11.638   8.028  71.214  1.00  0.00    -0.306 C  
BRANCH   5   6
HETATM    6  C   UNL     1     -11.302   9.520  71.317  1.00  0.00    -0.446 C  
BRANCH   6   7
HETATM    7  C   UNL     1     -11.750  10.328  70.091  1.00  0.00    -0.364 C  
BRANCH   7   8
HETATM    8  C   UNL     1     -10.677  11.292  69.557  1.00  0.00    -0.095 C  
HETATM    9  C   UNL     1     -11.284  12.488  68.808  1.00  0.00    -0.318 C  
HETATM   10  C   UNL     1     -11.870  12.070  67.460  1.00  0.00    -0.205 C  
HETATM   11  S   UNL     1     -10.713  10.920  66.673  1.00  0.00    -0.194 SA 
HETATM   12  S   UNL     1      -9.577  10.513  68.330  1.00  0.00    -0.166 SA 
ENDBRANCH   7   8
ENDBRANCH   6   7
ENDBRANCH   5   6
ENDBRANCH   4   5
TORSDOF 4
ENDMDL
MODEL      192
REMARK 921   NORMALIZED FREE ENERGY PREDICTED BY IDOCK:   -2.05 KCAL/MOL
REMARK 922        TOTAL FREE ENERGY PREDICTED BY IDOCK:   -3.04 KCAL/MOL
REMARK 923 INTER-LIGAND FREE ENERGY PREDICTED BY IDOCK:   -2.72 KCAL/MOL
REMARK 924 INTRA-LIGAND FREE ENERGY PREDICTED BY IDOCK:   -0.31 KCAL/MOL
REMARK 927      BINDING AFFINITY PREDICTED BY RF-SCORE:    0.00 PKD
ROOT
HETATM    1  O   UNL     1     -10.433   6.884  68.284  1.00  0.00    -0.183 OA 
HETATM    2  C   UNL     1     -10.846   7.436  69.449  1.00  0.00    -0.171 C  
HETATM    3  O   UNL     1     -10.537   8.569  69.782  1.00  0.00    -0.222 OA 
HETATM    4  C   UNL     1     -11.694   6.485  70.259  1.00  0.00    -0.430 C  
ENDROOT
BRANCH   4   5
HETATM    5  C   UNL     1     -12.135   7.088  71.594  1.00  0.00    -0.384 C  
BRANCH   5   6
HETATM    6  C   UNL     1     -11.385   6.500  72.795  1.00  0.00    -0.221 C  
BRANCH   6   7
HETATM    7  C   UNL     1     -11.656   5.003  73.003  1.00  0.00    -0.299 C  
BRANCH   7   8
HETATM    8  C   UNL     1     -10.514   4.260  73.719  1.00  0.00    -0.212 C  
HETATM    9  C   UNL     1      -9.174   4.392  72.980  1.00  0.00    -0.132 C  
HETATM   10  C   UNL     1      -9.163   3.581  71.685  1.00  0.00    -0.123 C  
HETATM   11  S   UNL     1      -9.932   1.975  72.017  1.00  0.00    -0.146 SA 
HETATM   12  S   UNL     1     -10.794   2.461  73.812  1.00  0.00    -0.200 SA 
ENDBRANCH   7   8
ENDBRANCH   6   7
ENDBRANCH   5   6
ENDBRANCH   4   5
TORSDOF 4
ENDMDL
MODEL      193
REMARK 921   NORMALIZED FREE ENERGY PREDICTED BY IDOCK:   -2.02 KCAL/MOL
REMARK 922        TOTAL FREE ENERGY PREDICTED BY IDOCK:   -3.00 KCAL/MOL
REMARK 923 INTER-LIGAND FREE ENERGY PREDICTED BY IDOCK:   -2.80 KCAL/MOL
REMARK 924 INTRA-LIGAND FREE ENERGY PREDICTED BY IDOCK:   -0.20 KCAL/MOL
REMARK 927      BINDING AFFINITY PREDICTED BY RF-SCORE:    0.00 PKD
ROOT
HETATM    1  O   UNL     1      -6.570   7.834  62.837  1.00  0.00    -0.073 OA 
HETATM    2  C   UNL     1      -6.856   8.782  63.759  1.00  0.00    -0.088 C  
HETATM    3  O   UNL     1      -5.989   9.417  64.336  1.00  0.00    -0.072 OA 
HETATM    4  C   UNL     1      -8.343   8.926  63.982  1.00  0.00    -0.168 C  
ENDROOT
BRANCH   4   5
HETATM    5  C   UNL     1      -8.675   9.970  65.049  1.00  0.00    -0.192 C  
BRANCH   5   6
HETATM    6  C   UNL     1      -9.893  10.830  64.688  1.00  0.00    -0.366 C  
BRANCH   6   7
HETATM    7  C   UNL     1     -10.708  11.266  65.914  1.00  0.00    -0.291 C  
BRANCH   7   8
HETATM    8  C   UNL     1     -10.413  12.704  66.375  1.00  0.00    -0.249 C  
HETATM    9  C   UNL     1     -11.641  13.383  67.002  1.00  0.00    -0.396 C  
HETATM   10  C   UNL     1     -12.696  13.720  65.949  1.00  0.00    -0.401 C  
HETATM   11  S   UNL     1     -11.850  14.396  64.497  1.00  0.00    -0.435 SA 
HETATM   12  S   UNL     1      -9.953  13.805  64.998  1.00  0.00    -0.071 SA 
ENDBRANCH   7   8
ENDBRANCH   6   7
ENDBRANCH   5   6
ENDBRANCH   4   5
TORSDOF 4
ENDMDL
MODEL      194
REMARK 921   NORMALIZED FREE ENERGY PREDICTED BY IDOCK:   -2.00 KCAL/MOL
REMARK 922        TOTAL FREE ENERGY PREDICTED BY IDOCK:   -2.98 KCAL/MOL
REMARK 923 INTER-LIGAND FREE ENERGY PREDICTED BY IDOCK:   -2.82 KCAL/MOL
REMARK 924 INTRA-LIGAND FREE ENERGY PREDICTED BY IDOCK:   -0.16 KCAL/MOL
REMARK 927      BINDING AFFINITY PREDICTED BY RF-SCORE:    0.00 PKD
ROOT
HETATM    1  O   UNL     1     -12.199  12.542  66.636  1.00  0.00    -0.552 OA 
HETATM    2  C   UNL     1     -11.697  12.249  67.859  1.00  0.00    -0.347 C  
HETATM    3  O   UNL     1     -11.319  13.111  68.635  1.00  0.00    -0.251 OA 
HETATM    4  C   UNL     1     -11.654  10.761  68.112  1.00  0.00    -0.276 C  
ENDROOT
BRANCH   4   5
HETATM    5  C   UNL     1     -11.055  10.418  69.477  1.00  0.00    -0.314 C  
BRANCH   5   6
HETATM    6  C   UNL     1      -9.628   9.863  69.384  1.00  0.00    -0.229 C  
BRANCH   6   7
HETATM    7  C   UNL     1      -9.048   9.457  70.746  1.00  0.00    -0.268 C  
BRANCH   7   8
HETATM    8  C   UNL     1      -8.412   8.056  70.757  1.00  0.00    -0.124 C  
HETATM    9  C   UNL     1      -9.077   7.119  71.776  1.00  0.00    -0.146 C  
HETATM   10  C   UNL     1      -8.730   7.510  73.212  1.00  0.00    -0.165 C  
HETATM   11  S   UNL     1      -6.965   7.916  73.276  1.00  0.00    -0.102 SA 
HETATM   12  S   UNL     1      -6.659   8.082  71.256  1.00  0.00    -0.045 SA 
ENDBRANCH   7   8
ENDBRANCH   6   7
ENDBRANCH   5   6
ENDBRANCH   4   5
TORSDOF 4
ENDMDL
MODEL      195
REMARK 921   NORMALIZED FREE ENERGY PREDICTED BY IDOCK:   -1.96 KCAL/MOL
REMARK 922        TOTAL FREE ENERGY PREDICTED BY IDOCK:   -2.92 KCAL/MOL
REMARK 923 INTER-LIGAND FREE ENERGY PREDICTED BY IDOCK:   -2.63 KCAL/MOL
REMARK 924 INTRA-LIGAND FREE ENERGY PREDICTED BY IDOCK:   -0.29 KCAL/MOL
REMARK 927      BINDING AFFINITY PREDICTED BY RF-SCORE:    0.00 PKD
ROOT
HETATM    1  O   UNL     1      -7.259  11.597  67.201  1.00  0.00    -0.127 OA 
HETATM    2  C   UNL     1      -7.330  11.378  68.535  1.00  0.00    -0.105 C  
HETATM    3  O   UNL     1      -7.275  12.283  69.350  1.00  0.00     0.043 OA 
HETATM    4  C   UNL     1      -7.462   9.909  68.861  1.00  0.00    -0.081 C  
ENDROOT
BRANCH   4   5
HETATM    5  C   UNL     1      -7.507   9.649  70.368  1.00  0.00    -0.168 C  
BRANCH   5   6
HETATM    6  C   UNL     1      -8.534   8.580  70.762  1.00  0.00    -0.166 C  
BRANCH   6   7
HETATM    7  C   UNL     1      -9.796   9.165  71.412  1.00  0.00    -0.354 C  
BRANCH   7   8
HETATM    8  C   UNL     1     -11.076   8.950  70.586  1.00  0.00    -0.262 C  
HETATM    9  C   UNL     1     -11.358  10.117  69.628  1.00  0.00    -0.289 C  
HETATM   10  C   UNL     1     -11.811  11.367  70.381  1.00  0.00    -0.335 C  
HETATM   11  S   UNL     1     -12.985  10.860  71.663  1.00  0.00    -0.417 SA 
HETATM   12  S   UNL     1     -12.573   8.853  71.620  1.00  0.00    -0.365 SA 
ENDBRANCH   7   8
ENDBRANCH   6   7
ENDBRANCH   5   6
ENDBRANCH   4   5
TORSDOF 4
ENDMDL
MODEL      196
REMARK 921   NORMALIZED FREE ENERGY PREDICTED BY IDOCK:   -1.95 KCAL/MOL
REMARK 922        TOTAL FREE ENERGY PREDICTED BY IDOCK:   -2.92 KCAL/MOL
REMARK 923 INTER-LIGAND FREE ENERGY PREDICTED BY IDOCK:   -2.59 KCAL/MOL
REMARK 924 INTRA-LIGAND FREE ENERGY PREDICTED BY IDOCK:   -0.33 KCAL/MOL
REMARK 927      BINDING AFFINITY PREDICTED BY RF-SCORE:    0.00 PKD
ROOT
HETATM    1  O   UNL     1      -9.478   2.897  72.997  1.00  0.00    -0.089 OA 
HETATM    2  C   UNL     1      -8.963   3.959  72.334  1.00  0.00    -0.109 C  
HETATM    3  O   UNL     1      -8.242   4.781  72.875  1.00  0.00    -0.100 OA 
HETATM    4  C   UNL     1      -9.404   3.995  70.890  1.00  0.00    -0.221 C  
ENDROOT
BRANCH   4   5
HETATM    5  C   UNL     1      -8.855   5.211  70.142  1.00  0.00    -0.139 C  
BRANCH   5   6
HETATM    6  C   UNL     1      -9.804   6.415  70.177  1.00  0.00    -0.191 C  
BRANCH   6   7
HETATM    7  C   UNL     1     -11.281   6.017  70.314  1.00  0.00    -0.392 C  
BRANCH   7   8
HETATM    8  C   UNL     1     -11.863   6.266  71.717  1.00  0.00    -0.286 C  
HETATM    9  C   UNL     1     -13.260   6.902  71.667  1.00  0.00    -0.315 C  
HETATM   10  C   UNL     1     -13.198   8.360  71.212  1.00  0.00    -0.130 C  
HETATM   11  S   UNL     1     -11.800   9.154  72.045  1.00  0.00    -0.280 SA 
HETATM   12  S   UNL     1     -10.872   7.445  72.691  1.00  0.00    -0.334 SA 
ENDBRANCH   7   8
ENDBRANCH   6   7
ENDBRANCH   5   6
ENDBRANCH   4   5
TORSDOF 4
ENDMDL
MODEL      197
REMARK 921   NORMALIZED FREE ENERGY PREDICTED BY IDOCK:   -1.95 KCAL/MOL
REMARK 922        TOTAL FREE ENERGY PREDICTED BY IDOCK:   -2.92 KCAL/MOL
REMARK 923 INTER-LIGAND FREE ENERGY PREDICTED BY IDOCK:   -2.77 KCAL/MOL
REMARK 924 INTRA-LIGAND FREE ENERGY PREDICTED BY IDOCK:   -0.14 KCAL/MOL
REMARK 927      BINDING AFFINITY PREDICTED BY RF-SCORE:    0.00 PKD
ROOT
HETATM    1  O   UNL     1      -6.993   8.076  64.567  1.00  0.00    -0.068 OA 
HETATM    2  C   UNL     1      -7.481   9.316  64.803  1.00  0.00    -0.104 C  
HETATM    3  O   UNL     1      -6.762  10.298  64.881  1.00  0.00    -0.127 OA 
HETATM    4  C   UNL     1      -8.982   9.312  64.972  1.00  0.00    -0.245 C  
ENDROOT
BRANCH   4   5
HETATM    5  C   UNL     1      -9.539  10.704  65.276  1.00  0.00    -0.293 C  
BRANCH   5   6
HETATM    6  C   UNL     1     -10.404  10.741  66.541  1.00  0.00    -0.300 C  
BRANCH   6   7
HETATM    7  C   UNL     1     -10.919  12.148  66.881  1.00  0.00    -0.317 C  
BRANCH   7   8
HETATM    8  C   UNL     1     -10.297  12.744  68.156  1.00  0.00    -0.239 C  
HETATM    9  C   UNL     1     -11.346  13.030  69.241  1.00  0.00    -0.310 C  
HETATM   10  C   UNL     1     -12.230  14.220  68.870  1.00  0.00    -0.205 C  
HETATM   11  S   UNL     1     -11.171  15.518  68.180  1.00  0.00    -0.345 SA 
HETATM   12  S   UNL     1      -9.508  14.361  67.865  1.00  0.00    -0.221 SA 
ENDBRANCH   7   8
ENDBRANCH   6   7
ENDBRANCH   5   6
ENDBRANCH   4   5
TORSDOF 4
ENDMDL
MODEL      198
REMARK 921   NORMALIZED FREE ENERGY PREDICTED BY IDOCK:   -1.94 KCAL/MOL
REMARK 922        TOTAL FREE ENERGY PREDICTED BY IDOCK:   -2.90 KCAL/MOL
REMARK 923 INTER-LIGAND FREE ENERGY PREDICTED BY IDOCK:   -2.48 KCAL/MOL
REMARK 924 INTRA-LIGAND FREE ENERGY PREDICTED BY IDOCK:   -0.42 KCAL/MOL
REMARK 927      BINDING AFFINITY PREDICTED BY RF-SCORE:    0.00 PKD
ROOT
HETATM    1  O   UNL     1     -10.036   2.923  74.502  1.00  0.00    -0.112 OA 
HETATM    2  C   UNL     1      -9.088   3.675  73.895  1.00  0.00    -0.090 C  
HETATM    3  O   UNL     1      -7.898   3.534  74.120  1.00  0.00    -0.065 OA 
HETATM    4  C   UNL     1      -9.688   4.690  72.951  1.00  0.00    -0.168 C  
ENDROOT
BRANCH   4   5
HETATM    5  C   UNL     1      -8.627   5.569  72.287  1.00  0.00    -0.126 C  
BRANCH   5   6
HETATM    6  C   UNL     1      -8.631   7.011  72.809  1.00  0.00    -0.131 C  
BRANCH   6   7
HETATM    7  C   UNL     1     -10.013   7.475  73.292  1.00  0.00    -0.368 C  
BRANCH   7   8
HETATM    8  C   UNL     1     -10.637   8.577  72.419  1.00  0.00    -0.298 C  
HETATM    9  C   UNL     1     -12.106   8.288  72.072  1.00  0.00    -0.402 C  
HETATM   10  C   UNL     1     -12.232   7.140  71.071  1.00  0.00    -0.343 C  
HETATM   11  S   UNL     1     -10.960   7.357  69.800  1.00  0.00    -0.152 SA 
HETATM   12  S   UNL     1      -9.821   8.739  70.798  1.00  0.00    -0.224 SA 
ENDBRANCH   7   8
ENDBRANCH   6   7
ENDBRANCH   5   6
ENDBRANCH   4   5
TORSDOF 4
ENDMDL
MODEL      199
REMARK 921   NORMALIZED FREE ENERGY PREDICTED BY IDOCK:   -1.92 KCAL/MOL
REMARK 922        TOTAL FREE ENERGY PREDICTED BY IDOCK:   -2.88 KCAL/MOL
REMARK 923 INTER-LIGAND FREE ENERGY PREDICTED BY IDOCK:   -2.41 KCAL/MOL
REMARK 924 INTRA-LIGAND FREE ENERGY PREDICTED BY IDOCK:   -0.47 KCAL/MOL
REMARK 927      BINDING AFFINITY PREDICTED BY RF-SCORE:    0.00 PKD
ROOT
HETATM    1  O   UNL     1     -10.668   6.745  69.172  1.00  0.00    -0.223 OA 
HETATM    2  C   UNL     1     -10.479   6.841  67.835  1.00  0.00    -0.218 C  
HETATM    3  O   UNL     1     -11.400   6.774  67.039  1.00  0.00    -0.337 OA 
HETATM    4  C   UNL     1      -9.022   7.016  67.479  1.00  0.00    -0.117 C  
ENDROOT
BRANCH   4   5
HETATM    5  C   UNL     1      -8.795   7.089  65.968  1.00  0.00    -0.155 C  
BRANCH   5   6
HETATM    6  C   UNL     1      -8.783   8.525  65.432  1.00  0.00    -0.194 C  
BRANCH   6   7
HETATM    7  C   UNL     1      -7.912   9.475  66.268  1.00  0.00    -0.107 C  
BRANCH   7   8
HETATM    8  C   UNL     1      -8.469  10.906  66.361  1.00  0.00    -0.163 C  
HETATM    9  C   UNL     1      -8.409  11.466  67.791  1.00  0.00    -0.127 C  
HETATM   10  C   UNL     1      -9.431  10.790  68.704  1.00  0.00    -0.188 C  
HETATM   11  S   UNL     1     -10.987  10.631  67.790  1.00  0.00    -0.320 SA 
HETATM   12  S   UNL     1     -10.235  11.005  65.920  1.00  0.00    -0.258 SA 
ENDBRANCH   7   8
ENDBRANCH   6   7
ENDBRANCH   5   6
ENDBRANCH   4   5
TORSDOF 4
ENDMDL
MODEL      200
REMARK 921   NORMALIZED FREE ENERGY PREDICTED BY IDOCK:   -1.92 KCAL/MOL
REMARK 922        TOTAL FREE ENERGY PREDICTED BY IDOCK:   -2.87 KCAL/MOL
REMARK 923 INTER-LIGAND FREE ENERGY PREDICTED BY IDOCK:   -2.75 KCAL/MOL
REMARK 924 INTRA-LIGAND FREE ENERGY PREDICTED BY IDOCK:   -0.12 KCAL/MOL
REMARK 927      BINDING AFFINITY PREDICTED BY RF-SCORE:    0.00 PKD
ROOT
HETATM    1  O   UNL     1      -9.837   9.147  71.593  1.00  0.00    -0.305 OA 
HETATM    2  C   UNL     1     -10.725   9.476  70.626  1.00  0.00    -0.309 C  
HETATM    3  O   UNL     1     -11.914   9.624  70.852  1.00  0.00    -0.285 OA 
HETATM    4  C   UNL     1     -10.066   9.610  69.273  1.00  0.00    -0.201 C  
ENDROOT
BRANCH   4   5
HETATM    5  C   UNL     1     -11.067   9.947  68.167  1.00  0.00    -0.215 C  
BRANCH   5   6
HETATM    6  C   UNL     1     -10.450  10.774  67.032  1.00  0.00    -0.297 C  
BRANCH   6   7
HETATM    7  C   UNL     1      -9.840   9.911  65.918  1.00  0.00    -0.342 C  
BRANCH   7   8
HETATM    8  C   UNL     1      -8.686  10.596  65.165  1.00  0.00    -0.186 C  
HETATM    9  C   UNL     1      -8.797  10.426  63.643  1.00  0.00    -0.222 C  
HETATM   10  C   UNL     1      -8.496   8.991  63.213  1.00  0.00    -0.177 C  
HETATM   11  S   UNL     1      -7.059   8.409  64.151  1.00  0.00    -0.085 SA 
HETATM   12  S   UNL     1      -7.058   9.885  65.573  1.00  0.00    -0.125 SA 
ENDBRANCH   7   8
ENDBRANCH   6   7
ENDBRANCH   5   6
ENDBRANCH   4   5
TORSDOF 4
ENDMDL
MODEL      201
REMARK 921   NORMALIZED FREE ENERGY PREDICTED BY IDOCK:   -1.91 KCAL/MOL
REMARK 922        TOTAL FREE ENERGY PREDICTED BY IDOCK:   -2.87 KCAL/MOL
REMARK 923 INTER-LIGAND FREE ENERGY PREDICTED BY IDOCK:   -2.48 KCAL/MOL
REMARK 924 INTRA-LIGAND FREE ENERGY PREDICTED BY IDOCK:   -0.39 KCAL/MOL
REMARK 927      BINDING AFFINITY PREDICTED BY RF-SCORE:    0.00 PKD
ROOT
HETATM    1  O   UNL     1      -5.713  11.562  66.680  1.00  0.00    -0.130 OA 
HETATM    2  C   UNL     1      -6.494  10.949  67.599  1.00  0.00    -0.056 C  
HETATM    3  O   UNL     1      -6.142   9.941  68.189  1.00  0.00    -0.049 OA 
HETATM    4  C   UNL     1      -7.821  11.648  67.773  1.00  0.00    -0.129 C  
ENDROOT
BRANCH   4   5
HETATM    5  C   UNL     1      -8.726  10.941  68.784  1.00  0.00    -0.158 C  
BRANCH   5   6
HETATM    6  C   UNL     1     -10.189  10.869  68.333  1.00  0.00    -0.193 C  
BRANCH   6   7
HETATM    7  C   UNL     1     -10.405  11.375  66.899  1.00  0.00    -0.262 C  
BRANCH   7   8
HETATM    8  C   UNL     1     -11.371  12.568  66.801  1.00  0.00    -0.334 C  
HETATM    9  C   UNL     1     -10.781  13.736  65.996  1.00  0.00    -0.284 C  
HETATM   10  C   UNL     1      -9.664  14.441  66.764  1.00  0.00    -0.270 C  
HETATM   11  S   UNL     1     -10.190  14.621  68.488  1.00  0.00    -0.245 SA 
HETATM   12  S   UNL     1     -11.755  13.299  68.426  1.00  0.00    -0.367 SA 
ENDBRANCH   7   8
ENDBRANCH   6   7
ENDBRANCH   5   6
ENDBRANCH   4   5
TORSDOF 4
ENDMDL
MODEL      202
REMARK 921   NORMALIZED FREE ENERGY PREDICTED BY IDOCK:   -1.90 KCAL/MOL
REMARK 922        TOTAL FREE ENERGY PREDICTED BY IDOCK:   -2.85 KCAL/MOL
REMARK 923 INTER-LIGAND FREE ENERGY PREDICTED BY IDOCK:   -2.48 KCAL/MOL
REMARK 924 INTRA-LIGAND FREE ENERGY PREDICTED BY IDOCK:   -0.37 KCAL/MOL
REMARK 927      BINDING AFFINITY PREDICTED BY RF-SCORE:    0.00 PKD
ROOT
HETATM    1  O   UNL     1      -7.339   3.531  69.957  1.00  0.00    -0.041 OA 
HETATM    2  C   UNL     1      -7.819   4.203  71.030  1.00  0.00    -0.063 C  
HETATM    3  O   UNL     1      -7.341   5.260  71.407  1.00  0.00    -0.080 OA 
HETATM    4  C   UNL     1      -8.972   3.479  71.684  1.00  0.00    -0.158 C  
ENDROOT
BRANCH   4   5
HETATM    5  C   UNL     1      -9.497   4.214  72.919  1.00  0.00    -0.153 C  
BRANCH   5   6
HETATM    6  C   UNL     1     -10.900   4.798  72.718  1.00  0.00    -0.280 C  
BRANCH   6   7
HETATM    7  C   UNL     1     -10.940   5.934  71.685  1.00  0.00    -0.327 C  
BRANCH   7   8
HETATM    8  C   UNL     1     -10.207   7.209  72.137  1.00  0.00    -0.186 C  
HETATM    9  C   UNL     1     -11.147   8.214  72.820  1.00  0.00    -0.407 C  
HETATM   10  C   UNL     1     -12.094   8.870  71.816  1.00  0.00    -0.362 C  
HETATM   11  S   UNL     1     -11.145   9.285  70.330  1.00  0.00    -0.261 SA 
HETATM   12  S   UNL     1      -9.494   8.143  70.744  1.00  0.00    -0.165 SA 
ENDBRANCH   7   8
ENDBRANCH   6   7
ENDBRANCH   5   6
ENDBRANCH   4   5
TORSDOF 4
ENDMDL
MODEL      203
REMARK 921   NORMALIZED FREE ENERGY PREDICTED BY IDOCK:   -1.89 KCAL/MOL
REMARK 922        TOTAL FREE ENERGY PREDICTED BY IDOCK:   -2.84 KCAL/MOL
REMARK 923 INTER-LIGAND FREE ENERGY PREDICTED BY IDOCK:   -3.01 KCAL/MOL
REMARK 924 INTRA-LIGAND FREE ENERGY PREDICTED BY IDOCK:    0.16 KCAL/MOL
REMARK 927      BINDING AFFINITY PREDICTED BY RF-SCORE:    0.00 PKD
ROOT
HETATM    1  O   UNL     1      -8.403   8.708  65.655  1.00  0.00    -0.127 OA 
HETATM    2  C   UNL     1      -9.016   7.616  66.171  1.00  0.00    -0.161 C  
HETATM    3  O   UNL     1      -8.452   6.540  66.281  1.00  0.00    -0.118 OA 
HETATM    4  C   UNL     1     -10.448   7.900  66.558  1.00  0.00    -0.014 C  
ENDROOT
BRANCH   4   5
HETATM    5  C   UNL     1     -11.159   6.662  67.108  1.00  0.00    -0.427 C  
BRANCH   5   6
HETATM    6  C   UNL     1     -10.471   6.075  68.346  1.00  0.00    -0.290 C  
BRANCH   6   7
HETATM    7  C   UNL     1     -11.081   6.566  69.667  1.00  0.00    -0.435 C  
BRANCH   7   8
HETATM    8  C   UNL     1     -10.291   7.708  70.329  1.00  0.00    -0.214 C  
HETATM    9  C   UNL     1     -10.361   7.657  71.862  1.00  0.00    -0.240 C  
HETATM   10  C   UNL     1     -11.747   8.045  72.376  1.00  0.00    -0.386 C  
HETATM   11  S   UNL     1     -12.321   9.477  71.427  1.00  0.00    -0.387 SA 
HETATM   12  S   UNL     1     -10.949   9.355  69.909  1.00  0.00    -0.205 SA 
ENDBRANCH   7   8
ENDBRANCH   6   7
ENDBRANCH   5   6
ENDBRANCH   4   5
TORSDOF 4
ENDMDL
MODEL      204
REMARK 921   NORMALIZED FREE ENERGY PREDICTED BY IDOCK:   -1.89 KCAL/MOL
REMARK 922        TOTAL FREE ENERGY PREDICTED BY IDOCK:   -2.84 KCAL/MOL
REMARK 923 INTER-LIGAND FREE ENERGY PREDICTED BY IDOCK:   -2.65 KCAL/MOL
REMARK 924 INTRA-LIGAND FREE ENERGY PREDICTED BY IDOCK:   -0.19 KCAL/MOL
REMARK 927      BINDING AFFINITY PREDICTED BY RF-SCORE:    0.00 PKD
ROOT
HETATM    1  O   UNL     1      -9.195   3.404  63.121  1.00  0.00    -0.092 OA 
HETATM    2  C   UNL     1      -9.044   3.421  64.466  1.00  0.00    -0.130 C  
HETATM    3  O   UNL     1      -8.255   2.693  65.045  1.00  0.00    -0.085 OA 
HETATM    4  C   UNL     1      -9.968   4.417  65.127  1.00  0.00    -0.191 C  
ENDROOT
BRANCH   4   5
HETATM    5  C   UNL     1      -9.829   4.418  66.651  1.00  0.00    -0.246 C  
BRANCH   5   6
HETATM    6  C   UNL     1      -9.721   5.828  67.242  1.00  0.00    -0.140 C  
BRANCH   6   7
HETATM    7  C   UNL     1     -10.932   6.217  68.103  1.00  0.00    -0.412 C  
BRANCH   7   8
HETATM    8  C   UNL     1     -10.844   5.720  69.557  1.00  0.00    -0.340 C  
HETATM    9  C   UNL     1     -11.764   6.507  70.502  1.00  0.00    -0.438 C  
HETATM   10  C   UNL     1     -11.247   7.925  70.740  1.00  0.00    -0.266 C  
HETATM   11  S   UNL     1      -9.454   7.839  70.983  1.00  0.00    -0.155 SA 
HETATM   12  S   UNL     1      -9.182   5.935  70.275  1.00  0.00    -0.155 SA 
ENDBRANCH   7   8
ENDBRANCH   6   7
ENDBRANCH   5   6
ENDBRANCH   4   5
TORSDOF 4
ENDMDL
MODEL      205
REMARK 921   NORMALIZED FREE ENERGY PREDICTED BY IDOCK:   -1.89 KCAL/MOL
REMARK 922        TOTAL FREE ENERGY PREDICTED BY IDOCK:   -2.84 KCAL/MOL
REMARK 923 INTER-LIGAND FREE ENERGY PREDICTED BY IDOCK:   -2.47 KCAL/MOL
REMARK 924 INTRA-LIGAND FREE ENERGY PREDICTED BY IDOCK:   -0.37 KCAL/MOL
REMARK 927      BINDING AFFINITY PREDICTED BY RF-SCORE:    0.00 PKD
ROOT
HETATM    1  O   UNL     1     -10.011  10.927  68.272  1.00  0.00    -0.165 OA 
HETATM    2  C   UNL     1      -9.596   9.641  68.201  1.00  0.00    -0.143 C  
HETATM    3  O   UNL     1      -8.559   9.258  68.717  1.00  0.00    -0.127 OA 
HETATM    4  C   UNL     1     -10.550   8.780  67.407  1.00  0.00    -0.304 C  
ENDROOT
BRANCH   4   5
HETATM    5  C   UNL     1     -10.071   7.332  67.291  1.00  0.00    -0.291 C  
BRANCH   5   6
HETATM    6  C   UNL     1     -11.156   6.310  67.652  1.00  0.00    -0.368 C  
BRANCH   6   7
HETATM    7  C   UNL     1     -11.076   5.834  69.109  1.00  0.00    -0.218 C  
BRANCH   7   8
HETATM    8  C   UNL     1      -9.757   6.201  69.811  1.00  0.00    -0.157 C  
HETATM    9  C   UNL     1      -8.973   4.963  70.270  1.00  0.00    -0.147 C  
HETATM   10  C   UNL     1      -9.649   4.277  71.456  1.00  0.00    -0.165 C  
HETATM   11  S   UNL     1     -10.200   5.558  72.612  1.00  0.00    -0.195 SA 
HETATM   12  S   UNL     1     -10.015   7.156  71.341  1.00  0.00    -0.186 SA 
ENDBRANCH   7   8
ENDBRANCH   6   7
ENDBRANCH   5   6
ENDBRANCH   4   5
TORSDOF 4
ENDMDL
MODEL      206
REMARK 921   NORMALIZED FREE ENERGY PREDICTED BY IDOCK:   -1.88 KCAL/MOL
REMARK 922        TOTAL FREE ENERGY PREDICTED BY IDOCK:   -2.82 KCAL/MOL
REMARK 923 INTER-LIGAND FREE ENERGY PREDICTED BY IDOCK:   -2.51 KCAL/MOL
REMARK 924 INTRA-LIGAND FREE ENERGY PREDICTED BY IDOCK:   -0.32 KCAL/MOL
REMARK 927      BINDING AFFINITY PREDICTED BY RF-SCORE:    0.00 PKD
ROOT
HETATM    1  O   UNL     1      -8.724   8.572  72.948  1.00  0.00    -0.337 OA 
HETATM    2  C   UNL     1      -9.516   8.728  71.861  1.00  0.00    -0.292 C  
HETATM    3  O   UNL     1     -10.710   8.480  71.881  1.00  0.00    -0.272 OA 
HETATM    4  C   UNL     1      -8.741   9.215  70.660  1.00  0.00    -0.272 C  
ENDROOT
BRANCH   4   5
HETATM    5  C   UNL     1      -9.621   9.359  69.417  1.00  0.00    -0.177 C  
BRANCH   5   6
HETATM    6  C   UNL     1      -9.084   8.583  68.209  1.00  0.00    -0.138 C  
BRANCH   6   7
HETATM    7  C   UNL     1      -8.455   7.234  68.588  1.00  0.00    -0.129 C  
BRANCH   7   8
HETATM    8  C   UNL     1      -9.482   6.108  68.797  1.00  0.00    -0.121 C  
HETATM    9  C   UNL     1      -8.892   4.717  68.517  1.00  0.00    -0.119 C  
HETATM   10  C   UNL     1      -8.652   4.498  67.024  1.00  0.00    -0.104 C  
HETATM   11  S   UNL     1     -10.084   5.144  66.120  1.00  0.00    -0.195 SA 
HETATM   12  S   UNL     1     -10.900   6.226  67.658  1.00  0.00    -0.349 SA 
ENDBRANCH   7   8
ENDBRANCH   6   7
ENDBRANCH   5   6
ENDBRANCH   4   5
TORSDOF 4
ENDMDL
MODEL      207
REMARK 921   NORMALIZED FREE ENERGY PREDICTED BY IDOCK:   -1.87 KCAL/MOL
REMARK 922        TOTAL FREE ENERGY PREDICTED BY IDOCK:   -2.81 KCAL/MOL
REMARK 923 INTER-LIGAND FREE ENERGY PREDICTED BY IDOCK:   -2.40 KCAL/MOL
REMARK 924 INTRA-LIGAND FREE ENERGY PREDICTED BY IDOCK:   -0.41 KCAL/MOL
REMARK 927      BINDING AFFINITY PREDICTED BY RF-SCORE:    0.00 PKD
ROOT
HETATM    1  O   UNL     1      -8.808  14.634  66.516  1.00  0.00    -0.238 OA 
HETATM    2  C   UNL     1      -8.397  14.115  67.697  1.00  0.00    -0.182 C  
HETATM    3  O   UNL     1      -8.585  14.680  68.761  1.00  0.00    -0.165 OA 
HETATM    4  C   UNL     1      -7.682  12.796  67.519  1.00  0.00    -0.168 C  
ENDROOT
BRANCH   4   5
HETATM    5  C   UNL     1      -7.182  12.220  68.845  1.00  0.00    -0.069 C  
BRANCH   5   6
HETATM    6  C   UNL     1      -7.675  10.790  69.101  1.00  0.00    -0.138 C  
BRANCH   6   7
HETATM    7  C   UNL     1      -8.335  10.149  67.872  1.00  0.00    -0.117 C  
BRANCH   7   8
HETATM    8  C   UNL     1      -9.626   9.377  68.193  1.00  0.00    -0.142 C  
HETATM    9  C   UNL     1     -10.776   9.737  67.240  1.00  0.00    -0.296 C  
HETATM   10  C   UNL     1     -11.309  11.144  67.507  1.00  0.00    -0.278 C  
HETATM   11  S   UNL     1     -11.429  11.373  69.300  1.00  0.00    -0.334 SA 
HETATM   12  S   UNL     1     -10.285   9.763  69.848  1.00  0.00    -0.270 SA 
ENDBRANCH   7   8
ENDBRANCH   6   7
ENDBRANCH   5   6
ENDBRANCH   4   5
TORSDOF 4
ENDMDL
MODEL      208
REMARK 921   NORMALIZED FREE ENERGY PREDICTED BY IDOCK:   -1.86 KCAL/MOL
REMARK 922        TOTAL FREE ENERGY PREDICTED BY IDOCK:   -2.80 KCAL/MOL
REMARK 923 INTER-LIGAND FREE ENERGY PREDICTED BY IDOCK:   -2.55 KCAL/MOL
REMARK 924 INTRA-LIGAND FREE ENERGY PREDICTED BY IDOCK:   -0.24 KCAL/MOL
REMARK 927      BINDING AFFINITY PREDICTED BY RF-SCORE:    0.00 PKD
ROOT
HETATM    1  O   UNL     1      -6.147   9.142  73.385  1.00  0.00    -0.295 OA 
HETATM    2  C   UNL     1      -6.964   8.076  73.548  1.00  0.00    -0.122 C  
HETATM    3  O   UNL     1      -6.710   7.171  74.326  1.00  0.00    -0.081 OA 
HETATM    4  C   UNL     1      -8.178   8.149  72.653  1.00  0.00    -0.227 C  
ENDROOT
BRANCH   4   5
HETATM    5  C   UNL     1      -9.089   6.929  72.804  1.00  0.00    -0.151 C  
BRANCH   5   6
HETATM    6  C   UNL     1      -8.834   5.855  71.740  1.00  0.00    -0.139 C  
BRANCH   6   7
HETATM    7  C   UNL     1      -9.003   6.373  70.305  1.00  0.00    -0.154 C  
BRANCH   7   8
HETATM    8  C   UNL     1     -10.352   7.069  70.052  1.00  0.00    -0.202 C  
HETATM    9  C   UNL     1     -11.322   6.190  69.248  1.00  0.00    -0.361 C  
HETATM   10  C   UNL     1     -10.886   6.057  67.790  1.00  0.00    -0.290 C  
HETATM   11  S   UNL     1     -10.347   7.687  67.210  1.00  0.00    -0.322 SA 
HETATM   12  S   UNL     1     -10.187   8.581  69.048  1.00  0.00    -0.208 SA 
ENDBRANCH   7   8
ENDBRANCH   6   7
ENDBRANCH   5   6
ENDBRANCH   4   5
TORSDOF 4
ENDMDL
MODEL      209
REMARK 921   NORMALIZED FREE ENERGY PREDICTED BY IDOCK:   -1.85 KCAL/MOL
REMARK 922        TOTAL FREE ENERGY PREDICTED BY IDOCK:   -2.79 KCAL/MOL
REMARK 923 INTER-LIGAND FREE ENERGY PREDICTED BY IDOCK:   -2.59 KCAL/MOL
REMARK 924 INTRA-LIGAND FREE ENERGY PREDICTED BY IDOCK:   -0.20 KCAL/MOL
REMARK 927      BINDING AFFINITY PREDICTED BY RF-SCORE:    0.00 PKD
ROOT
HETATM    1  O   UNL     1      -9.490   5.175  66.389  1.00  0.00    -0.137 OA 
HETATM    2  C   UNL     1      -9.966   5.112  67.654  1.00  0.00    -0.161 C  
HETATM    3  O   UNL     1      -9.720   4.178  68.400  1.00  0.00    -0.148 OA 
HETATM    4  C   UNL     1     -10.827   6.305  67.996  1.00  0.00    -0.409 C  
ENDROOT
BRANCH   4   5
HETATM    5  C   UNL     1     -11.399   6.224  69.413  1.00  0.00    -0.448 C  
BRANCH   5   6
HETATM    6  C   UNL     1     -10.462   6.817  70.472  1.00  0.00    -0.238 C  
BRANCH   6   7
HETATM    7  C   UNL     1     -10.709   6.254  71.880  1.00  0.00    -0.271 C  
BRANCH   7   8
HETATM    8  C   UNL     1      -9.470   6.300  72.791  1.00  0.00    -0.147 C  
HETATM    9  C   UNL     1      -8.421   5.244  72.408  1.00  0.00    -0.122 C  
HETATM   10  C   UNL     1      -8.885   3.833  72.767  1.00  0.00    -0.094 C  
HETATM   11  S   UNL     1      -9.649   3.890  74.409  1.00  0.00    -0.117 SA 
HETATM   12  S   UNL     1      -9.861   5.925  74.531  1.00  0.00    -0.301 SA 
ENDBRANCH   7   8
ENDBRANCH   6   7
ENDBRANCH   5   6
ENDBRANCH   4   5
TORSDOF 4
ENDMDL
MODEL      210
REMARK 921   NORMALIZED FREE ENERGY PREDICTED BY IDOCK:   -1.85 KCAL/MOL
REMARK 922        TOTAL FREE ENERGY PREDICTED BY IDOCK:   -2.79 KCAL/MOL
REMARK 923 INTER-LIGAND FREE ENERGY PREDICTED BY IDOCK:   -2.61 KCAL/MOL
REMARK 924 INTRA-LIGAND FREE ENERGY PREDICTED BY IDOCK:   -0.18 KCAL/MOL
REMARK 927      BINDING AFFINITY PREDICTED BY RF-SCORE:    0.00 PKD
ROOT
HETATM    1  O   UNL     1      -9.144   3.459  66.552  1.00  0.00    -0.142 OA 
HETATM    2  C   UNL     1      -9.906   4.533  66.867  1.00  0.00    -0.213 C  
HETATM    3  O   UNL     1     -10.846   4.892  66.177  1.00  0.00    -0.289 OA 
HETATM    4  C   UNL     1      -9.437   5.210  68.132  1.00  0.00    -0.160 C  
ENDROOT
BRANCH   4   5
HETATM    5  C   UNL     1     -10.270   6.446  68.476  1.00  0.00    -0.198 C  
BRANCH   5   6
HETATM    6  C   UNL     1     -11.236   6.211  69.644  1.00  0.00    -0.488 C  
BRANCH   6   7
HETATM    7  C   UNL     1     -10.746   6.822  70.965  1.00  0.00    -0.265 C  
BRANCH   7   8
HETATM    8  C   UNL     1      -9.214   6.876  71.093  1.00  0.00    -0.154 C  
HETATM    9  C   UNL     1      -8.652   5.703  71.911  1.00  0.00    -0.131 C  
HETATM   10  C   UNL     1      -8.984   5.842  73.396  1.00  0.00    -0.129 C  
HETATM   11  S   UNL     1      -8.724   7.570  73.874  1.00  0.00    -0.252 SA 
HETATM   12  S   UNL     1      -8.633   8.356  71.983  1.00  0.00    -0.188 SA 
ENDBRANCH   7   8
ENDBRANCH   6   7
ENDBRANCH   5   6
ENDBRANCH   4   5
TORSDOF 4
ENDMDL
MODEL      211
REMARK 921   NORMALIZED FREE ENERGY PREDICTED BY IDOCK:   -1.84 KCAL/MOL
REMARK 922        TOTAL FREE ENERGY PREDICTED BY IDOCK:   -2.78 KCAL/MOL
REMARK 923 INTER-LIGAND FREE ENERGY PREDICTED BY IDOCK:   -2.56 KCAL/MOL
REMARK 924 INTRA-LIGAND FREE ENERGY PREDICTED BY IDOCK:   -0.22 KCAL/MOL
REMARK 927      BINDING AFFINITY PREDICTED BY RF-SCORE:    0.00 PKD
ROOT
HETATM    1  O   UNL     1     -10.762  15.356  64.667  1.00  0.00    -0.367 OA 
HETATM    2  C   UNL     1     -10.971  14.743  65.855  1.00  0.00    -0.335 C  
HETATM    3  O   UNL     1     -12.087  14.453  66.255  1.00  0.00    -0.409 OA 
HETATM    4  C   UNL     1      -9.681  14.494  66.599  1.00  0.00    -0.285 C  
ENDROOT
BRANCH   4   5
HETATM    5  C   UNL     1      -9.910  13.833  67.960  1.00  0.00    -0.239 C  
BRANCH   5   6
HETATM    6  C   UNL     1      -8.926  12.693  68.247  1.00  0.00    -0.176 C  
BRANCH   6   7
HETATM    7  C   UNL     1      -9.050  11.525  67.258  1.00  0.00    -0.164 C  
BRANCH   7   8
HETATM    8  C   UNL     1      -7.848  10.564  67.279  1.00  0.00    -0.107 C  
HETATM    9  C   UNL     1      -8.272   9.099  67.456  1.00  0.00    -0.108 C  
HETATM   10  C   UNL     1      -8.774   8.825  68.873  1.00  0.00    -0.134 C  
HETATM   11  S   UNL     1      -7.666   9.661  70.037  1.00  0.00    -0.171 SA 
HETATM   12  S   UNL     1      -6.723  10.873  68.679  1.00  0.00    -0.063 SA 
ENDBRANCH   7   8
ENDBRANCH   6   7
ENDBRANCH   5   6
ENDBRANCH   4   5
TORSDOF 4
ENDMDL
MODEL      212
REMARK 921   NORMALIZED FREE ENERGY PREDICTED BY IDOCK:   -1.84 KCAL/MOL
REMARK 922        TOTAL FREE ENERGY PREDICTED BY IDOCK:   -2.77 KCAL/MOL
REMARK 923 INTER-LIGAND FREE ENERGY PREDICTED BY IDOCK:   -2.34 KCAL/MOL
REMARK 924 INTRA-LIGAND FREE ENERGY PREDICTED BY IDOCK:   -0.43 KCAL/MOL
REMARK 927      BINDING AFFINITY PREDICTED BY RF-SCORE:    0.00 PKD
ROOT
HETATM    1  O   UNL     1      -6.552   8.128  69.524  1.00  0.00    -0.037 OA 
HETATM    2  C   UNL     1      -7.733   8.782  69.420  1.00  0.00    -0.093 C  
HETATM    3  O   UNL     1      -8.105   9.299  68.380  1.00  0.00    -0.104 OA 
HETATM    4  C   UNL     1      -8.488   8.799  70.728  1.00  0.00    -0.202 C  
ENDROOT
BRANCH   4   5
HETATM    5  C   UNL     1      -9.807   9.567  70.629  1.00  0.00    -0.328 C  
BRANCH   5   6
HETATM    6  C   UNL     1     -11.035   8.688  70.896  1.00  0.00    -0.301 C  
BRANCH   6   7
HETATM    7  C   UNL     1     -10.711   7.428  71.712  1.00  0.00    -0.242 C  
BRANCH   7   8
HETATM    8  C   UNL     1     -11.141   6.119  71.029  1.00  0.00    -0.297 C  
HETATM    9  C   UNL     1     -10.552   4.878  71.717  1.00  0.00    -0.164 C  
HETATM   10  C   UNL     1      -9.050   4.754  71.465  1.00  0.00    -0.136 C  
HETATM   11  S   UNL     1      -8.736   5.137  69.722  1.00  0.00    -0.100 SA 
HETATM   12  S   UNL     1     -10.552   5.994  69.309  1.00  0.00    -0.334 SA 
ENDBRANCH   7   8
ENDBRANCH   6   7
ENDBRANCH   5   6
ENDBRANCH   4   5
TORSDOF 4
ENDMDL
MODEL      213
REMARK 921   NORMALIZED FREE ENERGY PREDICTED BY IDOCK:   -1.83 KCAL/MOL
REMARK 922        TOTAL FREE ENERGY PREDICTED BY IDOCK:   -2.76 KCAL/MOL
REMARK 923 INTER-LIGAND FREE ENERGY PREDICTED BY IDOCK:   -2.53 KCAL/MOL
REMARK 924 INTRA-LIGAND FREE ENERGY PREDICTED BY IDOCK:   -0.23 KCAL/MOL
REMARK 927      BINDING AFFINITY PREDICTED BY RF-SCORE:    0.00 PKD
ROOT
HETATM    1  O   UNL     1     -10.283   6.954  71.878  1.00  0.00    -0.189 OA 
HETATM    2  C   UNL     1      -9.458   7.999  71.634  1.00  0.00    -0.164 C  
HETATM    3  O   UNL     1      -9.236   8.865  72.464  1.00  0.00    -0.334 OA 
HETATM    4  C   UNL     1      -8.886   7.957  70.237  1.00  0.00    -0.140 C  
ENDROOT
BRANCH   4   5
HETATM    5  C   UNL     1      -7.981   9.153  69.940  1.00  0.00    -0.104 C  
BRANCH   5   6
HETATM    6  C   UNL     1      -8.151   9.695  68.515  1.00  0.00    -0.104 C  
BRANCH   6   7
HETATM    7  C   UNL     1      -9.152  10.856  68.426  1.00  0.00    -0.164 C  
BRANCH   7   8
HETATM    8  C   UNL     1     -10.500  10.466  67.794  1.00  0.00    -0.226 C  
HETATM    9  C   UNL     1     -10.403  10.284  66.272  1.00  0.00    -0.256 C  
HETATM   10  C   UNL     1     -10.223  11.622  65.556  1.00  0.00    -0.260 C  
HETATM   11  S   UNL     1     -11.341  12.827  66.319  1.00  0.00    -0.339 SA 
HETATM   12  S   UNL     1     -11.776  11.749  68.008  1.00  0.00    -0.250 SA 
ENDBRANCH   7   8
ENDBRANCH   6   7
ENDBRANCH   5   6
ENDBRANCH   4   5
TORSDOF 4
ENDMDL
MODEL      214
REMARK 921   NORMALIZED FREE ENERGY PREDICTED BY IDOCK:   -1.82 KCAL/MOL
REMARK 922        TOTAL FREE ENERGY PREDICTED BY IDOCK:   -2.75 KCAL/MOL
REMARK 923 INTER-LIGAND FREE ENERGY PREDICTED BY IDOCK:   -2.73 KCAL/MOL
REMARK 924 INTRA-LIGAND FREE ENERGY PREDICTED BY IDOCK:   -0.02 KCAL/MOL
REMARK 927      BINDING AFFINITY PREDICTED BY RF-SCORE:    0.00 PKD
ROOT
HETATM    1  O   UNL     1      -6.015   8.911  68.954  1.00  0.00    -0.043 OA 
HETATM    2  C   UNL     1      -6.466  10.002  68.291  1.00  0.00    -0.054 C  
HETATM    3  O   UNL     1      -5.998  10.358  67.222  1.00  0.00    -0.052 OA 
HETATM    4  C   UNL     1      -7.574  10.703  69.040  1.00  0.00    -0.122 C  
ENDROOT
BRANCH   4   5
HETATM    5  C   UNL     1      -8.065  11.957  68.316  1.00  0.00    -0.154 C  
BRANCH   5   6
HETATM    6  C   UNL     1      -8.918  11.642  67.081  1.00  0.00    -0.173 C  
BRANCH   6   7
HETATM    7  C   UNL     1      -9.766  12.833  66.612  1.00  0.00    -0.252 C  
BRANCH   7   8
HETATM    8  C   UNL     1     -11.228  12.469  66.302  1.00  0.00    -0.315 C  
HETATM    9  C   UNL     1     -11.401  11.888  64.891  1.00  0.00    -0.337 C  
HETATM   10  C   UNL     1     -11.228  12.960  63.816  1.00  0.00    -0.402 C  
HETATM   11  S   UNL     1     -12.094  14.454  64.362  1.00  0.00    -0.420 SA 
HETATM   12  S   UNL     1     -12.335  13.917  66.325  1.00  0.00    -0.409 SA 
ENDBRANCH   7   8
ENDBRANCH   6   7
ENDBRANCH   5   6
ENDBRANCH   4   5
TORSDOF 4
ENDMDL
MODEL      215
REMARK 921   NORMALIZED FREE ENERGY PREDICTED BY IDOCK:   -1.81 KCAL/MOL
REMARK 922        TOTAL FREE ENERGY PREDICTED BY IDOCK:   -2.74 KCAL/MOL
REMARK 923 INTER-LIGAND FREE ENERGY PREDICTED BY IDOCK:   -2.60 KCAL/MOL
REMARK 924 INTRA-LIGAND FREE ENERGY PREDICTED BY IDOCK:   -0.14 KCAL/MOL
REMARK 927      BINDING AFFINITY PREDICTED BY RF-SCORE:    0.00 PKD
ROOT
HETATM    1  O   UNL     1      -6.256   6.366  65.957  1.00  0.00    -0.035 OA 
HETATM    2  C   UNL     1      -7.552   6.279  66.338  1.00  0.00    -0.094 C  
HETATM    3  O   UNL     1      -8.439   6.910  65.788  1.00  0.00    -0.141 OA 
HETATM    4  C   UNL     1      -7.738   5.343  67.508  1.00  0.00    -0.092 C  
ENDROOT
BRANCH   4   5
HETATM    5  C   UNL     1      -9.195   5.267  67.969  1.00  0.00    -0.125 C  
BRANCH   5   6
HETATM    6  C   UNL     1      -9.578   6.392  68.937  1.00  0.00    -0.130 C  
BRANCH   6   7
HETATM    7  C   UNL     1     -10.850   6.090  69.742  1.00  0.00    -0.433 C  
BRANCH   7   8
HETATM    8  C   UNL     1     -10.715   6.380  71.247  1.00  0.00    -0.241 C  
HETATM    9  C   UNL     1     -12.078   6.489  71.947  1.00  0.00    -0.388 C  
HETATM   10  C   UNL     1     -12.810   7.773  71.558  1.00  0.00    -0.329 C  
HETATM   11  S   UNL     1     -11.609   9.129  71.558  1.00  0.00    -0.394 SA 
HETATM   12  S   UNL     1      -9.912   7.980  71.587  1.00  0.00    -0.196 SA 
ENDBRANCH   7   8
ENDBRANCH   6   7
ENDBRANCH   5   6
ENDBRANCH   4   5
TORSDOF 4
ENDMDL
MODEL      216
REMARK 921   NORMALIZED FREE ENERGY PREDICTED BY IDOCK:   -1.80 KCAL/MOL
REMARK 922        TOTAL FREE ENERGY PREDICTED BY IDOCK:   -2.72 KCAL/MOL
REMARK 923 INTER-LIGAND FREE ENERGY PREDICTED BY IDOCK:   -2.54 KCAL/MOL
REMARK 924 INTRA-LIGAND FREE ENERGY PREDICTED BY IDOCK:   -0.18 KCAL/MOL
REMARK 927      BINDING AFFINITY PREDICTED BY RF-SCORE:    0.00 PKD
ROOT
HETATM    1  O   UNL     1      -9.094   5.294  65.317  1.00  0.00    -0.155 OA 
HETATM    2  C   UNL     1      -8.924   6.458  65.987  1.00  0.00    -0.130 C  
HETATM    3  O   UNL     1      -9.355   6.632  67.115  1.00  0.00    -0.128 OA 
HETATM    4  C   UNL     1      -8.172   7.480  65.168  1.00  0.00    -0.122 C  
ENDROOT
BRANCH   4   5
HETATM    5  C   UNL     1      -8.007   8.810  65.904  1.00  0.00    -0.104 C  
BRANCH   5   6
HETATM    6  C   UNL     1      -8.943   9.906  65.380  1.00  0.00    -0.220 C  
BRANCH   6   7
HETATM    7  C   UNL     1      -9.412  10.875  66.476  1.00  0.00    -0.210 C  
BRANCH   7   8
HETATM    8  C   UNL     1     -10.937  10.895  66.674  1.00  0.00    -0.148 C  
HETATM    9  C   UNL     1     -11.622  11.987  65.839  1.00  0.00    -0.364 C  
HETATM   10  C   UNL     1     -11.328  13.383  66.387  1.00  0.00    -0.313 C  
HETATM   11  S   UNL     1     -11.456  13.320  68.193  1.00  0.00    -0.335 SA 
HETATM   12  S   UNL     1     -11.419  11.281  68.389  1.00  0.00    -0.316 SA 
ENDBRANCH   7   8
ENDBRANCH   6   7
ENDBRANCH   5   6
ENDBRANCH   4   5
TORSDOF 4
ENDMDL
MODEL      217
REMARK 921   NORMALIZED FREE ENERGY PREDICTED BY IDOCK:   -1.79 KCAL/MOL
REMARK 922        TOTAL FREE ENERGY PREDICTED BY IDOCK:   -2.72 KCAL/MOL
REMARK 923 INTER-LIGAND FREE ENERGY PREDICTED BY IDOCK:   -2.45 KCAL/MOL
REMARK 924 INTRA-LIGAND FREE ENERGY PREDICTED BY IDOCK:   -0.27 KCAL/MOL
REMARK 927      BINDING AFFINITY PREDICTED BY RF-SCORE:    0.00 PKD
ROOT
HETATM    1  O   UNL     1      -5.878   8.988  70.394  1.00  0.00    -0.029 OA 
HETATM    2  C   UNL     1      -7.191   9.169  70.668  1.00  0.00    -0.105 C  
HETATM    3  O   UNL     1      -7.595   9.439  71.787  1.00  0.00    -0.278 OA 
HETATM    4  C   UNL     1      -8.057   8.978  69.445  1.00  0.00    -0.108 C  
ENDROOT
BRANCH   4   5
HETATM    5  C   UNL     1      -9.546   9.144  69.752  1.00  0.00    -0.191 C  
BRANCH   5   6
HETATM    6  C   UNL     1     -10.167  10.366  69.065  1.00  0.00    -0.233 C  
BRANCH   6   7
HETATM    7  C   UNL     1      -9.124  11.307  68.446  1.00  0.00    -0.170 C  
BRANCH   7   8
HETATM    8  C   UNL     1      -9.567  11.934  67.112  1.00  0.00    -0.186 C  
HETATM    9  C   UNL     1      -9.238  13.432  67.031  1.00  0.00    -0.242 C  
HETATM   10  C   UNL     1     -10.137  14.257  67.951  1.00  0.00    -0.233 C  
HETATM   11  S   UNL     1     -11.829  13.626  67.801  1.00  0.00    -0.356 SA 
HETATM   12  S   UNL     1     -11.371  11.861  66.865  1.00  0.00    -0.316 SA 
ENDBRANCH   7   8
ENDBRANCH   6   7
ENDBRANCH   5   6
ENDBRANCH   4   5
TORSDOF 4
ENDMDL
MODEL      218
REMARK 921   NORMALIZED FREE ENERGY PREDICTED BY IDOCK:   -1.79 KCAL/MOL
REMARK 922        TOTAL FREE ENERGY PREDICTED BY IDOCK:   -2.71 KCAL/MOL
REMARK 923 INTER-LIGAND FREE ENERGY PREDICTED BY IDOCK:   -2.59 KCAL/MOL
REMARK 924 INTRA-LIGAND FREE ENERGY PREDICTED BY IDOCK:   -0.13 KCAL/MOL
REMARK 927      BINDING AFFINITY PREDICTED BY RF-SCORE:    0.00 PKD
ROOT
HETATM    1  O   UNL     1     -10.659  12.191  66.442  1.00  0.00    -0.231 OA 
HETATM    2  C   UNL     1     -10.275  11.641  67.618  1.00  0.00    -0.188 C  
HETATM    3  O   UNL     1      -9.429  12.152  68.334  1.00  0.00    -0.208 OA 
HETATM    4  C   UNL     1     -10.998  10.346  67.901  1.00  0.00    -0.354 C  
ENDROOT
BRANCH   4   5
HETATM    5  C   UNL     1     -10.544   9.698  69.211  1.00  0.00    -0.236 C  
BRANCH   5   6
HETATM    6  C   UNL     1     -10.437   8.171  69.120  1.00  0.00    -0.217 C  
BRANCH   6   7
HETATM    7  C   UNL     1     -10.683   7.467  70.462  1.00  0.00    -0.244 C  
BRANCH   7   8
HETATM    8  C   UNL     1     -10.817   5.939  70.346  1.00  0.00    -0.308 C  
HETATM    9  C   UNL     1     -10.901   5.252  71.717  1.00  0.00    -0.198 C  
HETATM   10  C   UNL     1      -9.558   5.282  72.445  1.00  0.00    -0.151 C  
HETATM   11  S   UNL     1      -8.256   4.897  71.246  1.00  0.00    -0.112 SA 
HETATM   12  S   UNL     1      -9.373   5.164  69.549  1.00  0.00    -0.141 SA 
ENDBRANCH   7   8
ENDBRANCH   6   7
ENDBRANCH   5   6
ENDBRANCH   4   5
TORSDOF 4
ENDMDL
MODEL      219
REMARK 921   NORMALIZED FREE ENERGY PREDICTED BY IDOCK:   -1.78 KCAL/MOL
REMARK 922        TOTAL FREE ENERGY PREDICTED BY IDOCK:   -2.71 KCAL/MOL
REMARK 923 INTER-LIGAND FREE ENERGY PREDICTED BY IDOCK:   -2.53 KCAL/MOL
REMARK 924 INTRA-LIGAND FREE ENERGY PREDICTED BY IDOCK:   -0.17 KCAL/MOL
REMARK 927      BINDING AFFINITY PREDICTED BY RF-SCORE:    0.00 PKD
ROOT
HETATM    1  O   UNL     1      -5.597  11.008  67.212  1.00  0.00    -0.041 OA 
HETATM    2  C   UNL     1      -6.160  10.236  68.171  1.00  0.00    -0.047 C  
HETATM    3  O   UNL     1      -5.510   9.737  69.075  1.00  0.00    -0.036 OA 
HETATM    4  C   UNL     1      -7.646  10.067  67.963  1.00  0.00    -0.088 C  
ENDROOT
BRANCH   4   5
HETATM    5  C   UNL     1      -8.285   9.166  69.022  1.00  0.00    -0.115 C  
BRANCH   5   6
HETATM    6  C   UNL     1      -9.326   9.895  69.880  1.00  0.00    -0.250 C  
BRANCH   6   7
HETATM    7  C   UNL     1      -9.680   9.141  71.170  1.00  0.00    -0.360 C  
BRANCH   7   8
HETATM    8  C   UNL     1     -11.048   8.438  71.123  1.00  0.00    -0.256 C  
HETATM    9  C   UNL     1     -11.633   8.201  72.523  1.00  0.00    -0.468 C  
HETATM   10  C   UNL     1     -10.871   7.111  73.275  1.00  0.00    -0.338 C  
HETATM   11  S   UNL     1     -10.538   5.755  72.121  1.00  0.00    -0.228 SA 
HETATM   12  S   UNL     1     -10.957   6.771  70.391  1.00  0.00    -0.304 SA 
ENDBRANCH   7   8
ENDBRANCH   6   7
ENDBRANCH   5   6
ENDBRANCH   4   5
TORSDOF 4
ENDMDL
MODEL      220
REMARK 921   NORMALIZED FREE ENERGY PREDICTED BY IDOCK:   -1.78 KCAL/MOL
REMARK 922        TOTAL FREE ENERGY PREDICTED BY IDOCK:   -2.70 KCAL/MOL
REMARK 923 INTER-LIGAND FREE ENERGY PREDICTED BY IDOCK:   -2.44 KCAL/MOL
REMARK 924 INTRA-LIGAND FREE ENERGY PREDICTED BY IDOCK:   -0.26 KCAL/MOL
REMARK 927      BINDING AFFINITY PREDICTED BY RF-SCORE:    0.00 PKD
ROOT
HETATM    1  O   UNL     1      -8.876   4.764  65.006  1.00  0.00    -0.144 OA 
HETATM    2  C   UNL     1      -8.695   5.518  66.115  1.00  0.00    -0.133 C  
HETATM    3  O   UNL     1      -8.708   5.044  67.239  1.00  0.00    -0.105 OA 
HETATM    4  C   UNL     1      -8.502   6.979  65.782  1.00  0.00    -0.154 C  
ENDROOT
BRANCH   4   5
HETATM    5  C   UNL     1      -8.333   7.845  67.031  1.00  0.00    -0.117 C  
BRANCH   5   6
HETATM    6  C   UNL     1      -9.415   8.924  67.164  1.00  0.00    -0.202 C  
BRANCH   6   7
HETATM    7  C   UNL     1     -10.493   8.573  68.200  1.00  0.00    -0.236 C  
BRANCH   7   8
HETATM    8  C   UNL     1      -9.937   8.308  69.609  1.00  0.00    -0.193 C  
HETATM    9  C   UNL     1      -9.966   6.818  69.980  1.00  0.00    -0.189 C  
HETATM   10  C   UNL     1     -11.391   6.327  70.230  1.00  0.00    -0.388 C  
HETATM   11  S   UNL     1     -12.259   7.585  71.202  1.00  0.00    -0.273 SA 
HETATM   12  S   UNL     1     -10.920   9.110  70.918  1.00  0.00    -0.311 SA 
ENDBRANCH   7   8
ENDBRANCH   6   7
ENDBRANCH   5   6
ENDBRANCH   4   5
TORSDOF 4
ENDMDL
MODEL      221
REMARK 921   NORMALIZED FREE ENERGY PREDICTED BY IDOCK:   -1.78 KCAL/MOL
REMARK 922        TOTAL FREE ENERGY PREDICTED BY IDOCK:   -2.70 KCAL/MOL
REMARK 923 INTER-LIGAND FREE ENERGY PREDICTED BY IDOCK:   -2.39 KCAL/MOL
REMARK 924 INTRA-LIGAND FREE ENERGY PREDICTED BY IDOCK:   -0.31 KCAL/MOL
REMARK 927      BINDING AFFINITY PREDICTED BY RF-SCORE:    0.00 PKD
ROOT
HETATM    1  O   UNL     1      -6.079  10.197  68.635  1.00  0.00    -0.044 OA 
HETATM    2  C   UNL     1      -6.976  10.362  67.635  1.00  0.00    -0.083 C  
HETATM    3  O   UNL     1      -6.789  11.132  66.707  1.00  0.00    -0.116 OA 
HETATM    4  C   UNL     1      -8.206   9.507  67.829  1.00  0.00    -0.114 C  
ENDROOT
BRANCH   4   5
HETATM    5  C   UNL     1      -9.242   9.714  66.723  1.00  0.00    -0.181 C  
BRANCH   5   6
HETATM    6  C   UNL     1     -10.671   9.865  67.259  1.00  0.00    -0.304 C  
BRANCH   6   7
HETATM    7  C   UNL     1     -11.305  11.220  66.914  1.00  0.00    -0.231 C  
BRANCH   7   8
HETATM    8  C   UNL     1     -10.371  12.420  67.149  1.00  0.00    -0.219 C  
HETATM    9  C   UNL     1     -10.950  13.424  68.157  1.00  0.00    -0.277 C  
HETATM   10  C   UNL     1     -12.129  14.198  67.568  1.00  0.00    -0.328 C  
HETATM   11  S   UNL     1     -11.708  14.663  65.869  1.00  0.00    -0.251 SA 
HETATM   12  S   UNL     1     -10.103  13.409  65.642  1.00  0.00    -0.243 SA 
ENDBRANCH   7   8
ENDBRANCH   6   7
ENDBRANCH   5   6
ENDBRANCH   4   5
TORSDOF 4
ENDMDL
MODEL      222
REMARK 921   NORMALIZED FREE ENERGY PREDICTED BY IDOCK:   -1.76 KCAL/MOL
REMARK 922        TOTAL FREE ENERGY PREDICTED BY IDOCK:   -2.68 KCAL/MOL
REMARK 923 INTER-LIGAND FREE ENERGY PREDICTED BY IDOCK:   -2.52 KCAL/MOL
REMARK 924 INTRA-LIGAND FREE ENERGY PREDICTED BY IDOCK:   -0.16 KCAL/MOL
REMARK 927      BINDING AFFINITY PREDICTED BY RF-SCORE:    0.00 PKD
ROOT
HETATM    1  O   UNL     1     -10.372   7.158  70.659  1.00  0.00    -0.202 OA 
HETATM    2  C   UNL     1     -10.408   7.229  69.308  1.00  0.00    -0.205 C  
HETATM    3  O   UNL     1     -10.809   6.310  68.614  1.00  0.00    -0.270 OA 
HETATM    4  C   UNL     1      -9.882   8.549  68.796  1.00  0.00    -0.180 C  
ENDROOT
BRANCH   4   5
HETATM    5  C   UNL     1      -9.884   8.625  67.268  1.00  0.00    -0.256 C  
BRANCH   5   6
HETATM    6  C   UNL     1     -10.938   9.593  66.717  1.00  0.00     0.078 C  
BRANCH   6   7
HETATM    7  C   UNL     1     -10.338  10.714  65.856  1.00  0.00    -0.291 C  
BRANCH   7   8
HETATM    8  C   UNL     1     -11.317  11.866  65.568  1.00  0.00    -0.277 C  
HETATM    9  C   UNL     1     -10.639  13.046  64.857  1.00  0.00    -0.355 C  
HETATM   10  C   UNL     1      -9.701  13.806  65.794  1.00  0.00    -0.151 C  
HETATM   11  S   UNL     1     -10.527  13.985  67.396  1.00  0.00    -0.264 SA 
HETATM   12  S   UNL     1     -12.006  12.600  67.087  1.00  0.00    -0.144 SA 
ENDBRANCH   7   8
ENDBRANCH   6   7
ENDBRANCH   5   6
ENDBRANCH   4   5
TORSDOF 4
ENDMDL
MODEL      223
REMARK 921   NORMALIZED FREE ENERGY PREDICTED BY IDOCK:   -1.74 KCAL/MOL
REMARK 922        TOTAL FREE ENERGY PREDICTED BY IDOCK:   -2.65 KCAL/MOL
REMARK 923 INTER-LIGAND FREE ENERGY PREDICTED BY IDOCK:   -2.41 KCAL/MOL
REMARK 924 INTRA-LIGAND FREE ENERGY PREDICTED BY IDOCK:   -0.25 KCAL/MOL
REMARK 927      BINDING AFFINITY PREDICTED BY RF-SCORE:    0.00 PKD
ROOT
HETATM    1  O   UNL     1      -7.411   2.999  67.806  1.00  0.00    -0.057 OA 
HETATM    2  C   UNL     1      -7.506   2.896  69.153  1.00  0.00    -0.047 C  
HETATM    3  O   UNL     1      -6.938   2.020  69.784  1.00  0.00    -0.033 OA 
HETATM    4  C   UNL     1      -8.396   3.965  69.741  1.00  0.00    -0.079 C  
ENDROOT
BRANCH   4   5
HETATM    5  C   UNL     1      -8.538   3.836  71.259  1.00  0.00    -0.111 C  
BRANCH   5   6
HETATM    6  C   UNL     1      -9.845   4.435  71.792  1.00  0.00    -0.253 C  
BRANCH   6   7
HETATM    7  C   UNL     1      -9.679   5.862  72.334  1.00  0.00    -0.175 C  
BRANCH   7   8
HETATM    8  C   UNL     1      -9.979   6.958  71.296  1.00  0.00    -0.179 C  
HETATM    9  C   UNL     1     -10.376   8.290  71.949  1.00  0.00    -0.324 C  
HETATM   10  C   UNL     1     -11.769   8.217  72.575  1.00  0.00    -0.383 C  
HETATM   11  S   UNL     1     -12.859   7.337  71.426  1.00  0.00    -0.349 SA 
HETATM   12  S   UNL     1     -11.396   6.547  70.227  1.00  0.00    -0.415 SA 
ENDBRANCH   7   8
ENDBRANCH   6   7
ENDBRANCH   5   6
ENDBRANCH   4   5
TORSDOF 4
ENDMDL
MODEL      224
REMARK 921   NORMALIZED FREE ENERGY PREDICTED BY IDOCK:   -1.72 KCAL/MOL
REMARK 922        TOTAL FREE ENERGY PREDICTED BY IDOCK:   -2.63 KCAL/MOL
REMARK 923 INTER-LIGAND FREE ENERGY PREDICTED BY IDOCK:   -2.42 KCAL/MOL
REMARK 924 INTRA-LIGAND FREE ENERGY PREDICTED BY IDOCK:   -0.21 KCAL/MOL
REMARK 927      BINDING AFFINITY PREDICTED BY RF-SCORE:    0.00 PKD
ROOT
HETATM    1  O   UNL     1      -8.319   3.601  72.449  1.00  0.00    -0.082 OA 
HETATM    2  C   UNL     1      -8.792   4.860  72.607  1.00  0.00    -0.122 C  
HETATM    3  O   UNL     1      -8.194   5.707  73.250  1.00  0.00    -0.116 OA 
HETATM    4  C   UNL     1     -10.122   5.056  71.920  1.00  0.00    -0.257 C  
ENDROOT
BRANCH   4   5
HETATM    5  C   UNL     1     -10.682   6.466  72.124  1.00  0.00    -0.259 C  
BRANCH   5   6
HETATM    6  C   UNL     1     -11.853   6.787  71.188  1.00  0.00    -0.410 C  
BRANCH   6   7
HETATM    7  C   UNL     1     -11.419   7.012  69.732  1.00  0.00    -0.177 C  
BRANCH   7   8
HETATM    8  C   UNL     1     -10.048   7.697  69.593  1.00  0.00    -0.194 C  
HETATM    9  C   UNL     1     -10.166   9.147  69.098  1.00  0.00    -0.215 C  
HETATM   10  C   UNL     1     -10.573   9.208  67.626  1.00  0.00    -0.242 C  
HETATM   11  S   UNL     1      -9.632   7.949  66.726  1.00  0.00    -0.231 SA 
HETATM   12  S   UNL     1      -8.980   6.891  68.356  1.00  0.00    -0.119 SA 
ENDBRANCH   7   8
ENDBRANCH   6   7
ENDBRANCH   5   6
ENDBRANCH   4   5
TORSDOF 4
ENDMDL
MODEL      225
REMARK 921   NORMALIZED FREE ENERGY PREDICTED BY IDOCK:   -1.69 KCAL/MOL
REMARK 922        TOTAL FREE ENERGY PREDICTED BY IDOCK:   -2.60 KCAL/MOL
REMARK 923 INTER-LIGAND FREE ENERGY PREDICTED BY IDOCK:   -2.36 KCAL/MOL
REMARK 924 INTRA-LIGAND FREE ENERGY PREDICTED BY IDOCK:   -0.24 KCAL/MOL
REMARK 927      BINDING AFFINITY PREDICTED BY RF-SCORE:    0.00 PKD
ROOT
HETATM    1  O   UNL     1      -9.490  14.238  66.320  1.00  0.00    -0.284 OA 
HETATM    2  C   UNL     1      -9.376  13.439  67.406  1.00  0.00    -0.221 C  
HETATM    3  O   UNL     1      -8.813  13.798  68.427  1.00  0.00    -0.181 OA 
HETATM    4  C   UNL     1     -10.000  12.082  67.180  1.00  0.00    -0.208 C  
ENDROOT
BRANCH   4   5
HETATM    5  C   UNL     1      -9.843  11.158  68.389  1.00  0.00    -0.188 C  
BRANCH   5   6
HETATM    6  C   UNL     1      -8.626  10.232  68.282  1.00  0.00    -0.122 C  
BRANCH   6   7
HETATM    7  C   UNL     1      -8.880   8.832  68.860  1.00  0.00    -0.137 C  
BRANCH   7   8
HETATM    8  C   UNL     1     -10.278   8.273  68.541  1.00  0.00    -0.208 C  
HETATM    9  C   UNL     1     -10.956   7.653  69.772  1.00  0.00    -0.178 C  
HETATM   10  C   UNL     1     -10.297   6.334  70.173  1.00  0.00    -0.205 C  
HETATM   11  S   UNL     1      -9.970   5.384  68.666  1.00  0.00    -0.174 SA 
HETATM   12  S   UNL     1     -10.233   6.914  67.328  1.00  0.00    -0.251 SA 
ENDBRANCH   7   8
ENDBRANCH   6   7
ENDBRANCH   5   6
ENDBRANCH   4   5
TORSDOF 4
ENDMDL
MODEL      226
REMARK 921   NORMALIZED FREE ENERGY PREDICTED BY IDOCK:   -1.67 KCAL/MOL
REMARK 922        TOTAL FREE ENERGY PREDICTED BY IDOCK:   -2.57 KCAL/MOL
REMARK 923 INTER-LIGAND FREE ENERGY PREDICTED BY IDOCK:   -2.25 KCAL/MOL
REMARK 924 INTRA-LIGAND FREE ENERGY PREDICTED BY IDOCK:   -0.32 KCAL/MOL
REMARK 927      BINDING AFFINITY PREDICTED BY RF-SCORE:    0.00 PKD
ROOT
HETATM    1  O   UNL     1      -6.939   2.529  71.257  1.00  0.00    -0.031 OA 
HETATM    2  C   UNL     1      -8.253   2.799  71.439  1.00  0.00    -0.062 C  
HETATM    3  O   UNL     1      -9.118   1.947  71.329  1.00  0.00    -0.071 OA 
HETATM    4  C   UNL     1      -8.492   4.255  71.764  1.00  0.00    -0.112 C  
ENDROOT
BRANCH   4   5
HETATM    5  C   UNL     1      -9.978   4.578  71.935  1.00  0.00    -0.258 C  
BRANCH   5   6
HETATM    6  C   UNL     1     -10.312   6.043  71.631  1.00  0.00    -0.260 C  
BRANCH   6   7
HETATM    7  C   UNL     1     -11.259   6.211  70.434  1.00  0.00    -0.423 C  
BRANCH   7   8
HETATM    8  C   UNL     1     -10.683   7.085  69.305  1.00  0.00    -0.225 C  
HETATM    9  C   UNL     1     -10.858   6.443  67.921  1.00  0.00    -0.404 C  
HETATM   10  C   UNL     1      -9.934   5.239  67.737  1.00  0.00    -0.162 C  
HETATM   11  S   UNL     1      -8.307   5.668  68.409  1.00  0.00    -0.106 SA 
HETATM   12  S   UNL     1      -8.884   7.333  69.456  1.00  0.00    -0.136 SA 
ENDBRANCH   7   8
ENDBRANCH   6   7
ENDBRANCH   5   6
ENDBRANCH   4   5
TORSDOF 4
ENDMDL
MODEL      227
REMARK 921   NORMALIZED FREE ENERGY PREDICTED BY IDOCK:   -1.67 KCAL/MOL
REMARK 922        TOTAL FREE ENERGY PREDICTED BY IDOCK:   -2.57 KCAL/MOL
REMARK 923 INTER-LIGAND FREE ENERGY PREDICTED BY IDOCK:   -2.40 KCAL/MOL
REMARK 924 INTRA-LIGAND FREE ENERGY PREDICTED BY IDOCK:   -0.17 KCAL/MOL
REMARK 927      BINDING AFFINITY PREDICTED BY RF-SCORE:    0.00 PKD
ROOT
HETATM    1  O   UNL     1     -10.945  14.524  65.231  1.00  0.00    -0.320 OA 
HETATM    2  C   UNL     1     -10.716  13.621  66.213  1.00  0.00    -0.285 C  
HETATM    3  O   UNL     1     -10.084  13.895  67.220  1.00  0.00    -0.238 OA 
HETATM    4  C   UNL     1     -11.312  12.271  65.892  1.00  0.00    -0.406 C  
ENDROOT
BRANCH   4   5
HETATM    5  C   UNL     1     -11.028  11.234  66.980  1.00  0.00    -0.352 C  
BRANCH   5   6
HETATM    6  C   UNL     1      -9.847  10.316  66.639  1.00  0.00    -0.256 C  
BRANCH   6   7
HETATM    7  C   UNL     1      -9.062   9.858  67.877  1.00  0.00    -0.135 C  
BRANCH   7   8
HETATM    8  C   UNL     1      -7.809   9.029  67.544  1.00  0.00    -0.100 C  
HETATM    9  C   UNL     1      -7.821   7.651  68.224  1.00  0.00    -0.121 C  
HETATM   10  C   UNL     1      -7.594   7.765  69.731  1.00  0.00    -0.091 C  
HETATM   11  S   UNL     1      -6.276   8.975  70.014  1.00  0.00    -0.039 SA 
HETATM   12  S   UNL     1      -6.271   9.805  68.140  1.00  0.00    -0.055 SA 
ENDBRANCH   7   8
ENDBRANCH   6   7
ENDBRANCH   5   6
ENDBRANCH   4   5
TORSDOF 4
ENDMDL
MODEL      228
REMARK 921   NORMALIZED FREE ENERGY PREDICTED BY IDOCK:   -1.67 KCAL/MOL
REMARK 922        TOTAL FREE ENERGY PREDICTED BY IDOCK:   -2.56 KCAL/MOL
REMARK 923 INTER-LIGAND FREE ENERGY PREDICTED BY IDOCK:   -2.25 KCAL/MOL
REMARK 924 INTRA-LIGAND FREE ENERGY PREDICTED BY IDOCK:   -0.32 KCAL/MOL
REMARK 927      BINDING AFFINITY PREDICTED BY RF-SCORE:    0.00 PKD
ROOT
HETATM    1  O   UNL     1      -9.968   5.024  65.585  1.00  0.00    -0.148 OA 
HETATM    2  C   UNL     1      -9.531   5.290  66.838  1.00  0.00    -0.136 C  
HETATM    3  O   UNL     1      -9.977   4.722  67.821  1.00  0.00    -0.157 OA 
HETATM    4  C   UNL     1      -8.468   6.363  66.851  1.00  0.00    -0.110 C  
ENDROOT
BRANCH   4   5
HETATM    5  C   UNL     1      -7.994   6.697  68.267  1.00  0.00    -0.111 C  
BRANCH   5   6
HETATM    6  C   UNL     1      -8.626   7.977  68.825  1.00  0.00    -0.128 C  
BRANCH   6   7
HETATM    7  C   UNL     1      -8.976   7.878  70.317  1.00  0.00    -0.151 C  
BRANCH   7   8
HETATM    8  C   UNL     1      -9.786   6.621  70.681  1.00  0.00    -0.172 C  
HETATM    9  C   UNL     1     -11.275   6.927  70.900  1.00  0.00    -0.332 C  
HETATM   10  C   UNL     1     -11.507   7.700  72.198  1.00  0.00    -0.298 C  
HETATM   11  S   UNL     1     -10.469   6.964  73.487  1.00  0.00    -0.360 SA 
HETATM   12  S   UNL     1      -9.252   5.870  72.253  1.00  0.00    -0.143 SA 
ENDBRANCH   7   8
ENDBRANCH   6   7
ENDBRANCH   5   6
ENDBRANCH   4   5
TORSDOF 4
ENDMDL
MODEL      229
REMARK 921   NORMALIZED FREE ENERGY PREDICTED BY IDOCK:   -1.65 KCAL/MOL
REMARK 922        TOTAL FREE ENERGY PREDICTED BY IDOCK:   -2.55 KCAL/MOL
REMARK 923 INTER-LIGAND FREE ENERGY PREDICTED BY IDOCK:   -2.30 KCAL/MOL
REMARK 924 INTRA-LIGAND FREE ENERGY PREDICTED BY IDOCK:   -0.24 KCAL/MOL
REMARK 927      BINDING AFFINITY PREDICTED BY RF-SCORE:    0.00 PKD
ROOT
HETATM    1  O   UNL     1      -8.198   8.755  73.043  1.00  0.00    -0.418 OA 
HETATM    2  C   UNL     1      -9.246   7.998  72.643  1.00  0.00    -0.239 C  
HETATM    3  O   UNL     1     -10.397   8.259  72.950  1.00  0.00    -0.302 OA 
HETATM    4  C   UNL     1      -8.807   6.816  71.812  1.00  0.00    -0.128 C  
ENDROOT
BRANCH   4   5
HETATM    5  C   UNL     1      -9.982   5.933  71.386  1.00  0.00    -0.228 C  
BRANCH   5   6
HETATM    6  C   UNL     1      -9.553   4.516  70.985  1.00  0.00    -0.248 C  
BRANCH   6   7
HETATM    7  C   UNL     1      -9.597   4.278  69.469  1.00  0.00    -0.274 C  
BRANCH   7   8
HETATM    8  C   UNL     1      -8.216   4.022  68.841  1.00  0.00    -0.073 C  
HETATM    9  C   UNL     1      -7.681   5.247  68.084  1.00  0.00    -0.084 C  
HETATM   10  C   UNL     1      -8.452   5.489  66.787  1.00  0.00    -0.111 C  
HETATM   11  S   UNL     1      -8.714   3.889  65.979  1.00  0.00    -0.119 SA 
HETATM   12  S   UNL     1      -8.247   2.703  67.584  1.00  0.00    -0.078 SA 
ENDBRANCH   7   8
ENDBRANCH   6   7
ENDBRANCH   5   6
ENDBRANCH   4   5
TORSDOF 4
ENDMDL
MODEL      230
REMARK 921   NORMALIZED FREE ENERGY PREDICTED BY IDOCK:   -1.64 KCAL/MOL
REMARK 922        TOTAL FREE ENERGY PREDICTED BY IDOCK:   -2.52 KCAL/MOL
REMARK 923 INTER-LIGAND FREE ENERGY PREDICTED BY IDOCK:   -2.45 KCAL/MOL
REMARK 924 INTRA-LIGAND FREE ENERGY PREDICTED BY IDOCK:   -0.08 KCAL/MOL
REMARK 927      BINDING AFFINITY PREDICTED BY RF-SCORE:    0.00 PKD
ROOT
HETATM    1  O   UNL     1      -7.534   8.105  72.604  1.00  0.00    -0.109 OA 
HETATM    2  C   UNL     1      -8.778   7.575  72.668  1.00  0.00    -0.126 C  
HETATM    3  O   UNL     1      -8.977   6.408  72.963  1.00  0.00    -0.130 OA 
HETATM    4  C   UNL     1      -9.843   8.586  72.317  1.00  0.00    -0.383 C  
ENDROOT
BRANCH   4   5
HETATM    5  C   UNL     1     -11.250   7.987  72.352  1.00  0.00    -0.432 C  
BRANCH   5   6
HETATM    6  C   UNL     1     -11.737   7.519  70.975  1.00  0.00    -0.317 C  
BRANCH   6   7
HETATM    7  C   UNL     1     -10.941   8.130  69.813  1.00  0.00    -0.133 C  
BRANCH   7   8
HETATM    8  C   UNL     1     -10.686   7.151  68.654  1.00  0.00    -0.163 C  
HETATM    9  C   UNL     1     -10.972   5.693  69.045  1.00  0.00    -0.165 C  
HETATM   10  C   UNL     1      -9.914   5.150  70.005  1.00  0.00    -0.256 C  
HETATM   11  S   UNL     1      -8.288   5.697  69.423  1.00  0.00    -0.107 SA 
HETATM   12  S   UNL     1      -8.945   7.133  68.117  1.00  0.00    -0.126 SA 
ENDBRANCH   7   8
ENDBRANCH   6   7
ENDBRANCH   5   6
ENDBRANCH   4   5
TORSDOF 4
ENDMDL
MODEL      231
REMARK 921   NORMALIZED FREE ENERGY PREDICTED BY IDOCK:   -1.63 KCAL/MOL
REMARK 922        TOTAL FREE ENERGY PREDICTED BY IDOCK:   -2.52 KCAL/MOL
REMARK 923 INTER-LIGAND FREE ENERGY PREDICTED BY IDOCK:   -2.16 KCAL/MOL
REMARK 924 INTRA-LIGAND FREE ENERGY PREDICTED BY IDOCK:   -0.36 KCAL/MOL
REMARK 927      BINDING AFFINITY PREDICTED BY RF-SCORE:    0.00 PKD
ROOT
HETATM    1  O   UNL     1      -6.455   8.885  70.557  1.00  0.00    -0.039 OA 
HETATM    2  C   UNL     1      -7.445   8.893  71.481  1.00  0.00    -0.050 C  
HETATM    3  O   UNL     1      -7.220   8.894  72.680  1.00  0.00    -0.337 OA 
HETATM    4  C   UNL     1      -8.815   8.880  70.845  1.00  0.00    -0.268 C  
ENDROOT
BRANCH   4   5
HETATM    5  C   UNL     1      -9.939   8.852  71.882  1.00  0.00    -0.384 C  
BRANCH   5   6
HETATM    6  C   UNL     1     -10.398   7.431  72.231  1.00  0.00    -0.251 C  
BRANCH   6   7
HETATM    7  C   UNL     1     -10.073   6.405  71.136  1.00  0.00    -0.213 C  
BRANCH   7   8
HETATM    8  C   UNL     1      -9.038   5.349  71.563  1.00  0.00    -0.142 C  
HETATM    9  C   UNL     1      -7.829   5.298  70.617  1.00  0.00    -0.089 C  
HETATM   10  C   UNL     1      -8.196   4.687  69.266  1.00  0.00    -0.076 C  
HETATM   11  S   UNL     1      -9.254   3.247  69.566  1.00  0.00    -0.160 SA 
HETATM   12  S   UNL     1      -9.703   3.653  71.524  1.00  0.00    -0.153 SA 
ENDBRANCH   7   8
ENDBRANCH   6   7
ENDBRANCH   5   6
ENDBRANCH   4   5
TORSDOF 4
ENDMDL
MODEL      232
REMARK 921   NORMALIZED FREE ENERGY PREDICTED BY IDOCK:   -1.62 KCAL/MOL
REMARK 922        TOTAL FREE ENERGY PREDICTED BY IDOCK:   -2.50 KCAL/MOL
REMARK 923 INTER-LIGAND FREE ENERGY PREDICTED BY IDOCK:   -2.13 KCAL/MOL
REMARK 924 INTRA-LIGAND FREE ENERGY PREDICTED BY IDOCK:   -0.37 KCAL/MOL
REMARK 927      BINDING AFFINITY PREDICTED BY RF-SCORE:    0.00 PKD
ROOT
HETATM    1  O   UNL     1     -10.460   6.951  70.826  1.00  0.00    -0.212 OA 
HETATM    2  C   UNL     1     -10.623   7.270  69.521  1.00  0.00    -0.234 C  
HETATM    3  O   UNL     1     -11.253   6.567  68.749  1.00  0.00    -0.293 OA 
HETATM    4  C   UNL     1      -9.925   8.560  69.162  1.00  0.00    -0.194 C  
ENDROOT
BRANCH   4   5
HETATM    5  C   UNL     1     -10.073   8.911  67.680  1.00  0.00    -0.274 C  
BRANCH   5   6
HETATM    6  C   UNL     1      -8.859   8.494  66.841  1.00  0.00    -0.153 C  
BRANCH   6   7
HETATM    7  C   UNL     1      -9.174   7.376  65.836  1.00  0.00    -0.022 C  
BRANCH   7   8
HETATM    8  C   UNL     1      -8.084   6.294  65.749  1.00  0.00    -0.126 C  
HETATM    9  C   UNL     1      -8.442   5.180  64.754  1.00  0.00    -0.150 C  
HETATM   10  C   UNL     1      -9.567   4.292  65.284  1.00  0.00    -0.185 C  
HETATM   11  S   UNL     1      -9.248   3.961  67.036  1.00  0.00    -0.188 SA 
HETATM   12  S   UNL     1      -7.835   5.417  67.327  1.00  0.00    -0.101 SA 
ENDBRANCH   7   8
ENDBRANCH   6   7
ENDBRANCH   5   6
ENDBRANCH   4   5
TORSDOF 4
ENDMDL
MODEL      233
REMARK 921   NORMALIZED FREE ENERGY PREDICTED BY IDOCK:   -1.59 KCAL/MOL
REMARK 922        TOTAL FREE ENERGY PREDICTED BY IDOCK:   -2.47 KCAL/MOL
REMARK 923 INTER-LIGAND FREE ENERGY PREDICTED BY IDOCK:   -2.08 KCAL/MOL
REMARK 924 INTRA-LIGAND FREE ENERGY PREDICTED BY IDOCK:   -0.39 KCAL/MOL
REMARK 927      BINDING AFFINITY PREDICTED BY RF-SCORE:    0.00 PKD
ROOT
HETATM    1  O   UNL     1      -9.026   7.162  72.762  1.00  0.00    -0.130 OA 
HETATM    2  C   UNL     1      -9.683   6.495  71.784  1.00  0.00    -0.158 C  
HETATM    3  O   UNL     1      -9.807   5.281  71.790  1.00  0.00    -0.160 OA 
HETATM    4  C   UNL     1     -10.204   7.425  70.714  1.00  0.00    -0.200 C  
ENDROOT
BRANCH   4   5
HETATM    5  C   UNL     1     -10.916   6.676  69.586  1.00  0.00    -0.367 C  
BRANCH   5   6
HETATM    6  C   UNL     1     -10.474   7.132  68.191  1.00  0.00    -0.244 C  
BRANCH   6   7
HETATM    7  C   UNL     1      -8.949   7.132  68.010  1.00  0.00    -0.127 C  
BRANCH   7   8
HETATM    8  C   UNL     1      -8.415   8.357  67.248  1.00  0.00    -0.124 C  
HETATM    9  C   UNL     1      -7.301   9.085  68.015  1.00  0.00    -0.084 C  
HETATM   10  C   UNL     1      -7.849   9.828  69.234  1.00  0.00    -0.105 C  
HETATM   11  S   UNL     1      -9.389  10.649  68.749  1.00  0.00    -0.184 SA 
HETATM   12  S   UNL     1      -9.687   9.637  66.992  1.00  0.00    -0.192 SA 
ENDBRANCH   7   8
ENDBRANCH   6   7
ENDBRANCH   5   6
ENDBRANCH   4   5
TORSDOF 4
ENDMDL
MODEL      234
REMARK 921   NORMALIZED FREE ENERGY PREDICTED BY IDOCK:   -1.53 KCAL/MOL
REMARK 922        TOTAL FREE ENERGY PREDICTED BY IDOCK:   -2.39 KCAL/MOL
REMARK 923 INTER-LIGAND FREE ENERGY PREDICTED BY IDOCK:   -2.12 KCAL/MOL
REMARK 924 INTRA-LIGAND FREE ENERGY PREDICTED BY IDOCK:   -0.28 KCAL/MOL
REMARK 927      BINDING AFFINITY PREDICTED BY RF-SCORE:    0.00 PKD
ROOT
HETATM    1  O   UNL     1     -11.467   8.382  70.975  1.00  0.00    -0.263 OA 
HETATM    2  C   UNL     1     -11.230   7.099  71.337  1.00  0.00    -0.251 C  
HETATM    3  O   UNL     1     -12.111   6.362  71.748  1.00  0.00    -0.340 OA 
HETATM    4  C   UNL     1      -9.775   6.726  71.185  1.00  0.00    -0.181 C  
ENDROOT
BRANCH   4   5
HETATM    5  C   UNL     1      -9.492   5.288  71.625  1.00  0.00    -0.187 C  
BRANCH   5   6
HETATM    6  C   UNL     1      -8.629   4.513  70.622  1.00  0.00    -0.118 C  
BRANCH   6   7
HETATM    7  C   UNL     1      -8.859   4.945  69.167  1.00  0.00    -0.118 C  
BRANCH   7   8
HETATM    8  C   UNL     1      -9.712   3.956  68.354  1.00  0.00    -0.045 C  
HETATM    9  C   UNL     1      -9.199   2.512  68.463  1.00  0.00    -0.250 C  
HETATM   10  C   UNL     1      -7.888   2.321  67.701  1.00  0.00    -0.060 C  
HETATM   11  S   UNL     1      -8.025   3.184  66.115  1.00  0.00    -0.085 SA 
HETATM   12  S   UNL     1      -9.682   4.304  66.565  1.00  0.00    -0.217 SA 
ENDBRANCH   7   8
ENDBRANCH   6   7
ENDBRANCH   5   6
ENDBRANCH   4   5
TORSDOF 4
ENDMDL
MODEL      235
REMARK 921   NORMALIZED FREE ENERGY PREDICTED BY IDOCK:   -1.53 KCAL/MOL
REMARK 922        TOTAL FREE ENERGY PREDICTED BY IDOCK:   -2.39 KCAL/MOL
REMARK 923 INTER-LIGAND FREE ENERGY PREDICTED BY IDOCK:   -2.10 KCAL/MOL
REMARK 924 INTRA-LIGAND FREE ENERGY PREDICTED BY IDOCK:   -0.29 KCAL/MOL
REMARK 927      BINDING AFFINITY PREDICTED BY RF-SCORE:    0.00 PKD
ROOT
HETATM    1  O   UNL     1     -12.293   7.684  71.221  1.00  0.00    -0.314 OA 
HETATM    2  C   UNL     1     -11.089   7.645  70.603  1.00  0.00    -0.257 C  
HETATM    3  O   UNL     1     -10.309   8.582  70.630  1.00  0.00    -0.192 OA 
HETATM    4  C   UNL     1     -10.862   6.335  69.886  1.00  0.00    -0.399 C  
ENDROOT
BRANCH   4   5
HETATM    5  C   UNL     1      -9.519   6.296  69.155  1.00  0.00    -0.139 C  
BRANCH   5   6
HETATM    6  C   UNL     1      -8.543   5.273  69.749  1.00  0.00    -0.102 C  
BRANCH   6   7
HETATM    7  C   UNL     1      -8.233   5.525  71.232  1.00  0.00    -0.125 C  
BRANCH   7   8
HETATM    8  C   UNL     1      -7.856   4.253  72.011  1.00  0.00    -0.085 C  
HETATM    9  C   UNL     1      -8.734   3.051  71.631  1.00  0.00    -0.113 C  
HETATM   10  C   UNL     1     -10.158   3.202  72.166  1.00  0.00    -0.130 C  
HETATM   11  S   UNL     1     -10.060   3.834  73.861  1.00  0.00    -0.147 SA 
HETATM   12  S   UNL     1      -8.099   4.429  73.808  1.00  0.00    -0.097 SA 
ENDBRANCH   7   8
ENDBRANCH   6   7
ENDBRANCH   5   6
ENDBRANCH   4   5
TORSDOF 4
ENDMDL
MODEL      236
REMARK 921   NORMALIZED FREE ENERGY PREDICTED BY IDOCK:   -1.51 KCAL/MOL
REMARK 922        TOTAL FREE ENERGY PREDICTED BY IDOCK:   -2.37 KCAL/MOL
REMARK 923 INTER-LIGAND FREE ENERGY PREDICTED BY IDOCK:   -2.19 KCAL/MOL
REMARK 924 INTRA-LIGAND FREE ENERGY PREDICTED BY IDOCK:   -0.18 KCAL/MOL
REMARK 927      BINDING AFFINITY PREDICTED BY RF-SCORE:    0.00 PKD
ROOT
HETATM    1  O   UNL     1      -6.526   8.328  67.775  1.00  0.00    -0.054 OA 
HETATM    2  C   UNL     1      -6.908   9.500  67.216  1.00  0.00    -0.084 C  
HETATM    3  O   UNL     1      -6.508   9.865  66.123  1.00  0.00    -0.072 OA 
HETATM    4  C   UNL     1      -7.848  10.274  68.109  1.00  0.00    -0.104 C  
ENDROOT
BRANCH   4   5
HETATM    5  C   UNL     1      -8.257  11.617  67.502  1.00  0.00    -0.148 C  
BRANCH   5   6
HETATM    6  C   UNL     1      -9.743  11.939  67.705  1.00  0.00    -0.186 C  
BRANCH   6   7
HETATM    7  C   UNL     1     -10.000  13.415  68.041  1.00  0.00    -0.239 C  
BRANCH   7   8
HETATM    8  C   UNL     1      -9.401  14.397  67.019  1.00  0.00    -0.242 C  
HETATM    9  C   UNL     1      -8.338  15.315  67.641  1.00  0.00    -0.176 C  
HETATM   10  C   UNL     1      -8.965  16.351  68.574  1.00  0.00    -0.224 C  
HETATM   11  S   UNL     1     -10.459  16.997  67.779  1.00  0.00    -0.350 SA 
HETATM   12  S   UNL     1     -10.639  15.549  66.339  1.00  0.00    -0.311 SA 
ENDBRANCH   7   8
ENDBRANCH   6   7
ENDBRANCH   5   6
ENDBRANCH   4   5
TORSDOF 4
ENDMDL
MODEL      237
REMARK 921   NORMALIZED FREE ENERGY PREDICTED BY IDOCK:   -1.50 KCAL/MOL
REMARK 922        TOTAL FREE ENERGY PREDICTED BY IDOCK:   -2.35 KCAL/MOL
REMARK 923 INTER-LIGAND FREE ENERGY PREDICTED BY IDOCK:   -1.87 KCAL/MOL
REMARK 924 INTRA-LIGAND FREE ENERGY PREDICTED BY IDOCK:   -0.48 KCAL/MOL
REMARK 927      BINDING AFFINITY PREDICTED BY RF-SCORE:    0.00 PKD
ROOT
HETATM    1  O   UNL     1     -11.480   6.339  70.057  1.00  0.00    -0.412 OA 
HETATM    2  C   UNL     1     -10.884   6.704  68.897  1.00  0.00    -0.277 C  
HETATM    3  O   UNL     1     -11.332   6.394  67.806  1.00  0.00    -0.266 OA 
HETATM    4  C   UNL     1      -9.624   7.501  69.134  1.00  0.00    -0.157 C  
ENDROOT
BRANCH   4   5
HETATM    5  C   UNL     1      -8.924   7.887  67.830  1.00  0.00    -0.128 C  
BRANCH   5   6
HETATM    6  C   UNL     1      -7.707   7.007  67.519  1.00  0.00    -0.111 C  
BRANCH   6   7
HETATM    7  C   UNL     1      -8.051   5.784  66.656  1.00  0.00    -0.102 C  
BRANCH   7   8
HETATM    8  C   UNL     1      -7.267   4.516  67.036  1.00  0.00    -0.073 C  
HETATM    9  C   UNL     1      -8.148   3.258  67.029  1.00  0.00    -0.083 C  
HETATM   10  C   UNL     1      -9.127   3.250  68.202  1.00  0.00    -0.165 C  
HETATM   11  S   UNL     1      -8.242   3.805  69.682  1.00  0.00    -0.053 SA 
HETATM   12  S   UNL     1      -6.600   4.582  68.731  1.00  0.00    -0.046 SA 
ENDBRANCH   7   8
ENDBRANCH   6   7
ENDBRANCH   5   6
ENDBRANCH   4   5
TORSDOF 4
ENDMDL
MODEL      238
REMARK 921   NORMALIZED FREE ENERGY PREDICTED BY IDOCK:   -1.48 KCAL/MOL
REMARK 922        TOTAL FREE ENERGY PREDICTED BY IDOCK:   -2.33 KCAL/MOL
REMARK 923 INTER-LIGAND FREE ENERGY PREDICTED BY IDOCK:   -2.14 KCAL/MOL
REMARK 924 INTRA-LIGAND FREE ENERGY PREDICTED BY IDOCK:   -0.19 KCAL/MOL
REMARK 927      BINDING AFFINITY PREDICTED BY RF-SCORE:    0.00 PKD
ROOT
HETATM    1  O   UNL     1     -13.901  15.957  72.886  1.00  0.00    -0.605 OA 
HETATM    2  C   UNL     1     -12.958  15.377  72.107  1.00  0.00    -0.394 C  
HETATM    3  O   UNL     1     -12.684  14.191  72.185  1.00  0.00    -0.332 OA 
HETATM    4  C   UNL     1     -12.300  16.370  71.178  1.00  0.00     0.473 C  
ENDROOT
BRANCH   4   5
HETATM    5  C   UNL     1     -11.207  15.731  70.320  1.00  0.00    -0.377 C  
BRANCH   5   6
HETATM    6  C   UNL     1     -11.747  15.110  69.026  1.00  0.00    -0.358 C  
BRANCH   6   7
HETATM    7  C   UNL     1     -10.639  14.599  68.093  1.00  0.00    -0.237 C  
BRANCH   7   8
HETATM    8  C   UNL     1      -9.591  13.720  68.798  1.00  0.00    -0.040 C  
HETATM    9  C   UNL     1      -8.153  14.112  68.427  1.00  0.00    -0.144 C  
HETATM   10  C   UNL     1      -7.815  13.718  66.990  1.00  0.00     0.130 C  
HETATM   11  S   UNL     1      -8.476  12.058  66.688  1.00  0.00    -0.060 SA 
HETATM   12  S   UNL     1      -9.710  11.965  68.323  1.00  0.00    -0.196 SA 
ENDBRANCH   7   8
ENDBRANCH   6   7
ENDBRANCH   5   6
ENDBRANCH   4   5
TORSDOF 4
ENDMDL
MODEL      239
REMARK 921   NORMALIZED FREE ENERGY PREDICTED BY IDOCK:   -1.44 KCAL/MOL
REMARK 922        TOTAL FREE ENERGY PREDICTED BY IDOCK:   -2.29 KCAL/MOL
REMARK 923 INTER-LIGAND FREE ENERGY PREDICTED BY IDOCK:   -2.17 KCAL/MOL
REMARK 924 INTRA-LIGAND FREE ENERGY PREDICTED BY IDOCK:   -0.12 KCAL/MOL
REMARK 927      BINDING AFFINITY PREDICTED BY RF-SCORE:    0.00 PKD
ROOT
HETATM    1  O   UNL     1      -7.948   2.846  73.048  1.00  0.00    -0.057 OA 
HETATM    2  C   UNL     1      -9.077   3.297  72.453  1.00  0.00    -0.096 C  
HETATM    3  O   UNL     1     -10.064   2.596  72.304  1.00  0.00    -0.162 OA 
HETATM    4  C   UNL     1      -8.944   4.731  71.997  1.00  0.00    -0.144 C  
ENDROOT
BRANCH   4   5
HETATM    5  C   UNL     1     -10.202   5.238  71.291  1.00  0.00    -0.291 C  
BRANCH   5   6
HETATM    6  C   UNL     1      -9.898   6.222  70.155  1.00  0.00    -0.201 C  
BRANCH   6   7
HETATM    7  C   UNL     1     -10.572   7.589  70.342  1.00  0.00    -0.236 C  
BRANCH   7   8
HETATM    8  C   UNL     1      -9.625   8.783  70.122  1.00  0.00    -0.173 C  
HETATM    9  C   UNL     1     -10.189  10.091  70.697  1.00  0.00    -0.080 C  
HETATM   10  C   UNL     1     -11.365  10.609  69.870  1.00  0.00    -0.313 C  
HETATM   11  S   UNL     1     -10.949  10.420  68.117  1.00  0.00    -0.280 SA 
HETATM   12  S   UNL     1      -9.356   9.153  68.358  1.00  0.00    -0.134 SA 
ENDBRANCH   7   8
ENDBRANCH   6   7
ENDBRANCH   5   6
ENDBRANCH   4   5
TORSDOF 4
ENDMDL
MODEL      240
REMARK 921   NORMALIZED FREE ENERGY PREDICTED BY IDOCK:   -1.37 KCAL/MOL
REMARK 922        TOTAL FREE ENERGY PREDICTED BY IDOCK:   -2.20 KCAL/MOL
REMARK 923 INTER-LIGAND FREE ENERGY PREDICTED BY IDOCK:   -1.99 KCAL/MOL
REMARK 924 INTRA-LIGAND FREE ENERGY PREDICTED BY IDOCK:   -0.20 KCAL/MOL
REMARK 927      BINDING AFFINITY PREDICTED BY RF-SCORE:    0.00 PKD
ROOT
HETATM    1  O   UNL     1      -7.169   5.619  66.305  1.00  0.00    -0.074 OA 
HETATM    2  C   UNL     1      -8.229   5.367  67.107  1.00  0.00    -0.104 C  
HETATM    3  O   UNL     1      -9.348   5.789  66.865  1.00  0.00    -0.121 OA 
HETATM    4  C   UNL     1      -7.846   4.538  68.310  1.00  0.00    -0.080 C  
ENDROOT
BRANCH   4   5
HETATM    5  C   UNL     1      -9.031   4.278  69.241  1.00  0.00    -0.154 C  
BRANCH   5   6
HETATM    6  C   UNL     1      -8.871   4.940  70.615  1.00  0.00    -0.147 C  
BRANCH   6   7
HETATM    7  C   UNL     1     -10.111   4.786  71.508  1.00  0.00    -0.260 C  
BRANCH   7   8
HETATM    8  C   UNL     1      -9.910   5.309  72.942  1.00  0.00    -0.156 C  
HETATM    9  C   UNL     1     -11.019   6.281  73.371  1.00  0.00    -0.172 C  
HETATM   10  C   UNL     1     -10.903   7.622  72.649  1.00  0.00    -0.340 C  
HETATM   11  S   UNL     1      -9.155   8.098  72.618  1.00  0.00    -0.269 SA 
HETATM   12  S   UNL     1      -8.376   6.273  73.132  1.00  0.00    -0.116 SA 
ENDBRANCH   7   8
ENDBRANCH   6   7
ENDBRANCH   5   6
ENDBRANCH   4   5
TORSDOF 4
ENDMDL
MODEL      241
REMARK 921   NORMALIZED FREE ENERGY PREDICTED BY IDOCK:   -1.36 KCAL/MOL
REMARK 922        TOTAL FREE ENERGY PREDICTED BY IDOCK:   -2.19 KCAL/MOL
REMARK 923 INTER-LIGAND FREE ENERGY PREDICTED BY IDOCK:   -1.89 KCAL/MOL
REMARK 924 INTRA-LIGAND FREE ENERGY PREDICTED BY IDOCK:   -0.30 KCAL/MOL
REMARK 927      BINDING AFFINITY PREDICTED BY RF-SCORE:    0.00 PKD
ROOT
HETATM    1  O   UNL     1      -8.962   7.199  74.116  1.00  0.00    -0.188 OA 
HETATM    2  C   UNL     1      -8.399   6.434  73.151  1.00  0.00    -0.115 C  
HETATM    3  O   UNL     1      -7.401   5.762  73.348  1.00  0.00    -0.089 OA 
HETATM    4  C   UNL     1      -9.140   6.541  71.839  1.00  0.00    -0.148 C  
ENDROOT
BRANCH   4   5
HETATM    5  C   UNL     1      -8.490   5.709  70.732  1.00  0.00    -0.124 C  
BRANCH   5   6
HETATM    6  C   UNL     1      -7.636   6.548  69.773  1.00  0.00    -0.097 C  
BRANCH   6   7
HETATM    7  C   UNL     1      -8.406   7.721  69.149  1.00  0.00    -0.134 C  
BRANCH   7   8
HETATM    8  C   UNL     1      -8.440   7.691  67.611  1.00  0.00    -0.117 C  
HETATM    9  C   UNL     1      -9.749   8.258  67.042  1.00  0.00    -0.274 C  
HETATM   10  C   UNL     1     -10.925   7.313  67.289  1.00  0.00    -0.214 C  
HETATM   11  S   UNL     1     -10.373   5.622  66.950  1.00  0.00    -0.288 SA 
HETATM   12  S   UNL     1      -8.358   6.000  66.937  1.00  0.00    -0.105 SA 
ENDBRANCH   7   8
ENDBRANCH   6   7
ENDBRANCH   5   6
ENDBRANCH   4   5
TORSDOF 4
ENDMDL
MODEL      242
REMARK 921   NORMALIZED FREE ENERGY PREDICTED BY IDOCK:   -1.36 KCAL/MOL
REMARK 922        TOTAL FREE ENERGY PREDICTED BY IDOCK:   -2.19 KCAL/MOL
REMARK 923 INTER-LIGAND FREE ENERGY PREDICTED BY IDOCK:   -2.03 KCAL/MOL
REMARK 924 INTRA-LIGAND FREE ENERGY PREDICTED BY IDOCK:   -0.16 KCAL/MOL
REMARK 927      BINDING AFFINITY PREDICTED BY RF-SCORE:    0.00 PKD
ROOT
HETATM    1  O   UNL     1     -12.360   7.877  71.650  1.00  0.00    -0.296 OA 
HETATM    2  C   UNL     1     -11.922   9.080  71.209  1.00  0.00    -0.312 C  
HETATM    3  O   UNL     1     -12.547  10.111  71.394  1.00  0.00    -0.352 OA 
HETATM    4  C   UNL     1     -10.612   8.969  70.466  1.00  0.00    -0.274 C  
ENDROOT
BRANCH   4   5
HETATM    5  C   UNL     1     -10.128  10.319  69.932  1.00  0.00    -0.219 C  
BRANCH   5   6
HETATM    6  C   UNL     1      -9.416  10.208  68.579  1.00  0.00    -0.159 C  
BRANCH   6   7
HETATM    7  C   UNL     1      -8.412   9.048  68.517  1.00  0.00    -0.128 C  
BRANCH   7   8
HETATM    8  C   UNL     1      -7.067   9.425  67.872  1.00  0.00    -0.081 C  
HETATM    9  C   UNL     1      -7.071   9.226  66.349  1.00  0.00    -0.088 C  
HETATM   10  C   UNL     1      -7.066   7.744  65.975  1.00  0.00    -0.065 C  
HETATM   11  S   UNL     1      -5.894   6.891  67.061  1.00  0.00    -0.018 SA 
HETATM   12  S   UNL     1      -5.690   8.383  68.453  1.00  0.00    -0.038 SA 
ENDBRANCH   7   8
ENDBRANCH   6   7
ENDBRANCH   5   6
ENDBRANCH   4   5
TORSDOF 4
ENDMDL
MODEL      243
REMARK 921   NORMALIZED FREE ENERGY PREDICTED BY IDOCK:   -1.34 KCAL/MOL
REMARK 922        TOTAL FREE ENERGY PREDICTED BY IDOCK:   -2.16 KCAL/MOL
REMARK 923 INTER-LIGAND FREE ENERGY PREDICTED BY IDOCK:   -1.93 KCAL/MOL
REMARK 924 INTRA-LIGAND FREE ENERGY PREDICTED BY IDOCK:   -0.23 KCAL/MOL
REMARK 927      BINDING AFFINITY PREDICTED BY RF-SCORE:    0.00 PKD
ROOT
HETATM    1  O   UNL     1      -9.785   7.478  73.293  1.00  0.00    -0.220 OA 
HETATM    2  C   UNL     1     -10.134   7.341  71.993  1.00  0.00    -0.184 C  
HETATM    3  O   UNL     1     -10.719   6.356  71.573  1.00  0.00    -0.225 OA 
HETATM    4  C   UNL     1      -9.698   8.522  71.160  1.00  0.00    -0.257 C  
ENDROOT
BRANCH   4   5
HETATM    5  C   UNL     1     -10.056   8.359  69.682  1.00  0.00    -0.199 C  
BRANCH   5   6
HETATM    6  C   UNL     1      -8.885   8.674  68.742  1.00  0.00    -0.139 C  
BRANCH   6   7
HETATM    7  C   UNL     1      -7.899   9.696  69.327  1.00  0.00    -0.098 C  
BRANCH   7   8
HETATM    8  C   UNL     1      -7.017  10.381  68.270  1.00  0.00    -0.070 C  
HETATM    9  C   UNL     1      -7.002  11.910  68.421  1.00  0.00    -0.078 C  
HETATM   10  C   UNL     1      -8.335  12.530  68.005  1.00  0.00    -0.171 C  
HETATM   11  S   UNL     1      -8.890  11.711  66.487  1.00  0.00    -0.175 SA 
HETATM   12  S   UNL     1      -7.614  10.109  66.570  1.00  0.00    -0.113 SA 
ENDBRANCH   7   8
ENDBRANCH   6   7
ENDBRANCH   5   6
ENDBRANCH   4   5
TORSDOF 4
ENDMDL
MODEL      244
REMARK 921   NORMALIZED FREE ENERGY PREDICTED BY IDOCK:   -1.33 KCAL/MOL
REMARK 922        TOTAL FREE ENERGY PREDICTED BY IDOCK:   -2.14 KCAL/MOL
REMARK 923 INTER-LIGAND FREE ENERGY PREDICTED BY IDOCK:   -1.69 KCAL/MOL
REMARK 924 INTRA-LIGAND FREE ENERGY PREDICTED BY IDOCK:   -0.45 KCAL/MOL
REMARK 927      BINDING AFFINITY PREDICTED BY RF-SCORE:    0.00 PKD
ROOT
HETATM    1  O   UNL     1     -12.177   7.783  71.101  1.00  0.00    -0.308 OA 
HETATM    2  C   UNL     1     -11.139   8.135  70.308  1.00  0.00    -0.221 C  
HETATM    3  O   UNL     1     -10.386   9.054  70.585  1.00  0.00    -0.199 OA 
HETATM    4  C   UNL     1     -11.057   7.278  69.067  1.00  0.00     0.006 C  
ENDROOT
BRANCH   4   5
HETATM    5  C   UNL     1      -9.907   7.692  68.146  1.00  0.00    -0.186 C  
BRANCH   5   6
HETATM    6  C   UNL     1      -8.642   6.851  68.350  1.00  0.00    -0.125 C  
BRANCH   6   7
HETATM    7  C   UNL     1      -8.936   5.360  68.572  1.00  0.00    -0.114 C  
BRANCH   7   8
HETATM    8  C   UNL     1      -7.961   4.674  69.544  1.00  0.00    -0.062 C  
HETATM    9  C   UNL     1      -8.672   3.699  70.496  1.00  0.00    -0.124 C  
HETATM   10  C   UNL     1      -9.509   4.440  71.538  1.00  0.00    -0.152 C  
HETATM   11  S   UNL     1      -8.546   5.852  72.138  1.00  0.00    -0.128 SA 
HETATM   12  S   UNL     1      -7.129   5.853  70.657  1.00  0.00    -0.076 SA 
ENDBRANCH   7   8
ENDBRANCH   6   7
ENDBRANCH   5   6
ENDBRANCH   4   5
TORSDOF 4
ENDMDL
MODEL      245
REMARK 921   NORMALIZED FREE ENERGY PREDICTED BY IDOCK:   -1.29 KCAL/MOL
REMARK 922        TOTAL FREE ENERGY PREDICTED BY IDOCK:   -2.10 KCAL/MOL
REMARK 923 INTER-LIGAND FREE ENERGY PREDICTED BY IDOCK:   -1.91 KCAL/MOL
REMARK 924 INTRA-LIGAND FREE ENERGY PREDICTED BY IDOCK:   -0.20 KCAL/MOL
REMARK 927      BINDING AFFINITY PREDICTED BY RF-SCORE:    0.00 PKD
ROOT
HETATM    1  O   UNL     1     -12.458   6.731  70.853  1.00  0.00    -0.364 OA 
HETATM    2  C   UNL     1     -11.160   6.354  70.917  1.00  0.00    -0.298 C  
HETATM    3  O   UNL     1     -10.757   5.527  71.718  1.00  0.00    -0.231 OA 
HETATM    4  C   UNL     1     -10.307   7.087  69.909  1.00  0.00    -0.225 C  
ENDROOT
BRANCH   4   5
HETATM    5  C   UNL     1      -8.831   6.694  69.997  1.00  0.00    -0.141 C  
BRANCH   5   6
HETATM    6  C   UNL     1      -8.396   5.741  68.878  1.00  0.00    -0.101 C  
BRANCH   6   7
HETATM    7  C   UNL     1      -7.703   6.457  67.710  1.00  0.00    -0.103 C  
BRANCH   7   8
HETATM    8  C   UNL     1      -7.472   7.959  67.952  1.00  0.00    -0.104 C  
HETATM    9  C   UNL     1      -8.477   8.836  67.189  1.00  0.00    -0.110 C  
HETATM   10  C   UNL     1      -8.203   8.829  65.686  1.00  0.00    -0.121 C  
HETATM   11  S   UNL     1      -6.414   8.963  65.437  1.00  0.00    -0.068 SA 
HETATM   12  S   UNL     1      -5.846   8.527  67.357  1.00  0.00    -0.044 SA 
ENDBRANCH   7   8
ENDBRANCH   6   7
ENDBRANCH   5   6
ENDBRANCH   4   5
TORSDOF 4
ENDMDL
MODEL      246
REMARK 921   NORMALIZED FREE ENERGY PREDICTED BY IDOCK:   -1.29 KCAL/MOL
REMARK 922        TOTAL FREE ENERGY PREDICTED BY IDOCK:   -2.10 KCAL/MOL
REMARK 923 INTER-LIGAND FREE ENERGY PREDICTED BY IDOCK:   -1.66 KCAL/MOL
REMARK 924 INTRA-LIGAND FREE ENERGY PREDICTED BY IDOCK:   -0.44 KCAL/MOL
REMARK 927      BINDING AFFINITY PREDICTED BY RF-SCORE:    0.00 PKD
ROOT
HETATM    1  O   UNL     1     -11.605   7.738  70.766  1.00  0.00    -0.286 OA 
HETATM    2  C   UNL     1     -10.643   8.679  70.619  1.00  0.00    -0.211 C  
HETATM    3  O   UNL     1     -10.340   9.451  71.513  1.00  0.00    -0.327 OA 
HETATM    4  C   UNL     1     -10.033   8.656  69.237  1.00  0.00    -0.195 C  
ENDROOT
BRANCH   4   5
HETATM    5  C   UNL     1      -8.970   9.740  69.049  1.00  0.00    -0.154 C  
BRANCH   5   6
HETATM    6  C   UNL     1      -7.549   9.244  69.344  1.00  0.00    -0.080 C  
BRANCH   6   7
HETATM    7  C   UNL     1      -7.291   7.817  68.839  1.00  0.00    -0.086 C  
BRANCH   7   8
HETATM    8  C   UNL     1      -6.311   7.018  69.716  1.00  0.00    -0.039 C  
HETATM    9  C   UNL     1      -6.752   5.559  69.907  1.00  0.00    -0.051 C  
HETATM   10  C   UNL     1      -7.972   5.455  70.821  1.00  0.00    -0.099 C  
HETATM   11  S   UNL     1      -7.732   6.586  72.216  1.00  0.00    -0.097 SA 
HETATM   12  S   UNL     1      -6.190   7.671  71.413  1.00  0.00    -0.035 SA 
ENDBRANCH   7   8
ENDBRANCH   6   7
ENDBRANCH   5   6
ENDBRANCH   4   5
TORSDOF 4
ENDMDL
MODEL      247
REMARK 921   NORMALIZED FREE ENERGY PREDICTED BY IDOCK:   -1.20 KCAL/MOL
REMARK 922        TOTAL FREE ENERGY PREDICTED BY IDOCK:   -1.99 KCAL/MOL
REMARK 923 INTER-LIGAND FREE ENERGY PREDICTED BY IDOCK:   -1.75 KCAL/MOL
REMARK 924 INTRA-LIGAND FREE ENERGY PREDICTED BY IDOCK:   -0.24 KCAL/MOL
REMARK 927      BINDING AFFINITY PREDICTED BY RF-SCORE:    0.00 PKD
ROOT
HETATM    1  O   UNL     1      -8.236   3.644  72.549  1.00  0.00    -0.078 OA 
HETATM    2  C   UNL     1      -9.232   3.672  71.633  1.00  0.00    -0.122 C  
HETATM    3  O   UNL     1     -10.052   2.775  71.530  1.00  0.00    -0.112 OA 
HETATM    4  C   UNL     1      -9.177   4.914  70.774  1.00  0.00    -0.196 C  
ENDROOT
BRANCH   4   5
HETATM    5  C   UNL     1     -10.278   4.937  69.712  1.00  0.00    -0.284 C  
BRANCH   5   6
HETATM    6  C   UNL     1      -9.793   5.471  68.358  1.00  0.00    -0.186 C  
BRANCH   6   7
HETATM    7  C   UNL     1      -9.661   7.001  68.325  1.00  0.00    -0.134 C  
BRANCH   7   8
HETATM    8  C   UNL     1      -8.209   7.500  68.436  1.00  0.00    -0.125 C  
HETATM    9  C   UNL     1      -7.970   8.326  69.709  1.00  0.00    -0.106 C  
HETATM   10  C   UNL     1      -8.649   9.693  69.630  1.00  0.00    -0.187 C  
HETATM   11  S   UNL     1      -8.372  10.366  67.971  1.00  0.00    -0.120 SA 
HETATM   12  S   UNL     1      -7.747   8.628  67.082  1.00  0.00    -0.097 SA 
ENDBRANCH   7   8
ENDBRANCH   6   7
ENDBRANCH   5   6
ENDBRANCH   4   5
TORSDOF 4
ENDMDL
MODEL      248
REMARK 921   NORMALIZED FREE ENERGY PREDICTED BY IDOCK:   -0.97 KCAL/MOL
REMARK 922        TOTAL FREE ENERGY PREDICTED BY IDOCK:   -1.70 KCAL/MOL
REMARK 923 INTER-LIGAND FREE ENERGY PREDICTED BY IDOCK:   -1.49 KCAL/MOL
REMARK 924 INTRA-LIGAND FREE ENERGY PREDICTED BY IDOCK:   -0.21 KCAL/MOL
REMARK 927      BINDING AFFINITY PREDICTED BY RF-SCORE:    0.00 PKD
ROOT
HETATM    1  O   UNL     1      -5.707   1.656  71.677  1.00  0.00    -0.008 OA 
HETATM    2  C   UNL     1      -6.775   2.473  71.837  1.00  0.00    -0.018 C  
HETATM    3  O   UNL     1      -7.923   2.073  71.744  1.00  0.00    -0.044 OA 
HETATM    4  C   UNL     1      -6.361   3.898  72.115  1.00  0.00    -0.014 C  
ENDROOT
BRANCH   4   5
HETATM    5  C   UNL     1      -7.562   4.836  72.261  1.00  0.00    -0.085 C  
BRANCH   5   6
HETATM    6  C   UNL     1      -7.263   6.269  71.804  1.00  0.00    -0.087 C  
BRANCH   6   7
HETATM    7  C   UNL     1      -7.903   6.618  70.453  1.00  0.00    -0.106 C  
BRANCH   7   8
HETATM    8  C   UNL     1      -9.117   7.557  70.566  1.00  0.00    -0.156 C  
HETATM    9  C   UNL     1     -10.333   6.869  71.203  1.00  0.00    -0.222 C  
HETATM   10  C   UNL     1     -10.959   5.843  70.258  1.00  0.00    -0.320 C  
HETATM   11  S   UNL     1     -11.012   6.564  68.597  1.00  0.00    -0.272 SA 
HETATM   12  S   UNL     1      -9.725   8.121  68.944  1.00  0.00    -0.159 SA 
ENDBRANCH   7   8
ENDBRANCH   6   7
ENDBRANCH   5   6
ENDBRANCH   4   5
TORSDOF 4
ENDMDL
MODEL      249
REMARK 921   NORMALIZED FREE ENERGY PREDICTED BY IDOCK:   -0.96 KCAL/MOL
REMARK 922        TOTAL FREE ENERGY PREDICTED BY IDOCK:   -1.69 KCAL/MOL
REMARK 923 INTER-LIGAND FREE ENERGY PREDICTED BY IDOCK:   -1.67 KCAL/MOL
REMARK 924 INTRA-LIGAND FREE ENERGY PREDICTED BY IDOCK:   -0.03 KCAL/MOL
REMARK 927      BINDING AFFINITY PREDICTED BY RF-SCORE:    0.00 PKD
ROOT
HETATM    1  O   UNL     1     -12.150   7.713  71.171  1.00  0.00    -0.308 OA 
HETATM    2  C   UNL     1     -10.977   7.843  70.508  1.00  0.00    -0.248 C  
HETATM    3  O   UNL     1     -10.176   8.728  70.762  1.00  0.00    -0.191 OA 
HETATM    4  C   UNL     1     -10.812   6.793  69.435  1.00  0.00    -0.312 C  
ENDROOT
BRANCH   4   5
HETATM    5  C   UNL     1      -9.506   6.955  68.656  1.00  0.00    -0.134 C  
BRANCH   5   6
HETATM    6  C   UNL     1      -8.396   6.015  69.143  1.00  0.00    -0.114 C  
BRANCH   6   7
HETATM    7  C   UNL     1      -8.909   4.615  69.512  1.00  0.00    -0.121 C  
BRANCH   7   8
HETATM    8  C   UNL     1      -7.790   3.580  69.721  1.00  0.00    -0.050 C  
HETATM    9  C   UNL     1      -6.489   3.971  69.004  1.00  0.00    -0.037 C  
HETATM   10  C   UNL     1      -6.617   3.827  67.488  1.00  0.00    -0.042 C  
HETATM   11  S   UNL     1      -7.489   2.278  67.139  1.00  0.00    -0.061 SA 
HETATM   12  S   UNL     1      -8.203   1.945  69.031  1.00  0.00    -0.048 SA 
ENDBRANCH   7   8
ENDBRANCH   6   7
ENDBRANCH   5   6
ENDBRANCH   4   5
TORSDOF 4
ENDMDL
