MODEL        1
REMARK 921   NORMALIZED FREE ENERGY PREDICTED BY IDOCK:   -6.17 KCAL/MOL
REMARK 922        TOTAL FREE ENERGY PREDICTED BY IDOCK:   -9.84 KCAL/MOL
REMARK 923 INTER-LIGAND FREE ENERGY PREDICTED BY IDOCK:   -9.05 KCAL/MOL
REMARK 924 INTRA-LIGAND FREE ENERGY PREDICTED BY IDOCK:   -0.79 KCAL/MOL
REMARK 927      BINDING AFFINITY PREDICTED BY RF-SCORE:    0.00 PKD
ROOT
HETATM    1  C   UNL     1     -11.785  11.597  67.326  1.00  0.00    -0.255 C  
HETATM    2  C   UNL     1     -11.816  13.057  67.777  1.00  0.00    -0.347 C  
ENDROOT
BRANCH   2   3
HETATM    3  C   UNL     1     -11.193  13.246  69.181  1.00  0.00    -0.305 C  
BRANCH   3   4
HETATM    4  C   UNL     1     -12.163  13.692  70.256  1.00  0.00    -0.423 A  
HETATM    5  C   UNL     1     -12.645  12.778  71.204  1.00  0.00    -0.365 A  
HETATM    6  C   UNL     1     -13.935  14.520  72.275  1.00  0.00    -0.600 A  
HETATM    7  C   UNL     1     -13.528  13.190  72.207  1.00  0.00    -0.665 A  
HETATM    8  C   UNL     1     -13.455  15.441  71.346  1.00  0.00    -0.607 A  
HETATM    9  C   UNL     1     -12.570  15.031  70.346  1.00  0.00    -0.399 A  
ENDBRANCH   3   4
ENDBRANCH   2   3
BRANCH   2  10
HETATM   10  N   UNL     1     -11.127  13.868  66.776  1.00  0.00    -0.299 N  
HETATM   11  H   UNL     1     -10.132  14.052  66.906  1.00  0.00     0.000 HD 
HETATM   12  C   UNL     1     -11.748  14.400  65.666  1.00  0.00    -0.356 C  
HETATM   13  O   UNL     1     -12.916  14.176  65.363  1.00  0.00    -0.706 OA 
BRANCH  12  14
HETATM   14  C   UNL     1     -10.812  15.277  64.801  1.00  0.00    -0.358 C  
HETATM   15  N   UNL     1     -11.640  16.229  64.012  1.00  0.00    -1.504 NA 
HETATM   16  H2  UNL     1     -12.261  16.786  64.600  1.00  0.00     0.000 HD 
HETATM   17  H1  UNL     1     -11.024  16.807  63.441  1.00  0.00     0.000 HD 
BRANCH  14  18
HETATM   18  C   UNL     1      -9.823  16.078  65.660  1.00  0.00    -0.309 C  
BRANCH  18  19
HETATM   19  C   UNL     1     -10.416  17.396  66.172  1.00  0.00    -0.284 C  
BRANCH  19  20
HETATM   20  C   UNL     1     -10.557  17.395  67.698  1.00  0.00    -0.350 C  
BRANCH  20  21
HETATM   21  C   UNL     1      -9.603  18.404  68.336  1.00  0.00    -0.345 C  
HETATM   22  N   UNL     1     -10.354  19.490  68.956  1.00  0.00    -0.577 NA 
HETATM   23  H1  UNL     1      -9.718  20.164  69.381  1.00  0.00     0.000 HD 
HETATM   24  H2  UNL     1     -11.042  19.142  69.624  1.00  0.00     0.000 HD 
ENDBRANCH  20  21
ENDBRANCH  19  20
ENDBRANCH  18  19
ENDBRANCH  14  18
ENDBRANCH  12  14
ENDBRANCH   2  10
TORSDOF 8
ENDMDL
MODEL        2
REMARK 921   NORMALIZED FREE ENERGY PREDICTED BY IDOCK:   -5.86 KCAL/MOL
REMARK 922        TOTAL FREE ENERGY PREDICTED BY IDOCK:   -9.39 KCAL/MOL
REMARK 923 INTER-LIGAND FREE ENERGY PREDICTED BY IDOCK:   -8.81 KCAL/MOL
REMARK 924 INTRA-LIGAND FREE ENERGY PREDICTED BY IDOCK:   -0.58 KCAL/MOL
REMARK 927      BINDING AFFINITY PREDICTED BY RF-SCORE:    0.00 PKD
ROOT
HETATM    1  C   UNL     1     -11.457  11.491  67.260  1.00  0.00    -0.338 C  
HETATM    2  C   UNL     1     -11.616  12.930  67.752  1.00  0.00    -0.343 C  
ENDROOT
BRANCH   2   3
HETATM    3  C   UNL     1     -11.080  13.116  69.192  1.00  0.00    -0.248 C  
BRANCH   3   4
HETATM    4  C   UNL     1     -12.103  13.605  70.197  1.00  0.00    -0.431 A  
HETATM    5  C   UNL     1     -12.575  14.925  70.146  1.00  0.00    -0.309 A  
HETATM    6  C   UNL     1     -14.025  14.512  72.037  1.00  0.00    -0.587 A  
HETATM    7  C   UNL     1     -13.530  15.375  71.063  1.00  0.00    -0.510 A  
HETATM    8  C   UNL     1     -13.572  13.195  72.092  1.00  0.00    -0.637 A  
HETATM    9  C   UNL     1     -12.620  12.743  71.174  1.00  0.00    -0.365 A  
ENDBRANCH   3   4
ENDBRANCH   2   3
BRANCH   2  10
HETATM   10  N   UNL     1     -10.938  13.820  66.813  1.00  0.00    -0.301 N  
HETATM   11  H   UNL     1      -9.942  13.991  66.944  1.00  0.00     0.000 HD 
HETATM   12  C   UNL     1     -11.572  14.443  65.760  1.00  0.00    -0.353 C  
HETATM   13  O   UNL     1     -12.745  14.247  65.455  1.00  0.00    -0.507 OA 
BRANCH  12  14
HETATM   14  C   UNL     1     -10.646  15.388  64.958  1.00  0.00    -0.420 C  
HETATM   15  N   UNL     1     -11.487  16.327  64.165  1.00  0.00    -1.386 NA 
HETATM   16  H2  UNL     1     -12.154  16.836  64.745  1.00  0.00     0.000 HD 
HETATM   17  H1  UNL     1     -10.876  16.949  63.637  1.00  0.00     0.000 HD 
BRANCH  14  18
HETATM   18  C   UNL     1      -9.727  16.205  65.878  1.00  0.00    -0.374 C  
BRANCH  18  19
HETATM   19  C   UNL     1     -10.497  17.215  66.736  1.00  0.00    -0.263 C  
BRANCH  19  20
HETATM   20  C   UNL     1      -9.614  18.403  67.135  1.00  0.00    -0.299 C  
BRANCH  20  21
HETATM   21  C   UNL     1     -10.424  19.699  67.173  1.00  0.00    -0.471 C  
HETATM   22  N   UNL     1      -9.586  20.831  66.794  1.00  0.00    -0.663 NA 
HETATM   23  H1  UNL     1     -10.127  21.696  66.820  1.00  0.00     0.000 HD 
HETATM   24  H2  UNL     1      -9.141  20.688  65.888  1.00  0.00     0.000 HD 
ENDBRANCH  20  21
ENDBRANCH  19  20
ENDBRANCH  18  19
ENDBRANCH  14  18
ENDBRANCH  12  14
ENDBRANCH   2  10
TORSDOF 8
ENDMDL
MODEL        3
REMARK 921   NORMALIZED FREE ENERGY PREDICTED BY IDOCK:   -5.81 KCAL/MOL
REMARK 922        TOTAL FREE ENERGY PREDICTED BY IDOCK:   -9.31 KCAL/MOL
REMARK 923 INTER-LIGAND FREE ENERGY PREDICTED BY IDOCK:   -8.62 KCAL/MOL
REMARK 924 INTRA-LIGAND FREE ENERGY PREDICTED BY IDOCK:   -0.68 KCAL/MOL
REMARK 927      BINDING AFFINITY PREDICTED BY RF-SCORE:    0.00 PKD
ROOT
HETATM    1  C   UNL     1     -12.021  16.181  72.792  1.00  0.00    -0.638 C  
HETATM    2  C   UNL     1     -11.922  15.284  71.559  1.00  0.00    -0.366 C  
ENDROOT
BRANCH   2   3
HETATM    3  C   UNL     1     -13.136  14.333  71.431  1.00  0.00    -0.421 C  
BRANCH   3   4
HETATM    4  C   UNL     1     -12.787  12.873  71.222  1.00  0.00    -0.361 A  
HETATM    5  C   UNL     1     -13.345  11.883  72.044  1.00  0.00    -0.425 A  
HETATM    6  C   UNL     1     -12.171  10.160  70.819  1.00  0.00    -0.434 A  
HETATM    7  C   UNL     1     -13.037  10.534  71.844  1.00  0.00    -0.567 A  
HETATM    8  C   UNL     1     -11.618  11.133  69.988  1.00  0.00    -0.421 A  
HETATM    9  C   UNL     1     -11.929  12.481  70.185  1.00  0.00    -0.377 A  
ENDBRANCH   3   4
ENDBRANCH   2   3
BRANCH   2  10
HETATM   10  N   UNL     1     -11.783  16.131  70.377  1.00  0.00    -0.441 N  
HETATM   11  H   UNL     1     -12.580  16.700  70.095  1.00  0.00     0.000 HD 
HETATM   12  C   UNL     1     -10.633  16.202  69.620  1.00  0.00    -0.311 C  
HETATM   13  O   UNL     1      -9.587  15.629  69.911  1.00  0.00    -0.262 OA 
BRANCH  12  14
HETATM   14  C   UNL     1     -10.769  17.119  68.382  1.00  0.00    -0.347 C  
HETATM   15  N   UNL     1      -9.941  18.339  68.594  1.00  0.00    -0.379 NA 
HETATM   16  H2  UNL     1      -8.969  18.117  68.810  1.00  0.00     0.000 HD 
HETATM   17  H1  UNL     1     -10.031  18.944  67.779  1.00  0.00     0.000 HD 
BRANCH  14  18
HETATM   18  C   UNL     1     -10.297  16.421  67.098  1.00  0.00    -0.290 C  
BRANCH  18  19
HETATM   19  C   UNL     1     -11.099  15.153  66.786  1.00  0.00    -0.307 C  
BRANCH  19  20
HETATM   20  C   UNL     1     -10.792  14.625  65.380  1.00  0.00    -0.365 C  
BRANCH  20  21
HETATM   21  C   UNL     1     -11.943  14.925  64.419  1.00  0.00    -0.394 C  
HETATM   22  N   UNL     1     -11.780  16.251  63.833  1.00  0.00    -1.518 NA 
HETATM   23  H1  UNL     1     -12.548  16.452  63.192  1.00  0.00     0.000 HD 
HETATM   24  H2  UNL     1     -10.871  16.359  63.384  1.00  0.00     0.000 HD 
ENDBRANCH  20  21
ENDBRANCH  19  20
ENDBRANCH  18  19
ENDBRANCH  14  18
ENDBRANCH  12  14
ENDBRANCH   2  10
TORSDOF 8
ENDMDL
MODEL        4
REMARK 921   NORMALIZED FREE ENERGY PREDICTED BY IDOCK:   -5.71 KCAL/MOL
REMARK 922        TOTAL FREE ENERGY PREDICTED BY IDOCK:   -9.18 KCAL/MOL
REMARK 923 INTER-LIGAND FREE ENERGY PREDICTED BY IDOCK:   -8.52 KCAL/MOL
REMARK 924 INTRA-LIGAND FREE ENERGY PREDICTED BY IDOCK:   -0.66 KCAL/MOL
REMARK 927      BINDING AFFINITY PREDICTED BY RF-SCORE:    0.00 PKD
ROOT
HETATM    1  C   UNL     1     -11.072  16.269  68.689  1.00  0.00    -0.356 C  
HETATM    2  C   UNL     1     -11.521  14.808  68.688  1.00  0.00    -0.302 C  
ENDROOT
BRANCH   2   3
HETATM    3  C   UNL     1     -12.370  14.459  69.935  1.00  0.00    -0.365 C  
BRANCH   3   4
HETATM    4  C   UNL     1     -12.380  12.991  70.312  1.00  0.00    -0.311 A  
HETATM    5  C   UNL     1     -13.055  12.557  71.462  1.00  0.00    -0.373 A  
HETATM    6  C   UNL     1     -12.432  10.266  70.999  1.00  0.00    -0.484 A  
HETATM    7  C   UNL     1     -13.079  11.201  71.804  1.00  0.00    -0.536 A  
HETATM    8  C   UNL     1     -11.766  10.683  69.848  1.00  0.00    -0.395 A  
HETATM    9  C   UNL     1     -11.745  12.038  69.504  1.00  0.00    -0.408 A  
ENDBRANCH   3   4
ENDBRANCH   2   3
BRANCH   2  10
HETATM   10  N   UNL     1     -12.257  14.548  67.454  1.00  0.00    -0.597 N  
HETATM   11  H   UNL     1     -13.271  14.455  67.507  1.00  0.00     0.000 HD 
HETATM   12  C   UNL     1     -11.656  14.421  66.220  1.00  0.00    -0.372 C  
HETATM   13  O   UNL     1     -10.457  14.597  66.022  1.00  0.00    -0.284 OA 
BRANCH  12  14
HETATM   14  C   UNL     1     -12.650  14.078  65.085  1.00  0.00    -0.428 C  
HETATM   15  N   UNL     1     -12.371  14.961  63.919  1.00  0.00    -1.064 NA 
HETATM   16  H2  UNL     1     -11.399  14.908  63.614  1.00  0.00     0.000 HD 
HETATM   17  H1  UNL     1     -13.027  14.736  63.171  1.00  0.00     0.000 HD 
BRANCH  14  18
HETATM   18  C   UNL     1     -12.525  12.615  64.637  1.00  0.00    -0.538 C  
BRANCH  18  19
HETATM   19  C   UNL     1     -11.733  12.461  63.334  1.00  0.00    -0.554 C  
BRANCH  19  20
HETATM   20  C   UNL     1     -10.257  12.151  63.605  1.00  0.00    -0.459 C  
BRANCH  20  21
HETATM   21  C   UNL     1     -10.105  11.215  64.804  1.00  0.00    -0.295 C  
HETATM   22  N   UNL     1      -9.025  11.673  65.671  1.00  0.00    -0.395 NA 
HETATM   23  H1  UNL     1      -8.923  11.048  66.470  1.00  0.00     0.000 HD 
HETATM   24  H2  UNL     1      -9.154  12.642  65.959  1.00  0.00     0.000 HD 
ENDBRANCH  20  21
ENDBRANCH  19  20
ENDBRANCH  18  19
ENDBRANCH  14  18
ENDBRANCH  12  14
ENDBRANCH   2  10
TORSDOF 8
ENDMDL
MODEL        5
REMARK 921   NORMALIZED FREE ENERGY PREDICTED BY IDOCK:   -5.66 KCAL/MOL
REMARK 922        TOTAL FREE ENERGY PREDICTED BY IDOCK:   -9.10 KCAL/MOL
REMARK 923 INTER-LIGAND FREE ENERGY PREDICTED BY IDOCK:   -8.80 KCAL/MOL
REMARK 924 INTRA-LIGAND FREE ENERGY PREDICTED BY IDOCK:   -0.29 KCAL/MOL
REMARK 927      BINDING AFFINITY PREDICTED BY RF-SCORE:    0.00 PKD
ROOT
HETATM    1  C   UNL     1     -11.585  16.046  68.793  1.00  0.00    -0.352 C  
HETATM    2  C   UNL     1     -11.569  14.545  68.504  1.00  0.00    -0.313 C  
ENDROOT
BRANCH   2   3
HETATM    3  C   UNL     1     -12.131  13.719  69.686  1.00  0.00    -0.392 C  
BRANCH   3   4
HETATM    4  C   UNL     1     -12.482  14.525  70.921  1.00  0.00    -0.415 A  
HETATM    5  C   UNL     1     -11.509  15.309  71.559  1.00  0.00    -0.457 A  
HETATM    6  C   UNL     1     -13.133  16.049  73.191  1.00  0.00    -0.631 A  
HETATM    7  C   UNL     1     -11.834  16.066  72.689  1.00  0.00    -0.611 A  
HETATM    8  C   UNL     1     -14.111  15.283  72.560  1.00  0.00    -0.567 A  
HETATM    9  C   UNL     1     -13.789  14.530  71.428  1.00  0.00    -0.441 A  
ENDBRANCH   3   4
ENDBRANCH   2   3
BRANCH   2  10
HETATM   10  N   UNL     1     -12.324  14.299  67.278  1.00  0.00    -0.592 N  
HETATM   11  H   UNL     1     -13.328  14.139  67.354  1.00  0.00     0.000 HD 
HETATM   12  C   UNL     1     -11.753  14.271  66.024  1.00  0.00    -0.379 C  
HETATM   13  O   UNL     1     -10.574  14.532  65.803  1.00  0.00    -0.291 OA 
BRANCH  12  14
HETATM   14  C   UNL     1     -12.758  13.922  64.900  1.00  0.00    -0.278 C  
HETATM   15  N   UNL     1     -12.497  14.805  63.731  1.00  0.00    -1.063 NA 
HETATM   16  H2  UNL     1     -11.528  14.758  63.415  1.00  0.00     0.000 HD 
HETATM   17  H1  UNL     1     -13.159  14.576  62.990  1.00  0.00     0.000 HD 
BRANCH  14  18
HETATM   18  C   UNL     1     -12.629  12.459  64.451  1.00  0.00    -0.489 C  
BRANCH  18  19
HETATM   19  C   UNL     1     -11.861  12.310  63.133  1.00  0.00    -0.328 C  
BRANCH  19  20
HETATM   20  C   UNL     1     -10.397  11.926  63.374  1.00  0.00    -0.481 C  
BRANCH  20  21
HETATM   21  C   UNL     1     -10.246  11.129  64.670  1.00  0.00    -0.317 C  
HETATM   22  N   UNL     1      -9.271  11.768  65.547  1.00  0.00    -0.407 NA 
HETATM   23  H1  UNL     1      -9.170  11.236  66.411  1.00  0.00     0.000 HD 
HETATM   24  H2  UNL     1      -9.502  12.744  65.726  1.00  0.00     0.000 HD 
ENDBRANCH  20  21
ENDBRANCH  19  20
ENDBRANCH  18  19
ENDBRANCH  14  18
ENDBRANCH  12  14
ENDBRANCH   2  10
TORSDOF 8
ENDMDL
MODEL        6
REMARK 921   NORMALIZED FREE ENERGY PREDICTED BY IDOCK:   -5.62 KCAL/MOL
REMARK 922        TOTAL FREE ENERGY PREDICTED BY IDOCK:   -9.03 KCAL/MOL
REMARK 923 INTER-LIGAND FREE ENERGY PREDICTED BY IDOCK:   -8.21 KCAL/MOL
REMARK 924 INTRA-LIGAND FREE ENERGY PREDICTED BY IDOCK:   -0.83 KCAL/MOL
REMARK 927      BINDING AFFINITY PREDICTED BY RF-SCORE:    0.00 PKD
ROOT
HETATM    1  C   UNL     1     -11.681  11.489  67.678  1.00  0.00    -0.283 C  
HETATM    2  C   UNL     1     -11.868  12.996  67.850  1.00  0.00    -0.343 C  
ENDROOT
BRANCH   2   3
HETATM    3  C   UNL     1     -11.233  13.515  69.162  1.00  0.00    -0.310 C  
BRANCH   3   4
HETATM    4  C   UNL     1     -12.222  13.892  70.247  1.00  0.00    -0.428 A  
HETATM    5  C   UNL     1     -12.756  12.910  71.095  1.00  0.00    -0.366 A  
HETATM    6  C   UNL     1     -14.031  14.586  72.283  1.00  0.00    -0.600 A  
HETATM    7  C   UNL     1     -13.657  13.256  72.106  1.00  0.00    -0.655 A  
HETATM    8  C   UNL     1     -13.500  15.572  71.455  1.00  0.00    -0.583 A  
HETATM    9  C   UNL     1     -12.596  15.228  70.446  1.00  0.00    -0.421 A  
ENDBRANCH   3   4
ENDBRANCH   2   3
BRANCH   2  10
HETATM   10  N   UNL     1     -11.305  13.671  66.683  1.00  0.00    -0.316 N  
HETATM   11  H   UNL     1     -10.301  13.850  66.668  1.00  0.00     0.000 HD 
HETATM   12  C   UNL     1     -12.056  14.079  65.602  1.00  0.00    -0.417 C  
HETATM   13  O   UNL     1     -13.254  13.842  65.473  1.00  0.00    -0.698 OA 
BRANCH  12  14
HETATM   14  C   UNL     1     -11.231  14.831  64.531  1.00  0.00    -0.274 C  
HETATM   15  N   UNL     1     -12.117  15.810  63.842  1.00  0.00    -1.125 NA 
HETATM   16  H2  UNL     1     -12.578  16.444  64.494  1.00  0.00     0.000 HD 
HETATM   17  H1  UNL     1     -11.574  16.305  63.136  1.00  0.00     0.000 HD 
BRANCH  14  18
HETATM   18  C   UNL     1     -10.046  15.588  65.148  1.00  0.00    -0.263 C  
BRANCH  18  19
HETATM   19  C   UNL     1     -10.447  16.956  65.710  1.00  0.00    -0.279 C  
BRANCH  19  20
HETATM   20  C   UNL     1      -9.525  17.385  66.857  1.00  0.00    -0.275 C  
BRANCH  20  21
HETATM   21  C   UNL     1     -10.136  17.032  68.213  1.00  0.00    -0.306 C  
HETATM   22  N   UNL     1      -9.158  16.343  69.046  1.00  0.00    -0.264 NA 
HETATM   23  H1  UNL     1      -9.566  16.106  69.950  1.00  0.00     0.000 HD 
HETATM   24  H2  UNL     1      -8.297  16.881  69.146  1.00  0.00     0.000 HD 
ENDBRANCH  20  21
ENDBRANCH  19  20
ENDBRANCH  18  19
ENDBRANCH  14  18
ENDBRANCH  12  14
ENDBRANCH   2  10
TORSDOF 8
ENDMDL
MODEL        7
REMARK 921   NORMALIZED FREE ENERGY PREDICTED BY IDOCK:   -5.51 KCAL/MOL
REMARK 922        TOTAL FREE ENERGY PREDICTED BY IDOCK:   -8.88 KCAL/MOL
REMARK 923 INTER-LIGAND FREE ENERGY PREDICTED BY IDOCK:   -8.06 KCAL/MOL
REMARK 924 INTRA-LIGAND FREE ENERGY PREDICTED BY IDOCK:   -0.82 KCAL/MOL
REMARK 927      BINDING AFFINITY PREDICTED BY RF-SCORE:    0.00 PKD
ROOT
HETATM    1  C   UNL     1      -8.774  15.667  66.588  1.00  0.00    -0.333 C  
HETATM    2  C   UNL     1     -10.146  15.260  67.125  1.00  0.00    -0.240 C  
ENDROOT
BRANCH   2   3
HETATM    3  C   UNL     1     -10.801  16.386  67.960  1.00  0.00    -0.342 C  
BRANCH   3   4
HETATM    4  C   UNL     1     -10.263  17.777  67.695  1.00  0.00    -0.359 A  
HETATM    5  C   UNL     1      -9.348  18.367  68.580  1.00  0.00    -0.354 A  
HETATM    6  C   UNL     1      -9.232  20.343  67.191  1.00  0.00    -0.511 A  
HETATM    7  C   UNL     1      -8.838  19.644  68.329  1.00  0.00    -0.361 A  
HETATM    8  C   UNL     1     -10.132  19.764  66.298  1.00  0.00    -0.601 A  
HETATM    9  C   UNL     1     -10.639  18.486  66.546  1.00  0.00    -0.375 A  
ENDBRANCH   3   4
ENDBRANCH   2   3
BRANCH   2  10
HETATM   10  N   UNL     1     -10.991  14.873  65.998  1.00  0.00    -0.329 N  
HETATM   11  H   UNL     1     -10.911  15.404  65.131  1.00  0.00     0.000 HD 
HETATM   12  C   UNL     1     -11.892  13.831  66.042  1.00  0.00    -0.390 C  
HETATM   13  O   UNL     1     -12.013  13.072  66.999  1.00  0.00    -0.383 OA 
BRANCH  12  14
HETATM   14  C   UNL     1     -12.713  13.673  64.740  1.00  0.00    -0.219 C  
HETATM   15  N   UNL     1     -12.386  14.803  63.827  1.00  0.00    -1.082 NA 
HETATM   16  H2  UNL     1     -11.385  14.883  63.648  1.00  0.00     0.000 HD 
HETATM   17  H1  UNL     1     -12.927  14.699  62.969  1.00  0.00     0.000 HD 
BRANCH  14  18
HETATM   18  C   UNL     1     -12.399  12.353  64.022  1.00  0.00    -0.579 C  
BRANCH  18  19
HETATM   19  C   UNL     1     -10.982  12.318  63.440  1.00  0.00    -0.467 C  
BRANCH  19  20
HETATM   20  C   UNL     1     -10.286  10.984  63.731  1.00  0.00    -0.425 C  
BRANCH  20  21
HETATM   21  C   UNL     1      -9.886  10.884  65.203  1.00  0.00    -0.275 C  
HETATM   22  N   UNL     1      -9.184  12.093  65.620  1.00  0.00    -0.432 NA 
HETATM   23  H1  UNL     1      -8.916  12.026  66.602  1.00  0.00     0.000 HD 
HETATM   24  H2  UNL     1      -9.729  12.933  65.430  1.00  0.00     0.000 HD 
ENDBRANCH  20  21
ENDBRANCH  19  20
ENDBRANCH  18  19
ENDBRANCH  14  18
ENDBRANCH  12  14
ENDBRANCH   2  10
TORSDOF 8
ENDMDL
MODEL        8
REMARK 921   NORMALIZED FREE ENERGY PREDICTED BY IDOCK:   -5.47 KCAL/MOL
REMARK 922        TOTAL FREE ENERGY PREDICTED BY IDOCK:   -8.82 KCAL/MOL
REMARK 923 INTER-LIGAND FREE ENERGY PREDICTED BY IDOCK:   -7.97 KCAL/MOL
REMARK 924 INTRA-LIGAND FREE ENERGY PREDICTED BY IDOCK:   -0.85 KCAL/MOL
REMARK 927      BINDING AFFINITY PREDICTED BY RF-SCORE:    0.00 PKD
ROOT
HETATM    1  C   UNL     1     -10.933  11.109  66.206  1.00  0.00    -0.227 C  
HETATM    2  C   UNL     1     -11.288  12.399  66.945  1.00  0.00    -0.333 C  
ENDROOT
BRANCH   2   3
HETATM    3  C   UNL     1     -10.745  12.408  68.394  1.00  0.00    -0.254 C  
BRANCH   3   4
HETATM    4  C   UNL     1     -11.171  13.598  69.230  1.00  0.00    -0.284 A  
HETATM    5  C   UNL     1     -10.408  14.776  69.232  1.00  0.00    -0.213 A  
HETATM    6  C   UNL     1     -11.972  15.823  70.751  1.00  0.00    -0.444 A  
HETATM    7  C   UNL     1     -10.807  15.881  69.990  1.00  0.00    -0.356 A  
HETATM    8  C   UNL     1     -12.744  14.663  70.750  1.00  0.00    -0.422 A  
HETATM    9  C   UNL     1     -12.349  13.559  69.989  1.00  0.00    -0.315 A  
ENDBRANCH   3   4
ENDBRANCH   2   3
BRANCH   2  10
HETATM   10  N   UNL     1     -10.775  13.531  66.178  1.00  0.00    -0.286 N  
HETATM   11  H   UNL     1      -9.779  13.742  66.237  1.00  0.00     0.000 HD 
HETATM   12  C   UNL     1     -11.564  14.331  65.379  1.00  0.00    -0.346 C  
HETATM   13  O   UNL     1     -12.755  14.122  65.165  1.00  0.00    -0.616 OA 
BRANCH  12  14
HETATM   14  C   UNL     1     -10.790  15.503  64.730  1.00  0.00    -0.363 C  
HETATM   15  N   UNL     1     -11.751  16.355  63.977  1.00  0.00    -1.461 NA 
HETATM   16  H2  UNL     1     -12.527  16.675  64.557  1.00  0.00     0.000 HD 
HETATM   17  H1  UNL     1     -11.242  17.127  63.548  1.00  0.00     0.000 HD 
BRANCH  14  18
HETATM   18  C   UNL     1     -10.080  16.371  65.779  1.00  0.00    -0.352 C  
BRANCH  18  19
HETATM   19  C   UNL     1     -10.655  17.789  65.861  1.00  0.00    -0.205 C  
BRANCH  19  20
HETATM   20  C   UNL     1     -10.476  18.390  67.260  1.00  0.00    -0.434 C  
BRANCH  20  21
HETATM   21  C   UNL     1     -10.424  19.916  67.198  1.00  0.00    -0.433 C  
HETATM   22  N   UNL     1      -9.877  20.353  65.919  1.00  0.00    -0.623 NA 
HETATM   23  H1  UNL     1      -9.841  21.372  65.878  1.00  0.00     0.000 HD 
HETATM   24  H2  UNL     1     -10.390  19.958  65.131  1.00  0.00     0.000 HD 
ENDBRANCH  20  21
ENDBRANCH  19  20
ENDBRANCH  18  19
ENDBRANCH  14  18
ENDBRANCH  12  14
ENDBRANCH   2  10
TORSDOF 8
ENDMDL
MODEL        9
REMARK 921   NORMALIZED FREE ENERGY PREDICTED BY IDOCK:   -5.45 KCAL/MOL
REMARK 922        TOTAL FREE ENERGY PREDICTED BY IDOCK:   -8.79 KCAL/MOL
REMARK 923 INTER-LIGAND FREE ENERGY PREDICTED BY IDOCK:   -7.88 KCAL/MOL
REMARK 924 INTRA-LIGAND FREE ENERGY PREDICTED BY IDOCK:   -0.91 KCAL/MOL
REMARK 927      BINDING AFFINITY PREDICTED BY RF-SCORE:    0.00 PKD
ROOT
HETATM    1  C   UNL     1     -11.899  14.513  68.833  1.00  0.00    -0.359 C  
HETATM    2  C   UNL     1     -11.546  14.855  67.386  1.00  0.00    -0.332 C  
ENDROOT
BRANCH   2   3
HETATM    3  C   UNL     1     -10.163  15.540  67.269  1.00  0.00    -0.260 C  
BRANCH   3   4
HETATM    4  C   UNL     1     -10.200  17.054  67.237  1.00  0.00    -0.310 A  
HETATM    5  C   UNL     1     -10.402  17.736  66.028  1.00  0.00    -0.304 A  
HETATM    6  C   UNL     1     -10.302  19.863  67.175  1.00  0.00    -0.581 A  
HETATM    7  C   UNL     1     -10.451  19.133  65.998  1.00  0.00    -0.546 A  
HETATM    8  C   UNL     1     -10.112  19.198  68.385  1.00  0.00    -0.498 A  
HETATM    9  C   UNL     1     -10.066  17.801  68.416  1.00  0.00    -0.376 A  
ENDBRANCH   3   4
ENDBRANCH   2   3
BRANCH   2  10
HETATM   10  N   UNL     1     -11.602  13.631  66.591  1.00  0.00    -0.346 N  
HETATM   11  H   UNL     1     -11.037  12.836  66.890  1.00  0.00     0.000 HD 
HETATM   12  C   UNL     1     -12.376  13.490  65.460  1.00  0.00    -0.481 C  
HETATM   13  O   UNL     1     -13.158  14.346  65.055  1.00  0.00    -0.615 OA 
BRANCH  12  14
HETATM   14  C   UNL     1     -12.203  12.119  64.764  1.00  0.00    -0.264 C  
HETATM   15  N   UNL     1     -12.764  12.204  63.388  1.00  0.00    -0.810 NA 
HETATM   16  H2  UNL     1     -12.357  12.969  62.848  1.00  0.00     0.000 HD 
HETATM   17  H1  UNL     1     -12.650  11.301  62.929  1.00  0.00     0.000 HD 
BRANCH  14  18
HETATM   18  C   UNL     1     -10.727  11.707  64.671  1.00  0.00    -0.371 C  
BRANCH  18  19
HETATM   19  C   UNL     1     -10.402  10.473  65.519  1.00  0.00    -0.287 C  
BRANCH  19  20
HETATM   20  C   UNL     1      -9.623  10.848  66.785  1.00  0.00    -0.210 C  
BRANCH  20  21
HETATM   21  C   UNL     1     -10.323  10.317  68.036  1.00  0.00    -0.181 C  
HETATM   22  N   UNL     1     -11.747  10.624  67.989  1.00  0.00    -0.747 NA 
HETATM   23  H1  UNL     1     -12.214  10.270  68.824  1.00  0.00     0.000 HD 
HETATM   24  H2  UNL     1     -12.183  10.278  67.134  1.00  0.00     0.000 HD 
ENDBRANCH  20  21
ENDBRANCH  19  20
ENDBRANCH  18  19
ENDBRANCH  14  18
ENDBRANCH  12  14
ENDBRANCH   2  10
TORSDOF 8
ENDMDL
MODEL       10
REMARK 921   NORMALIZED FREE ENERGY PREDICTED BY IDOCK:   -5.44 KCAL/MOL
REMARK 922        TOTAL FREE ENERGY PREDICTED BY IDOCK:   -8.77 KCAL/MOL
REMARK 923 INTER-LIGAND FREE ENERGY PREDICTED BY IDOCK:   -8.20 KCAL/MOL
REMARK 924 INTRA-LIGAND FREE ENERGY PREDICTED BY IDOCK:   -0.58 KCAL/MOL
REMARK 927      BINDING AFFINITY PREDICTED BY RF-SCORE:    0.00 PKD
ROOT
HETATM    1  C   UNL     1      -9.554  16.106  68.451  1.00  0.00    -0.209 C  
HETATM    2  C   UNL     1     -10.379  15.121  69.278  1.00  0.00    -0.257 C  
ENDROOT
BRANCH   2   3
HETATM    3  C   UNL     1     -11.872  15.523  69.344  1.00  0.00    -0.392 C  
BRANCH   3   4
HETATM    4  C   UNL     1     -12.449  15.615  70.742  1.00  0.00    -0.484 A  
HETATM    5  C   UNL     1     -13.756  15.175  71.003  1.00  0.00    -0.450 A  
HETATM    6  C   UNL     1     -13.516  15.750  73.339  1.00  0.00    -0.491 A  
HETATM    7  C   UNL     1     -14.286  15.244  72.295  1.00  0.00    -0.642 A  
HETATM    8  C   UNL     1     -12.213  16.180  73.096  1.00  0.00    -0.643 A  
HETATM    9  C   UNL     1     -11.681  16.108  71.806  1.00  0.00    -0.568 A  
ENDBRANCH   3   4
ENDBRANCH   2   3
BRANCH   2  10
HETATM   10  N   UNL     1     -10.212  13.785  68.713  1.00  0.00    -0.350 N  
HETATM   11  H   UNL     1      -9.735  13.080  69.274  1.00  0.00     0.000 HD 
HETATM   12  C   UNL     1     -10.664  13.425  67.462  1.00  0.00    -0.254 C  
HETATM   13  O   UNL     1     -11.323  14.161  66.734  1.00  0.00    -0.319 OA 
BRANCH  12  14
HETATM   14  C   UNL     1     -10.300  11.972  67.072  1.00  0.00    -0.211 C  
HETATM   15  N   UNL     1     -11.528  11.134  67.142  1.00  0.00    -0.473 NA 
HETATM   16  H2  UNL     1     -12.289  11.509  66.575  1.00  0.00     0.000 HD 
HETATM   17  H1  UNL     1     -11.289  10.176  66.886  1.00  0.00     0.000 HD 
BRANCH  14  18
HETATM   18  C   UNL     1      -9.725  11.887  65.651  1.00  0.00    -0.248 C  
BRANCH  18  19
HETATM   19  C   UNL     1     -10.628  11.103  64.693  1.00  0.00    -0.386 C  
BRANCH  19  20
HETATM   20  C   UNL     1     -10.896  11.886  63.403  1.00  0.00    -0.469 C  
BRANCH  20  21
HETATM   21  C   UNL     1     -12.031  12.891  63.598  1.00  0.00    -0.541 C  
HETATM   22  N   UNL     1     -13.019  12.364  64.532  1.00  0.00    -0.810 NA 
HETATM   23  H1  UNL     1     -13.777  13.035  64.662  1.00  0.00     0.000 HD 
HETATM   24  H2  UNL     1     -12.596  12.092  65.420  1.00  0.00     0.000 HD 
ENDBRANCH  20  21
ENDBRANCH  19  20
ENDBRANCH  18  19
ENDBRANCH  14  18
ENDBRANCH  12  14
ENDBRANCH   2  10
TORSDOF 8
ENDMDL
MODEL       11
REMARK 921   NORMALIZED FREE ENERGY PREDICTED BY IDOCK:   -5.43 KCAL/MOL
REMARK 922        TOTAL FREE ENERGY PREDICTED BY IDOCK:   -8.76 KCAL/MOL
REMARK 923 INTER-LIGAND FREE ENERGY PREDICTED BY IDOCK:   -8.13 KCAL/MOL
REMARK 924 INTRA-LIGAND FREE ENERGY PREDICTED BY IDOCK:   -0.63 KCAL/MOL
REMARK 927      BINDING AFFINITY PREDICTED BY RF-SCORE:    0.00 PKD
ROOT
HETATM    1  C   UNL     1     -11.459  11.012  67.870  1.00  0.00    -0.358 C  
HETATM    2  C   UNL     1     -11.784  12.505  67.891  1.00  0.00    -0.359 C  
ENDROOT
BRANCH   2   3
HETATM    3  C   UNL     1     -11.172  13.217  69.122  1.00  0.00    -0.303 C  
BRANCH   3   4
HETATM    4  C   UNL     1     -12.156  13.543  70.227  1.00  0.00    -0.425 A  
HETATM    5  C   UNL     1     -12.708  14.829  70.332  1.00  0.00    -0.368 A  
HETATM    6  C   UNL     1     -14.008  14.148  72.254  1.00  0.00    -0.646 A  
HETATM    7  C   UNL     1     -13.627  15.129  71.341  1.00  0.00    -0.570 A  
HETATM    8  C   UNL     1     -13.475  12.864  72.155  1.00  0.00    -0.619 A  
HETATM    9  C   UNL     1     -12.559  12.562  71.144  1.00  0.00    -0.349 A  
ENDBRANCH   3   4
ENDBRANCH   2   3
BRANCH   2  10
HETATM   10  N   UNL     1     -11.314  13.101  66.644  1.00  0.00    -0.312 N  
HETATM   11  H   UNL     1     -10.312  13.093  66.453  1.00  0.00     0.000 HD 
HETATM   12  C   UNL     1     -12.149  13.675  65.710  1.00  0.00    -0.428 C  
HETATM   13  O   UNL     1     -13.374  13.667  65.792  1.00  0.00    -0.381 OA 
BRANCH  12  14
HETATM   14  C   UNL     1     -11.395  14.296  64.510  1.00  0.00    -0.334 C  
HETATM   15  N   UNL     1     -12.292  14.289  63.323  1.00  0.00    -1.092 NA 
HETATM   16  H2  UNL     1     -13.182  14.752  63.504  1.00  0.00     0.000 HD 
HETATM   17  H1  UNL     1     -11.795  14.698  62.532  1.00  0.00     0.000 HD 
BRANCH  14  18
HETATM   18  C   UNL     1     -10.962  15.742  64.793  1.00  0.00    -0.410 C  
BRANCH  18  19
HETATM   19  C   UNL     1     -10.356  15.916  66.190  1.00  0.00    -0.341 C  
BRANCH  19  20
HETATM   20  C   UNL     1      -8.986  16.600  66.128  1.00  0.00    -0.321 C  
BRANCH  20  21
HETATM   21  C   UNL     1      -7.933  15.790  66.885  1.00  0.00    -0.250 C  
HETATM   22  N   UNL     1      -8.396  14.421  67.085  1.00  0.00    -0.267 NA 
HETATM   23  H1  UNL     1      -7.694  13.881  67.591  1.00  0.00     0.000 HD 
HETATM   24  H2  UNL     1      -8.659  13.976  66.206  1.00  0.00     0.000 HD 
ENDBRANCH  20  21
ENDBRANCH  19  20
ENDBRANCH  18  19
ENDBRANCH  14  18
ENDBRANCH  12  14
ENDBRANCH   2  10
TORSDOF 8
ENDMDL
MODEL       12
REMARK 921   NORMALIZED FREE ENERGY PREDICTED BY IDOCK:   -5.43 KCAL/MOL
REMARK 922        TOTAL FREE ENERGY PREDICTED BY IDOCK:   -8.76 KCAL/MOL
REMARK 923 INTER-LIGAND FREE ENERGY PREDICTED BY IDOCK:   -7.96 KCAL/MOL
REMARK 924 INTRA-LIGAND FREE ENERGY PREDICTED BY IDOCK:   -0.80 KCAL/MOL
REMARK 927      BINDING AFFINITY PREDICTED BY RF-SCORE:    0.00 PKD
ROOT
HETATM    1  C   UNL     1     -12.047  15.099  69.902  1.00  0.00    -0.373 C  
HETATM    2  C   UNL     1     -11.409  15.836  68.725  1.00  0.00    -0.362 C  
ENDROOT
BRANCH   2   3
HETATM    3  C   UNL     1     -10.563  17.047  69.186  1.00  0.00    -0.303 C  
BRANCH   3   4
HETATM    4  C   UNL     1     -10.390  18.139  68.149  1.00  0.00    -0.393 A  
HETATM    5  C   UNL     1      -9.825  19.373  68.502  1.00  0.00    -0.509 A  
HETATM    6  C   UNL     1     -10.035  20.156  66.224  1.00  0.00    -0.557 A  
HETATM    7  C   UNL     1      -9.650  20.376  67.545  1.00  0.00    -0.560 A  
HETATM    8  C   UNL     1     -10.588  18.931  65.857  1.00  0.00    -0.438 A  
HETATM    9  C   UNL     1     -10.759  17.926  66.813  1.00  0.00    -0.157 A  
ENDBRANCH   3   4
ENDBRANCH   2   3
BRANCH   2  10
HETATM   10  N   UNL     1     -10.604  14.885  67.961  1.00  0.00    -0.245 N  
HETATM   11  H   UNL     1      -9.632  14.747  68.236  1.00  0.00     0.000 HD 
HETATM   12  C   UNL     1     -11.087  14.165  66.890  1.00  0.00    -0.307 C  
HETATM   13  O   UNL     1     -12.258  14.185  66.525  1.00  0.00    -0.445 OA 
BRANCH  12  14
HETATM   14  C   UNL     1     -10.014  13.280  66.212  1.00  0.00    -0.291 C  
HETATM   15  N   UNL     1      -8.684  13.603  66.799  1.00  0.00    -0.424 NA 
HETATM   16  H2  UNL     1      -8.675  13.515  67.815  1.00  0.00     0.000 HD 
HETATM   17  H1  UNL     1      -7.977  13.020  66.352  1.00  0.00     0.000 HD 
BRANCH  14  18
HETATM   18  C   UNL     1     -10.293  11.784  66.416  1.00  0.00    -0.257 C  
BRANCH  18  19
HETATM   19  C   UNL     1     -10.528  11.041  65.096  1.00  0.00    -0.329 C  
BRANCH  19  20
HETATM   20  C   UNL     1     -10.565  12.006  63.906  1.00  0.00    -0.447 C  
BRANCH  20  21
HETATM   21  C   UNL     1     -11.997  12.216  63.415  1.00  0.00    -0.481 C  
HETATM   22  N   UNL     1     -12.295  13.640  63.315  1.00  0.00    -1.080 NA 
HETATM   23  H1  UNL     1     -13.251  13.780  62.988  1.00  0.00     0.000 HD 
HETATM   24  H2  UNL     1     -11.617  14.130  62.731  1.00  0.00     0.000 HD 
ENDBRANCH  20  21
ENDBRANCH  19  20
ENDBRANCH  18  19
ENDBRANCH  14  18
ENDBRANCH  12  14
ENDBRANCH   2  10
TORSDOF 8
ENDMDL
MODEL       13
REMARK 921   NORMALIZED FREE ENERGY PREDICTED BY IDOCK:   -5.41 KCAL/MOL
REMARK 922        TOTAL FREE ENERGY PREDICTED BY IDOCK:   -8.73 KCAL/MOL
REMARK 923 INTER-LIGAND FREE ENERGY PREDICTED BY IDOCK:   -7.55 KCAL/MOL
REMARK 924 INTRA-LIGAND FREE ENERGY PREDICTED BY IDOCK:   -1.18 KCAL/MOL
REMARK 927      BINDING AFFINITY PREDICTED BY RF-SCORE:    0.00 PKD
ROOT
HETATM    1  C   UNL     1      -9.231  11.206  62.538  1.00  0.00    -0.317 C  
HETATM    2  C   UNL     1     -10.297  11.533  63.584  1.00  0.00    -0.417 C  
ENDROOT
BRANCH   2   3
HETATM    3  C   UNL     1     -10.240  10.570  64.794  1.00  0.00    -0.373 C  
BRANCH   3   4
HETATM    4  C   UNL     1     -10.184  11.247  66.148  1.00  0.00    -0.291 A  
HETATM    5  C   UNL     1      -8.979  11.783  66.627  1.00  0.00    -0.195 A  
HETATM    6  C   UNL     1     -10.078  12.535  68.645  1.00  0.00    -0.139 A  
HETATM    7  C   UNL     1      -8.927  12.421  67.869  1.00  0.00    -0.184 A  
HETATM    8  C   UNL     1     -11.284  12.017  68.177  1.00  0.00    -0.316 A  
HETATM    9  C   UNL     1     -11.337  11.382  66.933  1.00  0.00    -0.284 A  
ENDBRANCH   3   4
ENDBRANCH   2   3
BRANCH   2  10
HETATM   10  N   UNL     1     -10.128  12.923  64.001  1.00  0.00    -0.580 N  
HETATM   11  H   UNL     1      -9.181  13.271  64.148  1.00  0.00     0.000 HD 
HETATM   12  C   UNL     1     -11.180  13.789  64.209  1.00  0.00    -0.305 C  
HETATM   13  O   UNL     1     -12.353  13.508  63.983  1.00  0.00    -0.604 OA 
BRANCH  12  14
HETATM   14  C   UNL     1     -10.735  15.183  64.714  1.00  0.00    -0.319 C  
HETATM   15  N   UNL     1     -11.518  16.226  63.996  1.00  0.00    -1.521 NA 
HETATM   16  H2  UNL     1     -12.525  16.085  64.080  1.00  0.00     0.000 HD 
HETATM   17  H1  UNL     1     -11.225  17.145  64.328  1.00  0.00     0.000 HD 
BRANCH  14  18
HETATM   18  C   UNL     1     -10.967  15.345  66.223  1.00  0.00    -0.278 C  
BRANCH  18  19
HETATM   19  C   UNL     1      -9.807  16.060  66.926  1.00  0.00    -0.252 C  
BRANCH  19  20
HETATM   20  C   UNL     1     -10.219  17.453  67.415  1.00  0.00    -0.326 C  
BRANCH  20  21
HETATM   21  C   UNL     1      -9.646  18.543  66.509  1.00  0.00    -0.329 C  
HETATM   22  N   UNL     1     -10.598  18.880  65.457  1.00  0.00    -0.521 NA 
HETATM   23  H1  UNL     1     -10.215  19.607  64.852  1.00  0.00     0.000 HD 
HETATM   24  H2  UNL     1     -11.508  19.140  65.836  1.00  0.00     0.000 HD 
ENDBRANCH  20  21
ENDBRANCH  19  20
ENDBRANCH  18  19
ENDBRANCH  14  18
ENDBRANCH  12  14
ENDBRANCH   2  10
TORSDOF 8
ENDMDL
MODEL       14
REMARK 921   NORMALIZED FREE ENERGY PREDICTED BY IDOCK:   -5.40 KCAL/MOL
REMARK 922        TOTAL FREE ENERGY PREDICTED BY IDOCK:   -8.71 KCAL/MOL
REMARK 923 INTER-LIGAND FREE ENERGY PREDICTED BY IDOCK:   -8.31 KCAL/MOL
REMARK 924 INTRA-LIGAND FREE ENERGY PREDICTED BY IDOCK:   -0.40 KCAL/MOL
REMARK 927      BINDING AFFINITY PREDICTED BY RF-SCORE:    0.00 PKD
ROOT
HETATM    1  C   UNL     1     -10.160   7.837  67.201  1.00  0.00    -0.328 C  
HETATM    2  C   UNL     1     -10.631   9.229  67.621  1.00  0.00    -0.261 C  
ENDROOT
BRANCH   2   3
HETATM    3  C   UNL     1     -10.011   9.672  68.968  1.00  0.00    -0.189 C  
BRANCH   3   4
HETATM    4  C   UNL     1     -10.970   9.681  70.141  1.00  0.00    -0.320 A  
HETATM    5  C   UNL     1     -11.882  10.734  70.306  1.00  0.00    -0.438 A  
HETATM    6  C   UNL     1     -12.774   9.690  72.296  1.00  0.00    -0.362 A  
HETATM    7  C   UNL     1     -12.778  10.738  71.380  1.00  0.00    -0.544 A  
HETATM    8  C   UNL     1     -11.881   8.632  72.138  1.00  0.00    -0.447 A  
HETATM    9  C   UNL     1     -10.988   8.626  71.063  1.00  0.00    -0.314 A  
ENDBRANCH   3   4
ENDBRANCH   2   3
BRANCH   2  10
HETATM   10  N   UNL     1     -10.310  10.171  66.552  1.00  0.00    -0.223 N  
HETATM   11  H   UNL     1      -9.541   9.943  65.922  1.00  0.00     0.000 HD 
HETATM   12  C   UNL     1     -10.988  11.353  66.347  1.00  0.00    -0.260 C  
HETATM   13  O   UNL     1     -11.981  11.692  66.986  1.00  0.00    -0.593 OA 
BRANCH  12  14
HETATM   14  C   UNL     1     -10.406  12.203  65.193  1.00  0.00    -0.279 C  
HETATM   15  N   UNL     1      -9.166  11.549  64.692  1.00  0.00    -0.413 NA 
HETATM   16  H2  UNL     1      -9.320  10.578  64.421  1.00  0.00     0.000 HD 
HETATM   17  H1  UNL     1      -8.782  12.110  63.932  1.00  0.00     0.000 HD 
BRANCH  14  18
HETATM   18  C   UNL     1     -11.397  12.340  64.027  1.00  0.00    -0.469 C  
BRANCH  18  19
HETATM   19  C   UNL     1     -12.113  13.695  64.015  1.00  0.00    -0.474 C  
BRANCH  19  20
HETATM   20  C   UNL     1     -11.858  14.478  65.308  1.00  0.00    -0.358 C  
BRANCH  20  21
HETATM   21  C   UNL     1     -11.019  15.727  65.035  1.00  0.00    -0.417 C  
HETATM   22  N   UNL     1     -11.490  16.400  63.830  1.00  0.00    -1.618 NA 
HETATM   23  H1  UNL     1     -10.930  17.233  63.648  1.00  0.00     0.000 HD 
HETATM   24  H2  UNL     1     -12.486  16.614  63.879  1.00  0.00     0.000 HD 
ENDBRANCH  20  21
ENDBRANCH  19  20
ENDBRANCH  18  19
ENDBRANCH  14  18
ENDBRANCH  12  14
ENDBRANCH   2  10
TORSDOF 8
ENDMDL
MODEL       15
REMARK 921   NORMALIZED FREE ENERGY PREDICTED BY IDOCK:   -5.37 KCAL/MOL
REMARK 922        TOTAL FREE ENERGY PREDICTED BY IDOCK:   -8.67 KCAL/MOL
REMARK 923 INTER-LIGAND FREE ENERGY PREDICTED BY IDOCK:   -8.20 KCAL/MOL
REMARK 924 INTRA-LIGAND FREE ENERGY PREDICTED BY IDOCK:   -0.47 KCAL/MOL
REMARK 927      BINDING AFFINITY PREDICTED BY RF-SCORE:    0.00 PKD
ROOT
HETATM    1  C   UNL     1      -9.264   9.846  69.904  1.00  0.00    -0.245 C  
HETATM    2  C   UNL     1     -10.760  10.160  69.893  1.00  0.00    -0.295 C  
ENDROOT
BRANCH   2   3
HETATM    3  C   UNL     1     -11.472   9.645  71.166  1.00  0.00    -0.456 C  
BRANCH   3   4
HETATM    4  C   UNL     1     -11.243   8.181  71.480  1.00  0.00    -0.307 A  
HETATM    5  C   UNL     1     -10.849   7.782  72.766  1.00  0.00    -0.438 A  
HETATM    6  C   UNL     1     -10.849   5.463  72.080  1.00  0.00    -0.275 A  
HETATM    7  C   UNL     1     -10.651   6.430  73.063  1.00  0.00    -0.267 A  
HETATM    8  C   UNL     1     -11.251   5.845  70.802  1.00  0.00    -0.281 A  
HETATM    9  C   UNL     1     -11.453   7.196  70.505  1.00  0.00    -0.334 A  
ENDBRANCH   3   4
ENDBRANCH   2   3
BRANCH   2  10
HETATM   10  N   UNL     1     -10.931  11.602  69.733  1.00  0.00    -0.462 N  
HETATM   11  H   UNL     1     -10.497  12.218  70.420  1.00  0.00     0.000 HD 
HETATM   12  C   UNL     1     -11.648  12.176  68.706  1.00  0.00    -0.327 C  
HETATM   13  O   UNL     1     -12.141  11.541  67.778  1.00  0.00    -0.626 OA 
BRANCH  12  14
HETATM   14  C   UNL     1     -11.736  13.718  68.805  1.00  0.00    -0.356 C  
HETATM   15  N   UNL     1     -10.583  14.214  69.605  1.00  0.00    -0.445 NA 
HETATM   16  H2  UNL     1      -9.686  13.898  69.234  1.00  0.00     0.000 HD 
HETATM   17  H1  UNL     1     -10.640  15.230  69.670  1.00  0.00     0.000 HD 
BRANCH  14  18
HETATM   18  C   UNL     1     -11.698  14.383  67.421  1.00  0.00    -0.424 C  
BRANCH  18  19
HETATM   19  C   UNL     1     -10.897  15.689  67.414  1.00  0.00    -0.315 C  
BRANCH  19  20
HETATM   20  C   UNL     1     -10.258  15.951  66.045  1.00  0.00    -0.353 C  
BRANCH  20  21
HETATM   21  C   UNL     1     -11.106  15.353  64.922  1.00  0.00    -0.423 C  
HETATM   22  N   UNL     1     -11.512  16.394  63.985  1.00  0.00    -1.573 NA 
HETATM   23  H1  UNL     1     -12.078  15.995  63.236  1.00  0.00     0.000 HD 
HETATM   24  H2  UNL     1     -10.712  16.912  63.623  1.00  0.00     0.000 HD 
ENDBRANCH  20  21
ENDBRANCH  19  20
ENDBRANCH  18  19
ENDBRANCH  14  18
ENDBRANCH  12  14
ENDBRANCH   2  10
TORSDOF 8
ENDMDL
MODEL       16
REMARK 921   NORMALIZED FREE ENERGY PREDICTED BY IDOCK:   -5.37 KCAL/MOL
REMARK 922        TOTAL FREE ENERGY PREDICTED BY IDOCK:   -8.67 KCAL/MOL
REMARK 923 INTER-LIGAND FREE ENERGY PREDICTED BY IDOCK:   -8.40 KCAL/MOL
REMARK 924 INTRA-LIGAND FREE ENERGY PREDICTED BY IDOCK:   -0.27 KCAL/MOL
REMARK 927      BINDING AFFINITY PREDICTED BY RF-SCORE:    0.00 PKD
ROOT
HETATM    1  C   UNL     1     -10.414  12.873  63.973  1.00  0.00    -0.395 C  
HETATM    2  C   UNL     1     -11.451  13.828  64.563  1.00  0.00    -0.384 C  
ENDROOT
BRANCH   2   3
HETATM    3  C   UNL     1     -12.493  13.088  65.436  1.00  0.00    -0.531 C  
BRANCH   3   4
HETATM    4  C   UNL     1     -12.076  12.858  66.875  1.00  0.00    -0.313 A  
HETATM    5  C   UNL     1     -11.576  11.612  67.281  1.00  0.00    -0.316 A  
HETATM    6  C   UNL     1     -11.267  12.434  69.533  1.00  0.00    -0.171 A  
HETATM    7  C   UNL     1     -11.176  11.401  68.604  1.00  0.00    -0.303 A  
HETATM    8  C   UNL     1     -11.751  13.681  69.141  1.00  0.00    -0.376 A  
HETATM    9  C   UNL     1     -12.148  13.893  67.818  1.00  0.00    -0.328 A  
ENDBRANCH   3   4
ENDBRANCH   2   3
BRANCH   2  10
HETATM   10  N   UNL     1     -10.753  14.859  65.327  1.00  0.00    -0.363 N  
HETATM   11  H   UNL     1     -10.131  14.563  66.080  1.00  0.00     0.000 HD 
HETATM   12  C   UNL     1     -10.889  16.209  65.088  1.00  0.00    -0.361 C  
HETATM   13  O   UNL     1     -11.540  16.676  64.158  1.00  0.00    -1.102 OA 
BRANCH  12  14
HETATM   14  C   UNL     1     -10.097  17.091  66.081  1.00  0.00    -0.319 C  
HETATM   15  N   UNL     1      -8.645  16.977  65.773  1.00  0.00    -0.476 NA 
HETATM   16  H2  UNL     1      -8.434  17.202  64.800  1.00  0.00     0.000 HD 
HETATM   17  H1  UNL     1      -8.122  17.559  66.428  1.00  0.00     0.000 HD 
BRANCH  14  18
HETATM   18  C   UNL     1     -10.506  18.568  65.987  1.00  0.00    -0.433 C  
BRANCH  18  19
HETATM   19  C   UNL     1     -10.726  19.210  67.362  1.00  0.00    -0.578 C  
BRANCH  19  20
HETATM   20  C   UNL     1      -9.823  20.432  67.563  1.00  0.00    -0.564 C  
BRANCH  20  21
HETATM   21  C   UNL     1      -8.350  20.059  67.392  1.00  0.00    -0.334 C  
HETATM   22  N   UNL     1      -7.553  21.252  67.133  1.00  0.00    -0.755 NA 
HETATM   23  H1  UNL     1      -6.570  21.004  67.019  1.00  0.00     0.000 HD 
HETATM   24  H2  UNL     1      -7.684  21.961  67.855  1.00  0.00     0.000 HD 
ENDBRANCH  20  21
ENDBRANCH  19  20
ENDBRANCH  18  19
ENDBRANCH  14  18
ENDBRANCH  12  14
ENDBRANCH   2  10
TORSDOF 8
ENDMDL
MODEL       17
REMARK 921   NORMALIZED FREE ENERGY PREDICTED BY IDOCK:   -5.35 KCAL/MOL
REMARK 922        TOTAL FREE ENERGY PREDICTED BY IDOCK:   -8.65 KCAL/MOL
REMARK 923 INTER-LIGAND FREE ENERGY PREDICTED BY IDOCK:   -8.10 KCAL/MOL
REMARK 924 INTRA-LIGAND FREE ENERGY PREDICTED BY IDOCK:   -0.54 KCAL/MOL
REMARK 927      BINDING AFFINITY PREDICTED BY RF-SCORE:    0.00 PKD
ROOT
HETATM    1  C   UNL     1     -10.548  17.918  67.362  1.00  0.00    -0.370 C  
HETATM    2  C   UNL     1      -9.791  17.369  66.154  1.00  0.00    -0.245 C  
ENDROOT
BRANCH   2   3
HETATM    3  C   UNL     1      -8.265  17.296  66.406  1.00  0.00    -0.317 C  
BRANCH   3   4
HETATM    4  C   UNL     1      -7.599  18.627  66.688  1.00  0.00    -0.259 A  
HETATM    5  C   UNL     1      -7.374  19.044  68.009  1.00  0.00    -0.282 A  
HETATM    6  C   UNL     1      -6.333  21.080  67.221  1.00  0.00    -0.405 A  
HETATM    7  C   UNL     1      -6.745  20.265  68.272  1.00  0.00    -0.331 A  
HETATM    8  C   UNL     1      -6.541  20.673  65.905  1.00  0.00    -0.249 A  
HETATM    9  C   UNL     1      -7.165  19.451  65.640  1.00  0.00    -0.258 A  
ENDBRANCH   3   4
ENDBRANCH   2   3
BRANCH   2  10
HETATM   10  N   UNL     1     -10.338  16.056  65.819  1.00  0.00    -0.358 N  
HETATM   11  H   UNL     1     -10.103  15.268  66.422  1.00  0.00     0.000 HD 
HETATM   12  C   UNL     1     -11.153  15.825  64.733  1.00  0.00    -0.400 C  
HETATM   13  O   UNL     1     -11.570  16.708  63.989  1.00  0.00    -1.197 OA 
BRANCH  12  14
HETATM   14  C   UNL     1     -11.540  14.336  64.562  1.00  0.00    -0.387 C  
HETATM   15  N   UNL     1     -10.298  13.514  64.561  1.00  0.00    -0.557 NA 
HETATM   16  H2  UNL     1      -9.725  13.675  65.390  1.00  0.00     0.000 HD 
HETATM   17  H1  UNL     1     -10.552  12.533  64.449  1.00  0.00     0.000 HD 
BRANCH  14  18
HETATM   18  C   UNL     1     -12.453  13.848  65.695  1.00  0.00    -0.538 C  
BRANCH  18  19
HETATM   19  C   UNL     1     -11.816  12.733  66.531  1.00  0.00    -0.471 C  
BRANCH  19  20
HETATM   20  C   UNL     1     -11.590  13.174  67.981  1.00  0.00    -0.371 C  
BRANCH  20  21
HETATM   21  C   UNL     1     -11.815  12.012  68.949  1.00  0.00    -0.299 C  
HETATM   22  N   UNL     1     -11.935  10.758  68.214  1.00  0.00    -0.810 NA 
HETATM   23  H1  UNL     1     -12.086   9.983  68.860  1.00  0.00     0.000 HD 
HETATM   24  H2  UNL     1     -11.133  10.595  67.606  1.00  0.00     0.000 HD 
ENDBRANCH  20  21
ENDBRANCH  19  20
ENDBRANCH  18  19
ENDBRANCH  14  18
ENDBRANCH  12  14
ENDBRANCH   2  10
TORSDOF 8
ENDMDL
MODEL       18
REMARK 921   NORMALIZED FREE ENERGY PREDICTED BY IDOCK:   -5.35 KCAL/MOL
REMARK 922        TOTAL FREE ENERGY PREDICTED BY IDOCK:   -8.64 KCAL/MOL
REMARK 923 INTER-LIGAND FREE ENERGY PREDICTED BY IDOCK:   -8.07 KCAL/MOL
REMARK 924 INTRA-LIGAND FREE ENERGY PREDICTED BY IDOCK:   -0.58 KCAL/MOL
REMARK 927      BINDING AFFINITY PREDICTED BY RF-SCORE:    0.00 PKD
ROOT
HETATM    1  C   UNL     1      -8.824  10.159  68.252  1.00  0.00    -0.124 C  
HETATM    2  C   UNL     1     -10.120  10.302  69.049  1.00  0.00    -0.213 C  
ENDROOT
BRANCH   2   3
HETATM    3  C   UNL     1     -10.053   9.563  70.407  1.00  0.00    -0.329 C  
BRANCH   3   4
HETATM    4  C   UNL     1     -11.356   8.933  70.857  1.00  0.00    -0.336 A  
HETATM    5  C   UNL     1     -12.452   9.737  71.203  1.00  0.00    -0.443 A  
HETATM    6  C   UNL     1     -13.787   7.773  71.660  1.00  0.00    -0.465 A  
HETATM    7  C   UNL     1     -13.661   9.159  71.604  1.00  0.00    -0.451 A  
HETATM    8  C   UNL     1     -12.710   6.963  71.308  1.00  0.00    -0.368 A  
HETATM    9  C   UNL     1     -11.503   7.540  70.904  1.00  0.00    -0.303 A  
ENDBRANCH   3   4
ENDBRANCH   2   3
BRANCH   2  10
HETATM   10  N   UNL     1     -10.399  11.724  69.231  1.00  0.00    -0.425 N  
HETATM   11  H   UNL     1      -9.766  12.269  69.817  1.00  0.00     0.000 HD 
HETATM   12  C   UNL     1     -11.471  12.371  68.655  1.00  0.00    -0.303 C  
HETATM   13  O   UNL     1     -12.247  11.840  67.867  1.00  0.00    -0.538 OA 
BRANCH  12  14
HETATM   14  C   UNL     1     -11.580  13.860  69.062  1.00  0.00    -0.310 C  
HETATM   15  N   UNL     1     -12.300  14.600  67.989  1.00  0.00    -0.589 NA 
HETATM   16  H2  UNL     1     -13.208  14.188  67.773  1.00  0.00     0.000 HD 
HETATM   17  H1  UNL     1     -12.371  15.581  68.256  1.00  0.00     0.000 HD 
BRANCH  14  18
HETATM   18  C   UNL     1     -12.344  14.038  70.381  1.00  0.00    -0.429 C  
BRANCH  18  19
HETATM   19  C   UNL     1     -11.737  15.126  71.274  1.00  0.00    -0.409 C  
BRANCH  19  20
HETATM   20  C   UNL     1     -12.805  15.806  72.139  1.00  0.00    -0.510 C  
BRANCH  20  21
HETATM   21  C   UNL     1     -12.803  15.239  73.558  1.00  0.00    -0.550 C  
HETATM   22  N   UNL     1     -12.818  16.320  74.536  1.00  0.00    -0.971 NA 
HETATM   23  H1  UNL     1     -12.816  15.942  75.483  1.00  0.00     0.000 HD 
HETATM   24  H2  UNL     1     -13.597  16.960  74.384  1.00  0.00     0.000 HD 
ENDBRANCH  20  21
ENDBRANCH  19  20
ENDBRANCH  18  19
ENDBRANCH  14  18
ENDBRANCH  12  14
ENDBRANCH   2  10
TORSDOF 8
ENDMDL
MODEL       19
REMARK 921   NORMALIZED FREE ENERGY PREDICTED BY IDOCK:   -5.35 KCAL/MOL
REMARK 922        TOTAL FREE ENERGY PREDICTED BY IDOCK:   -8.64 KCAL/MOL
REMARK 923 INTER-LIGAND FREE ENERGY PREDICTED BY IDOCK:   -8.05 KCAL/MOL
REMARK 924 INTRA-LIGAND FREE ENERGY PREDICTED BY IDOCK:   -0.59 KCAL/MOL
REMARK 927      BINDING AFFINITY PREDICTED BY RF-SCORE:    0.00 PKD
ROOT
HETATM    1  C   UNL     1      -8.502  10.100  69.061  1.00  0.00    -0.151 C  
HETATM    2  C   UNL     1      -9.966  10.185  69.493  1.00  0.00    -0.235 C  
ENDROOT
BRANCH   2   3
HETATM    3  C   UNL     1     -10.179   9.655  70.932  1.00  0.00    -0.303 C  
BRANCH   3   4
HETATM    4  C   UNL     1     -11.548   9.063  71.199  1.00  0.00    -0.372 A  
HETATM    5  C   UNL     1     -12.613   9.884  71.601  1.00  0.00    -0.519 A  
HETATM    6  C   UNL     1     -14.099   7.978  71.663  1.00  0.00    -0.516 A  
HETATM    7  C   UNL     1     -13.881   9.343  71.833  1.00  0.00    -0.380 A  
HETATM    8  C   UNL     1     -13.054   7.153  71.254  1.00  0.00    -0.361 A  
HETATM    9  C   UNL     1     -11.787   7.693  71.018  1.00  0.00    -0.306 A  
ENDBRANCH   3   4
ENDBRANCH   2   3
BRANCH   2  10
HETATM   10  N   UNL     1     -10.409  11.571  69.366  1.00  0.00    -0.429 N  
HETATM   11  H   UNL     1      -9.851  12.298  69.813  1.00  0.00     0.000 HD 
HETATM   12  C   UNL     1     -11.539  11.949  68.675  1.00  0.00    -0.310 C  
HETATM   13  O   UNL     1     -12.238  11.174  68.029  1.00  0.00    -0.584 OA 
BRANCH  12  14
HETATM   14  C   UNL     1     -11.825  13.469  68.750  1.00  0.00    -0.355 C  
HETATM   15  N   UNL     1     -10.856  14.093  69.692  1.00  0.00    -0.450 NA 
HETATM   16  H2  UNL     1      -9.887  13.891  69.445  1.00  0.00     0.000 HD 
HETATM   17  H1  UNL     1     -11.044  15.094  69.742  1.00  0.00     0.000 HD 
BRANCH  14  18
HETATM   18  C   UNL     1     -11.685  14.145  67.379  1.00  0.00    -0.422 C  
BRANCH  18  19
HETATM   19  C   UNL     1     -10.521  15.140  67.326  1.00  0.00    -0.271 C  
BRANCH  19  20
HETATM   20  C   UNL     1     -10.609  16.045  66.092  1.00  0.00    -0.302 C  
BRANCH  20  21
HETATM   21  C   UNL     1     -11.413  15.374  64.977  1.00  0.00    -0.263 C  
HETATM   22  N   UNL     1     -11.678  16.323  63.902  1.00  0.00    -1.518 NA 
HETATM   23  H1  UNL     1     -12.215  15.876  63.159  1.00  0.00     0.000 HD 
HETATM   24  H2  UNL     1     -10.820  16.748  63.550  1.00  0.00     0.000 HD 
ENDBRANCH  20  21
ENDBRANCH  19  20
ENDBRANCH  18  19
ENDBRANCH  14  18
ENDBRANCH  12  14
ENDBRANCH   2  10
TORSDOF 8
ENDMDL
MODEL       20
REMARK 921   NORMALIZED FREE ENERGY PREDICTED BY IDOCK:   -5.35 KCAL/MOL
REMARK 922        TOTAL FREE ENERGY PREDICTED BY IDOCK:   -8.64 KCAL/MOL
REMARK 923 INTER-LIGAND FREE ENERGY PREDICTED BY IDOCK:   -8.13 KCAL/MOL
REMARK 924 INTRA-LIGAND FREE ENERGY PREDICTED BY IDOCK:   -0.50 KCAL/MOL
REMARK 927      BINDING AFFINITY PREDICTED BY RF-SCORE:    0.00 PKD
ROOT
HETATM    1  C   UNL     1     -11.690  14.516  68.636  1.00  0.00    -0.364 C  
HETATM    2  C   UNL     1     -11.296  15.014  67.246  1.00  0.00    -0.332 C  
ENDROOT
BRANCH   2   3
HETATM    3  C   UNL     1      -9.954  15.786  67.263  1.00  0.00    -0.238 C  
BRANCH   3   4
HETATM    4  C   UNL     1     -10.082  17.289  67.409  1.00  0.00    -0.307 A  
HETATM    5  C   UNL     1      -9.861  17.904  68.650  1.00  0.00    -0.375 A  
HETATM    6  C   UNL     1     -10.283  20.079  67.681  1.00  0.00    -0.548 A  
HETATM    7  C   UNL     1      -9.963  19.292  68.785  1.00  0.00    -0.511 A  
HETATM    8  C   UNL     1     -10.494  19.481  66.441  1.00  0.00    -0.597 A  
HETATM    9  C   UNL     1     -10.389  18.095  66.304  1.00  0.00    -0.407 A  
ENDBRANCH   3   4
ENDBRANCH   2   3
BRANCH   2  10
HETATM   10  N   UNL     1     -11.240  13.870  66.340  1.00  0.00    -0.310 N  
HETATM   11  H   UNL     1     -10.381  13.321  66.309  1.00  0.00     0.000 HD 
HETATM   12  C   UNL     1     -12.285  13.492  65.524  1.00  0.00    -0.451 C  
HETATM   13  O   UNL     1     -13.391  14.024  65.539  1.00  0.00    -0.673 OA 
BRANCH  12  14
HETATM   14  C   UNL     1     -11.946  12.290  64.611  1.00  0.00    -0.366 C  
HETATM   15  N   UNL     1     -13.012  12.154  63.580  1.00  0.00    -0.790 NA 
HETATM   16  H2  UNL     1     -13.156  13.015  63.053  1.00  0.00     0.000 HD 
HETATM   17  H1  UNL     1     -12.789  11.362  62.979  1.00  0.00     0.000 HD 
BRANCH  14  18
HETATM   18  C   UNL     1     -10.596  12.472  63.903  1.00  0.00    -0.472 C  
BRANCH  18  19
HETATM   19  C   UNL     1     -10.160  11.223  63.130  1.00  0.00    -0.385 C  
BRANCH  19  20
HETATM   20  C   UNL     1      -9.531  10.177  64.058  1.00  0.00    -0.341 C  
BRANCH  20  21
HETATM   21  C   UNL     1      -8.480   9.349  63.319  1.00  0.00    -0.202 C  
HETATM   22  N   UNL     1      -9.120   8.473  62.345  1.00  0.00    -0.466 NA 
HETATM   23  H1  UNL     1      -8.418   7.920  61.852  1.00  0.00     0.000 HD 
HETATM   24  H2  UNL     1      -9.717   8.991  61.701  1.00  0.00     0.000 HD 
ENDBRANCH  20  21
ENDBRANCH  19  20
ENDBRANCH  18  19
ENDBRANCH  14  18
ENDBRANCH  12  14
ENDBRANCH   2  10
TORSDOF 8
ENDMDL
MODEL       21
REMARK 921   NORMALIZED FREE ENERGY PREDICTED BY IDOCK:   -5.33 KCAL/MOL
REMARK 922        TOTAL FREE ENERGY PREDICTED BY IDOCK:   -8.61 KCAL/MOL
REMARK 923 INTER-LIGAND FREE ENERGY PREDICTED BY IDOCK:   -7.55 KCAL/MOL
REMARK 924 INTRA-LIGAND FREE ENERGY PREDICTED BY IDOCK:   -1.06 KCAL/MOL
REMARK 927      BINDING AFFINITY PREDICTED BY RF-SCORE:    0.00 PKD
ROOT
HETATM    1  C   UNL     1     -11.021  11.032  65.550  1.00  0.00    -0.086 C  
HETATM    2  C   UNL     1     -11.298  12.171  66.531  1.00  0.00    -0.350 C  
ENDROOT
BRANCH   2   3
HETATM    3  C   UNL     1     -10.644  11.922  67.911  1.00  0.00    -0.229 C  
BRANCH   3   4
HETATM    4  C   UNL     1     -11.449  12.411  69.098  1.00  0.00    -0.358 A  
HETATM    5  C   UNL     1     -11.879  11.511  70.085  1.00  0.00    -0.440 A  
HETATM    6  C   UNL     1     -12.914  13.314  71.321  1.00  0.00    -0.353 A  
HETATM    7  C   UNL     1     -12.609  11.961  71.189  1.00  0.00    -0.390 A  
HETATM    8  C   UNL     1     -12.484  14.220  70.353  1.00  0.00    -0.426 A  
HETATM    9  C   UNL     1     -11.751  13.771  69.251  1.00  0.00    -0.376 A  
ENDBRANCH   3   4
ENDBRANCH   2   3
BRANCH   2  10
HETATM   10  N   UNL     1     -10.828  13.421  65.937  1.00  0.00    -0.273 N  
HETATM   11  H   UNL     1      -9.851  13.681  66.071  1.00  0.00     0.000 HD 
HETATM   12  C   UNL     1     -11.634  14.268  65.207  1.00  0.00    -0.348 C  
HETATM   13  O   UNL     1     -12.798  14.018  64.911  1.00  0.00    -0.692 OA 
BRANCH  12  14
HETATM   14  C   UNL     1     -10.911  15.557  64.749  1.00  0.00    -0.399 C  
HETATM   15  N   UNL     1     -11.823  16.328  63.859  1.00  0.00    -1.412 NA 
HETATM   16  H2  UNL     1     -12.723  16.522  64.298  1.00  0.00     0.000 HD 
HETATM   17  H1  UNL     1     -11.347  17.178  63.557  1.00  0.00     0.000 HD 
BRANCH  14  18
HETATM   18  C   UNL     1     -10.515  16.444  65.937  1.00  0.00    -0.350 C  
BRANCH  18  19
HETATM   19  C   UNL     1      -9.011  16.406  66.229  1.00  0.00    -0.368 C  
BRANCH  19  20
HETATM   20  C   UNL     1      -8.723  15.857  67.631  1.00  0.00    -0.174 C  
BRANCH  20  21
HETATM   21  C   UNL     1      -7.496  14.945  67.622  1.00  0.00    -0.185 C  
HETATM   22  N   UNL     1      -7.802  13.692  66.941  1.00  0.00    -0.338 NA 
HETATM   23  H1  UNL     1      -6.983  13.084  66.935  1.00  0.00     0.000 HD 
HETATM   24  H2  UNL     1      -8.166  13.849  66.002  1.00  0.00     0.000 HD 
ENDBRANCH  20  21
ENDBRANCH  19  20
ENDBRANCH  18  19
ENDBRANCH  14  18
ENDBRANCH  12  14
ENDBRANCH   2  10
TORSDOF 8
ENDMDL
MODEL       22
REMARK 921   NORMALIZED FREE ENERGY PREDICTED BY IDOCK:   -5.32 KCAL/MOL
REMARK 922        TOTAL FREE ENERGY PREDICTED BY IDOCK:   -8.60 KCAL/MOL
REMARK 923 INTER-LIGAND FREE ENERGY PREDICTED BY IDOCK:   -7.94 KCAL/MOL
REMARK 924 INTRA-LIGAND FREE ENERGY PREDICTED BY IDOCK:   -0.66 KCAL/MOL
REMARK 927      BINDING AFFINITY PREDICTED BY RF-SCORE:    0.00 PKD
ROOT
HETATM    1  C   UNL     1     -11.488  14.479  69.362  1.00  0.00    -0.323 C  
HETATM    2  C   UNL     1     -11.137  14.137  67.915  1.00  0.00    -0.268 C  
ENDROOT
BRANCH   2   3
HETATM    3  C   UNL     1     -12.161  13.164  67.282  1.00  0.00    -0.329 C  
BRANCH   3   4
HETATM    4  C   UNL     1     -11.748  12.581  65.946  1.00  0.00    -0.480 A  
HETATM    5  C   UNL     1     -10.769  11.578  65.879  1.00  0.00    -0.325 A  
HETATM    6  C   UNL     1     -11.001  11.470  63.474  1.00  0.00    -0.453 A  
HETATM    7  C   UNL     1     -10.397  11.028  64.649  1.00  0.00    -0.410 A  
HETATM    8  C   UNL     1     -11.982  12.457  63.528  1.00  0.00    -0.627 A  
HETATM    9  C   UNL     1     -12.358  13.005  64.757  1.00  0.00    -0.490 A  
ENDBRANCH   3   4
ENDBRANCH   2   3
BRANCH   2  10
HETATM   10  N   UNL     1     -11.041  15.379  67.153  1.00  0.00    -0.318 N  
HETATM   11  H   UNL     1     -11.839  16.014  67.163  1.00  0.00     0.000 HD 
HETATM   12  C   UNL     1      -9.932  15.740  66.419  1.00  0.00    -0.277 C  
HETATM   13  O   UNL     1      -8.885  15.099  66.401  1.00  0.00    -0.285 OA 
BRANCH  12  14
HETATM   14  C   UNL     1     -10.112  17.070  65.648  1.00  0.00    -0.112 C  
HETATM   15  N   UNL     1     -11.121  16.868  64.572  1.00  0.00    -1.120 NA 
HETATM   16  H2  UNL     1     -12.004  16.503  64.929  1.00  0.00     0.000 HD 
HETATM   17  H1  UNL     1     -11.239  17.744  64.064  1.00  0.00     0.000 HD 
BRANCH  14  18
HETATM   18  C   UNL     1     -10.591  18.203  66.567  1.00  0.00    -0.290 C  
BRANCH  18  19
HETATM   19  C   UNL     1     -10.222  19.592  66.034  1.00  0.00    -0.587 C  
BRANCH  19  20
HETATM   20  C   UNL     1      -9.443  20.406  67.073  1.00  0.00    -0.544 C  
BRANCH  20  21
HETATM   21  C   UNL     1      -9.328  19.642  68.393  1.00  0.00    -0.351 C  
HETATM   22  N   UNL     1      -7.930  19.525  68.790  1.00  0.00    -0.351 NA 
HETATM   23  H1  UNL     1      -7.853  19.015  69.670  1.00  0.00     0.000 HD 
HETATM   24  H2  UNL     1      -7.470  20.434  68.836  1.00  0.00     0.000 HD 
ENDBRANCH  20  21
ENDBRANCH  19  20
ENDBRANCH  18  19
ENDBRANCH  14  18
ENDBRANCH  12  14
ENDBRANCH   2  10
TORSDOF 8
ENDMDL
MODEL       23
REMARK 921   NORMALIZED FREE ENERGY PREDICTED BY IDOCK:   -5.30 KCAL/MOL
REMARK 922        TOTAL FREE ENERGY PREDICTED BY IDOCK:   -8.57 KCAL/MOL
REMARK 923 INTER-LIGAND FREE ENERGY PREDICTED BY IDOCK:   -8.36 KCAL/MOL
REMARK 924 INTRA-LIGAND FREE ENERGY PREDICTED BY IDOCK:   -0.20 KCAL/MOL
REMARK 927      BINDING AFFINITY PREDICTED BY RF-SCORE:    0.00 PKD
ROOT
HETATM    1  C   UNL     1     -10.268  14.503  66.624  1.00  0.00    -0.276 C  
HETATM    2  C   UNL     1     -11.787  14.576  66.776  1.00  0.00    -0.371 C  
ENDROOT
BRANCH   2   3
HETATM    3  C   UNL     1     -12.508  13.489  65.943  1.00  0.00    -0.484 C  
BRANCH   3   4
HETATM    4  C   UNL     1     -11.598  12.448  65.324  1.00  0.00    -0.419 A  
HETATM    5  C   UNL     1     -11.369  12.436  63.940  1.00  0.00    -0.502 A  
HETATM    6  C   UNL     1      -9.884  10.541  64.171  1.00  0.00    -0.401 A  
HETATM    7  C   UNL     1     -10.518  11.486  63.367  1.00  0.00    -0.466 A  
HETATM    8  C   UNL     1     -10.094  10.549  65.548  1.00  0.00    -0.349 A  
HETATM    9  C   UNL     1     -10.942  11.501  66.122  1.00  0.00    -0.320 A  
ENDBRANCH   3   4
ENDBRANCH   2   3
BRANCH   2  10
HETATM   10  N   UNL     1     -12.119  14.466  68.194  1.00  0.00    -0.567 N  
HETATM   11  H   UNL     1     -12.510  13.587  68.532  1.00  0.00     0.000 HD 
HETATM   12  C   UNL     1     -11.933  15.486  69.102  1.00  0.00    -0.309 C  
HETATM   13  O   UNL     1     -11.393  16.555  68.829  1.00  0.00    -0.318 OA 
BRANCH  12  14
HETATM   14  C   UNL     1     -12.429  15.139  70.526  1.00  0.00    -0.379 C  
HETATM   15  N   UNL     1     -13.855  15.547  70.651  1.00  0.00    -0.834 NA 
HETATM   16  H2  UNL     1     -14.442  15.138  69.923  1.00  0.00     0.000 HD 
HETATM   17  H1  UNL     1     -14.182  15.319  71.589  1.00  0.00     0.000 HD 
BRANCH  14  18
HETATM   18  C   UNL     1     -12.319  13.636  70.819  1.00  0.00    -0.446 C  
BRANCH  18  19
HETATM   19  C   UNL     1     -13.295  13.172  71.906  1.00  0.00    -0.546 C  
BRANCH  19  20
HETATM   20  C   UNL     1     -13.376  11.643  71.975  1.00  0.00    -0.405 C  
BRANCH  20  21
HETATM   21  C   UNL     1     -12.574  11.001  70.843  1.00  0.00    -0.391 C  
HETATM   22  N   UNL     1     -13.162   9.719  70.470  1.00  0.00    -0.582 NA 
HETATM   23  H1  UNL     1     -12.627   9.291  69.714  1.00  0.00     0.000 HD 
HETATM   24  H2  UNL     1     -14.150   9.810  70.232  1.00  0.00     0.000 HD 
ENDBRANCH  20  21
ENDBRANCH  19  20
ENDBRANCH  18  19
ENDBRANCH  14  18
ENDBRANCH  12  14
ENDBRANCH   2  10
TORSDOF 8
ENDMDL
MODEL       24
REMARK 921   NORMALIZED FREE ENERGY PREDICTED BY IDOCK:   -5.29 KCAL/MOL
REMARK 922        TOTAL FREE ENERGY PREDICTED BY IDOCK:   -8.56 KCAL/MOL
REMARK 923 INTER-LIGAND FREE ENERGY PREDICTED BY IDOCK:   -7.82 KCAL/MOL
REMARK 924 INTRA-LIGAND FREE ENERGY PREDICTED BY IDOCK:   -0.73 KCAL/MOL
REMARK 927      BINDING AFFINITY PREDICTED BY RF-SCORE:    0.00 PKD
ROOT
HETATM    1  C   UNL     1      -9.176  11.309  68.636  1.00  0.00    -0.163 C  
HETATM    2  C   UNL     1      -9.933  12.488  68.026  1.00  0.00    -0.219 C  
ENDROOT
BRANCH   2   3
HETATM    3  C   UNL     1     -11.334  12.079  67.513  1.00  0.00    -0.387 C  
BRANCH   3   4
HETATM    4  C   UNL     1     -11.591  12.371  66.049  1.00  0.00    -0.455 A  
HETATM    5  C   UNL     1     -12.240  13.553  65.662  1.00  0.00    -0.500 A  
HETATM    6  C   UNL     1     -12.041  12.938  63.332  1.00  0.00    -0.610 A  
HETATM    7  C   UNL     1     -12.465  13.833  64.311  1.00  0.00    -0.308 A  
HETATM    8  C   UNL     1     -11.385  11.765  63.702  1.00  0.00    -0.525 A  
HETATM    9  C   UNL     1     -11.157  11.486  65.052  1.00  0.00    -0.268 A  
ENDBRANCH   3   4
ENDBRANCH   2   3
BRANCH   2  10
HETATM   10  N   UNL     1     -10.021  13.552  69.023  1.00  0.00    -0.425 N  
HETATM   11  H   UNL     1     -10.005  13.291  70.009  1.00  0.00     0.000 HD 
HETATM   12  C   UNL     1     -10.124  14.889  68.705  1.00  0.00    -0.241 C  
HETATM   13  O   UNL     1     -10.068  15.326  67.560  1.00  0.00    -0.230 OA 
BRANCH  12  14
HETATM   14  C   UNL     1     -10.273  15.804  69.944  1.00  0.00    -0.273 C  
HETATM   15  N   UNL     1     -10.735  17.147  69.497  1.00  0.00    -0.358 NA 
HETATM   16  H2  UNL     1     -11.591  17.100  68.943  1.00  0.00     0.000 HD 
HETATM   17  H1  UNL     1     -10.833  17.750  70.313  1.00  0.00     0.000 HD 
BRANCH  14  18
HETATM   18  C   UNL     1     -11.288  15.244  70.951  1.00  0.00    -0.380 C  
BRANCH  18  19
HETATM   19  C   UNL     1     -12.738  15.420  70.490  1.00  0.00    -0.455 C  
BRANCH  19  20
HETATM   20  C   UNL     1     -13.715  15.370  71.670  1.00  0.00    -0.606 C  
BRANCH  20  21
HETATM   21  C   UNL     1     -12.977  15.096  72.980  1.00  0.00    -0.493 C  
HETATM   22  N   UNL     1     -13.250  16.154  73.946  1.00  0.00    -0.930 NA 
HETATM   23  H1  UNL     1     -12.756  15.971  74.820  1.00  0.00     0.000 HD 
HETATM   24  H2  UNL     1     -14.250  16.284  74.094  1.00  0.00     0.000 HD 
ENDBRANCH  20  21
ENDBRANCH  19  20
ENDBRANCH  18  19
ENDBRANCH  14  18
ENDBRANCH  12  14
ENDBRANCH   2  10
TORSDOF 8
ENDMDL
MODEL       25
REMARK 921   NORMALIZED FREE ENERGY PREDICTED BY IDOCK:   -5.29 KCAL/MOL
REMARK 922        TOTAL FREE ENERGY PREDICTED BY IDOCK:   -8.56 KCAL/MOL
REMARK 923 INTER-LIGAND FREE ENERGY PREDICTED BY IDOCK:   -7.55 KCAL/MOL
REMARK 924 INTRA-LIGAND FREE ENERGY PREDICTED BY IDOCK:   -1.01 KCAL/MOL
REMARK 927      BINDING AFFINITY PREDICTED BY RF-SCORE:    0.00 PKD
ROOT
HETATM    1  C   UNL     1     -11.783  12.423  68.253  1.00  0.00    -0.398 C  
HETATM    2  C   UNL     1     -11.748  13.933  68.489  1.00  0.00    -0.355 C  
ENDROOT
BRANCH   2   3
HETATM    3  C   UNL     1     -11.060  14.297  69.826  1.00  0.00    -0.175 C  
BRANCH   3   4
HETATM    4  C   UNL     1     -11.991  14.811  70.906  1.00  0.00    -0.384 A  
HETATM    5  C   UNL     1     -13.381  14.783  70.719  1.00  0.00    -0.302 A  
HETATM    6  C   UNL     1     -13.726  15.729  72.918  1.00  0.00    -0.631 A  
HETATM    7  C   UNL     1     -14.243  15.242  71.720  1.00  0.00    -0.669 A  
HETATM    8  C   UNL     1     -12.348  15.752  73.121  1.00  0.00    -0.591 A  
HETATM    9  C   UNL     1     -11.485  15.290  72.123  1.00  0.00    -0.499 A  
ENDBRANCH   3   4
ENDBRANCH   2   3
BRANCH   2  10
HETATM   10  N   UNL     1     -11.077  14.566  67.356  1.00  0.00    -0.303 N  
HETATM   11  H   UNL     1     -10.782  13.975  66.579  1.00  0.00     0.000 HD 
HETATM   12  C   UNL     1     -10.821  15.918  67.280  1.00  0.00    -0.279 C  
HETATM   13  O   UNL     1     -11.203  16.735  68.113  1.00  0.00    -0.325 OA 
BRANCH  12  14
HETATM   14  C   UNL     1     -10.038  16.323  66.009  1.00  0.00    -0.356 C  
HETATM   15  N   UNL     1     -10.454  17.694  65.604  1.00  0.00    -0.623 NA 
HETATM   16  H2  UNL     1     -10.348  18.372  66.359  1.00  0.00     0.000 HD 
HETATM   17  H1  UNL     1      -9.939  17.961  64.766  1.00  0.00     0.000 HD 
BRANCH  14  18
HETATM   18  C   UNL     1      -8.521  16.319  66.245  1.00  0.00    -0.369 C  
BRANCH  18  19
HETATM   19  C   UNL     1      -7.973  17.707  66.595  1.00  0.00    -0.285 C  
BRANCH  19  20
HETATM   20  C   UNL     1      -7.846  17.896  68.111  1.00  0.00    -0.266 C  
BRANCH  20  21
HETATM   21  C   UNL     1      -8.411  19.249  68.543  1.00  0.00    -0.366 C  
HETATM   22  N   UNL     1      -9.852  19.291  68.320  1.00  0.00    -0.373 NA 
HETATM   23  H1  UNL     1     -10.229  20.194  68.608  1.00  0.00     0.000 HD 
HETATM   24  H2  UNL     1     -10.330  18.516  68.779  1.00  0.00     0.000 HD 
ENDBRANCH  20  21
ENDBRANCH  19  20
ENDBRANCH  18  19
ENDBRANCH  14  18
ENDBRANCH  12  14
ENDBRANCH   2  10
TORSDOF 8
ENDMDL
MODEL       26
REMARK 921   NORMALIZED FREE ENERGY PREDICTED BY IDOCK:   -5.29 KCAL/MOL
REMARK 922        TOTAL FREE ENERGY PREDICTED BY IDOCK:   -8.55 KCAL/MOL
REMARK 923 INTER-LIGAND FREE ENERGY PREDICTED BY IDOCK:   -7.49 KCAL/MOL
REMARK 924 INTRA-LIGAND FREE ENERGY PREDICTED BY IDOCK:   -1.06 KCAL/MOL
REMARK 927      BINDING AFFINITY PREDICTED BY RF-SCORE:    0.00 PKD
ROOT
HETATM    1  C   UNL     1     -11.792  12.630  69.713  1.00  0.00    -0.379 C  
HETATM    2  C   UNL     1     -11.197  13.238  68.443  1.00  0.00    -0.280 C  
ENDROOT
BRANCH   2   3
HETATM    3  C   UNL     1     -12.256  13.405  67.326  1.00  0.00    -0.282 C  
BRANCH   3   4
HETATM    4  C   UNL     1     -11.869  12.817  65.984  1.00  0.00    -0.495 A  
HETATM    5  C   UNL     1     -12.633  13.091  64.841  1.00  0.00    -0.490 A  
HETATM    6  C   UNL     1     -11.139  11.758  63.485  1.00  0.00    -0.503 A  
HETATM    7  C   UNL     1     -12.271  12.563  63.598  1.00  0.00    -0.642 A  
HETATM    8  C   UNL     1     -10.365  11.486  64.611  1.00  0.00    -0.349 A  
HETATM    9  C   UNL     1     -10.725  12.018  65.853  1.00  0.00    -0.314 A  
ENDBRANCH   3   4
ENDBRANCH   2   3
BRANCH   2  10
HETATM   10  N   UNL     1     -10.577  14.516  68.784  1.00  0.00    -0.242 N  
HETATM   11  H   UNL     1     -11.077  15.141  69.416  1.00  0.00     0.000 HD 
HETATM   12  C   UNL     1      -9.353  14.923  68.299  1.00  0.00    -0.195 C  
HETATM   13  O   UNL     1      -8.625  14.222  67.603  1.00  0.00    -0.162 OA 
BRANCH  12  14
HETATM   14  C   UNL     1      -8.954  16.346  68.757  1.00  0.00    -0.245 C  
HETATM   15  N   UNL     1      -7.547  16.606  68.347  1.00  0.00    -0.187 NA 
HETATM   16  H2  UNL     1      -7.399  16.464  67.348  1.00  0.00     0.000 HD 
HETATM   17  H1  UNL     1      -7.284  17.544  68.650  1.00  0.00     0.000 HD 
BRANCH  14  18
HETATM   18  C   UNL     1      -9.856  17.422  68.134  1.00  0.00    -0.301 C  
BRANCH  18  19
HETATM   19  C   UNL     1      -9.440  17.787  66.705  1.00  0.00    -0.299 C  
BRANCH  19  20
HETATM   20  C   UNL     1     -10.626  17.713  65.736  1.00  0.00    -0.177 C  
BRANCH  20  21
HETATM   21  C   UNL     1     -10.778  16.303  65.164  1.00  0.00    -0.331 C  
HETATM   22  N   UNL     1     -11.485  16.348  63.889  1.00  0.00    -1.618 NA 
HETATM   23  H1  UNL     1     -11.587  15.408  63.507  1.00  0.00     0.000 HD 
HETATM   24  H2  UNL     1     -11.036  16.981  63.227  1.00  0.00     0.000 HD 
ENDBRANCH  20  21
ENDBRANCH  19  20
ENDBRANCH  18  19
ENDBRANCH  14  18
ENDBRANCH  12  14
ENDBRANCH   2  10
TORSDOF 8
ENDMDL
MODEL       27
REMARK 921   NORMALIZED FREE ENERGY PREDICTED BY IDOCK:   -5.28 KCAL/MOL
REMARK 922        TOTAL FREE ENERGY PREDICTED BY IDOCK:   -8.54 KCAL/MOL
REMARK 923 INTER-LIGAND FREE ENERGY PREDICTED BY IDOCK:   -8.13 KCAL/MOL
REMARK 924 INTRA-LIGAND FREE ENERGY PREDICTED BY IDOCK:   -0.41 KCAL/MOL
REMARK 927      BINDING AFFINITY PREDICTED BY RF-SCORE:    0.00 PKD
ROOT
HETATM    1  C   UNL     1     -10.496  14.247  67.387  1.00  0.00    -0.264 C  
HETATM    2  C   UNL     1     -10.750  14.253  68.894  1.00  0.00    -0.257 C  
ENDROOT
BRANCH   2   3
HETATM    3  C   UNL     1     -12.132  14.851  69.250  1.00  0.00    -0.286 C  
BRANCH   3   4
HETATM    4  C   UNL     1     -12.416  14.969  70.734  1.00  0.00    -0.411 A  
HETATM    5  C   UNL     1     -13.189  13.999  71.390  1.00  0.00    -0.404 A  
HETATM    6  C   UNL     1     -12.919  15.162  73.492  1.00  0.00    -0.601 A  
HETATM    7  C   UNL     1     -13.440  14.097  72.762  1.00  0.00    -0.592 A  
HETATM    8  C   UNL     1     -12.142  16.127  72.855  1.00  0.00    -0.643 A  
HETATM    9  C   UNL     1     -11.887  16.028  71.485  1.00  0.00    -0.554 A  
ENDBRANCH   3   4
ENDBRANCH   2   3
BRANCH   2  10
HETATM   10  N   UNL     1     -10.618  12.886  69.394  1.00  0.00    -0.412 N  
HETATM   11  H   UNL     1      -9.969  12.714  70.162  1.00  0.00     0.000 HD 
HETATM   12  C   UNL     1     -11.321  11.817  68.884  1.00  0.00    -0.267 C  
HETATM   13  O   UNL     1     -12.188  11.917  68.020  1.00  0.00    -0.491 OA 
BRANCH  12  14
HETATM   14  C   UNL     1     -10.947  10.467  69.541  1.00  0.00    -0.262 C  
HETATM   15  N   UNL     1      -9.464  10.376  69.642  1.00  0.00    -0.401 NA 
HETATM   16  H2  UNL     1      -9.058  11.173  70.132  1.00  0.00     0.000 HD 
HETATM   17  H1  UNL     1      -9.218   9.486  70.075  1.00  0.00     0.000 HD 
BRANCH  14  18
HETATM   18  C   UNL     1     -11.546  10.330  70.948  1.00  0.00    -0.454 C  
BRANCH  18  19
HETATM   19  C   UNL     1     -13.078  10.282  70.937  1.00  0.00    -0.423 C  
BRANCH  19  20
HETATM   20  C   UNL     1     -13.614   9.171  71.846  1.00  0.00    -0.493 C  
BRANCH  20  21
HETATM   21  C   UNL     1     -12.651   7.984  71.886  1.00  0.00    -0.328 C  
HETATM   22  N   UNL     1     -12.885   7.103  70.747  1.00  0.00    -0.591 NA 
HETATM   23  H1  UNL     1     -12.243   6.311  70.774  1.00  0.00     0.000 HD 
HETATM   24  H2  UNL     1     -12.834   7.606  69.861  1.00  0.00     0.000 HD 
ENDBRANCH  20  21
ENDBRANCH  19  20
ENDBRANCH  18  19
ENDBRANCH  14  18
ENDBRANCH  12  14
ENDBRANCH   2  10
TORSDOF 8
ENDMDL
MODEL       28
REMARK 921   NORMALIZED FREE ENERGY PREDICTED BY IDOCK:   -5.27 KCAL/MOL
REMARK 922        TOTAL FREE ENERGY PREDICTED BY IDOCK:   -8.53 KCAL/MOL
REMARK 923 INTER-LIGAND FREE ENERGY PREDICTED BY IDOCK:   -7.96 KCAL/MOL
REMARK 924 INTRA-LIGAND FREE ENERGY PREDICTED BY IDOCK:   -0.57 KCAL/MOL
REMARK 927      BINDING AFFINITY PREDICTED BY RF-SCORE:    0.00 PKD
ROOT
HETATM    1  C   UNL     1      -9.743  14.000  68.550  1.00  0.00    -0.215 C  
HETATM    2  C   UNL     1     -11.199  13.537  68.581  1.00  0.00    -0.278 C  
ENDROOT
BRANCH   2   3
HETATM    3  C   UNL     1     -11.422  12.260  67.736  1.00  0.00    -0.392 C  
BRANCH   3   4
HETATM    4  C   UNL     1     -11.652  12.503  66.258  1.00  0.00    -0.449 A  
HETATM    5  C   UNL     1     -12.426  13.591  65.827  1.00  0.00    -0.514 A  
HETATM    6  C   UNL     1     -12.055  12.980  63.517  1.00  0.00    -0.617 A  
HETATM    7  C   UNL     1     -12.627  13.826  64.464  1.00  0.00    -0.249 A  
HETATM    8  C   UNL     1     -11.275  11.902  63.931  1.00  0.00    -0.497 A  
HETATM    9  C   UNL     1     -11.070  11.669  65.293  1.00  0.00    -0.298 A  
ENDBRANCH   3   4
ENDBRANCH   2   3
BRANCH   2  10
HETATM   10  N   UNL     1     -11.592  13.329  69.973  1.00  0.00    -0.513 N  
HETATM   11  H   UNL     1     -11.276  12.480  70.441  1.00  0.00     0.000 HD 
HETATM   12  C   UNL     1     -12.367  14.217  70.687  1.00  0.00    -0.361 C  
HETATM   13  O   UNL     1     -12.733  15.307  70.256  1.00  0.00    -0.366 OA 
BRANCH  12  14
HETATM   14  C   UNL     1     -12.699  13.729  72.118  1.00  0.00    -0.196 C  
HETATM   15  N   UNL     1     -13.337  14.844  72.870  1.00  0.00    -0.470 NA 
HETATM   16  H2  UNL     1     -14.153  15.221  72.389  1.00  0.00     0.000 HD 
HETATM   17  H1  UNL     1     -13.555  14.523  73.813  1.00  0.00     0.000 HD 
BRANCH  14  18
HETATM   18  C   UNL     1     -13.658  12.530  72.105  1.00  0.00    -0.458 C  
BRANCH  18  19
HETATM   19  C   UNL     1     -12.923  11.185  72.129  1.00  0.00    -0.220 C  
BRANCH  19  20
HETATM   20  C   UNL     1     -13.488  10.217  71.083  1.00  0.00    -0.272 C  
BRANCH  20  21
HETATM   21  C   UNL     1     -13.837   8.870  71.715  1.00  0.00    -0.417 C  
HETATM   22  N   UNL     1     -13.888   8.990  73.168  1.00  0.00    -1.177 NA 
HETATM   23  H1  UNL     1     -14.120   8.091  73.590  1.00  0.00     0.000 HD 
HETATM   24  H2  UNL     1     -14.526   9.727  73.466  1.00  0.00     0.000 HD 
ENDBRANCH  20  21
ENDBRANCH  19  20
ENDBRANCH  18  19
ENDBRANCH  14  18
ENDBRANCH  12  14
ENDBRANCH   2  10
TORSDOF 8
ENDMDL
MODEL       29
REMARK 921   NORMALIZED FREE ENERGY PREDICTED BY IDOCK:   -5.26 KCAL/MOL
REMARK 922        TOTAL FREE ENERGY PREDICTED BY IDOCK:   -8.51 KCAL/MOL
REMARK 923 INTER-LIGAND FREE ENERGY PREDICTED BY IDOCK:   -7.99 KCAL/MOL
REMARK 924 INTRA-LIGAND FREE ENERGY PREDICTED BY IDOCK:   -0.52 KCAL/MOL
REMARK 927      BINDING AFFINITY PREDICTED BY RF-SCORE:    0.00 PKD
ROOT
HETATM    1  C   UNL     1     -12.227  11.892  63.480  1.00  0.00    -0.591 C  
HETATM    2  C   UNL     1     -11.296  12.334  64.609  1.00  0.00    -0.322 C  
ENDROOT
BRANCH   2   3
HETATM    3  C   UNL     1     -10.037  11.438  64.709  1.00  0.00    -0.326 C  
BRANCH   3   4
HETATM    4  C   UNL     1     -10.079  10.398  65.810  1.00  0.00    -0.329 A  
HETATM    5  C   UNL     1      -9.478   9.144  65.627  1.00  0.00    -0.309 A  
HETATM    6  C   UNL     1     -10.121   8.475  67.860  1.00  0.00    -0.258 A  
HETATM    7  C   UNL     1      -9.501   8.187  66.647  1.00  0.00    -0.274 A  
HETATM    8  C   UNL     1     -10.712   9.721  68.059  1.00  0.00    -0.298 A  
HETATM    9  C   UNL     1     -10.686  10.679  67.042  1.00  0.00    -0.317 A  
ENDBRANCH   3   4
ENDBRANCH   2   3
BRANCH   2  10
HETATM   10  N   UNL     1     -10.936  13.733  64.395  1.00  0.00    -0.542 N  
HETATM   11  H   UNL     1     -10.624  14.014  63.465  1.00  0.00     0.000 HD 
HETATM   12  C   UNL     1     -10.996  14.695  65.380  1.00  0.00    -0.353 C  
HETATM   13  O   UNL     1     -11.435  14.492  66.508  1.00  0.00    -0.345 OA 
BRANCH  12  14
HETATM   14  C   UNL     1     -10.496  16.083  64.913  1.00  0.00    -0.092 C  
HETATM   15  N   UNL     1     -11.529  16.695  64.033  1.00  0.00    -1.551 NA 
HETATM   16  H2  UNL     1     -12.445  16.741  64.480  1.00  0.00     0.000 HD 
HETATM   17  H1  UNL     1     -11.200  17.609  63.725  1.00  0.00     0.000 HD 
BRANCH  14  18
HETATM   18  C   UNL     1     -10.237  17.026  66.097  1.00  0.00    -0.346 C  
BRANCH  18  19
HETATM   19  C   UNL     1     -10.492  18.496  65.750  1.00  0.00    -0.277 C  
BRANCH  19  20
HETATM   20  C   UNL     1     -10.704  19.344  67.009  1.00  0.00    -0.582 C  
BRANCH  20  21
HETATM   21  C   UNL     1     -10.049  18.690  68.226  1.00  0.00    -0.389 C  
HETATM   22  N   UNL     1     -10.336  19.460  69.431  1.00  0.00    -0.485 NA 
HETATM   23  H1  UNL     1      -9.898  19.023  70.242  1.00  0.00     0.000 HD 
HETATM   24  H2  UNL     1     -11.338  19.595  69.565  1.00  0.00     0.000 HD 
ENDBRANCH  20  21
ENDBRANCH  19  20
ENDBRANCH  18  19
ENDBRANCH  14  18
ENDBRANCH  12  14
ENDBRANCH   2  10
TORSDOF 8
ENDMDL
MODEL       30
REMARK 921   NORMALIZED FREE ENERGY PREDICTED BY IDOCK:   -5.25 KCAL/MOL
REMARK 922        TOTAL FREE ENERGY PREDICTED BY IDOCK:   -8.49 KCAL/MOL
REMARK 923 INTER-LIGAND FREE ENERGY PREDICTED BY IDOCK:   -8.08 KCAL/MOL
REMARK 924 INTRA-LIGAND FREE ENERGY PREDICTED BY IDOCK:   -0.40 KCAL/MOL
REMARK 927      BINDING AFFINITY PREDICTED BY RF-SCORE:    0.00 PKD
ROOT
HETATM    1  C   UNL     1     -11.402  11.277  66.666  1.00  0.00    -0.154 C  
HETATM    2  C   UNL     1     -11.526  12.615  67.394  1.00  0.00    -0.337 C  
ENDROOT
BRANCH   2   3
HETATM    3  C   UNL     1     -10.850  12.586  68.786  1.00  0.00    -0.276 C  
BRANCH   3   4
HETATM    4  C   UNL     1     -11.685  11.972  69.890  1.00  0.00    -0.374 A  
HETATM    5  C   UNL     1     -12.368  12.789  70.804  1.00  0.00    -0.375 A  
HETATM    6  C   UNL     1     -13.265  10.841  71.922  1.00  0.00    -0.524 A  
HETATM    7  C   UNL     1     -13.152  12.225  71.815  1.00  0.00    -0.449 A  
HETATM    8  C   UNL     1     -12.601  10.018  71.014  1.00  0.00    -0.463 A  
HETATM    9  C   UNL     1     -11.820  10.581  70.001  1.00  0.00    -0.388 A  
ENDBRANCH   3   4
ENDBRANCH   2   3
BRANCH   2  10
HETATM   10  N   UNL     1     -10.955  13.660  66.547  1.00  0.00    -0.293 N  
HETATM   11  H   UNL     1      -9.963  13.874  66.648  1.00  0.00     0.000 HD 
HETATM   12  C   UNL     1     -11.684  14.374  65.621  1.00  0.00    -0.356 C  
HETATM   13  O   UNL     1     -12.861  14.147  65.354  1.00  0.00    -0.637 OA 
BRANCH  12  14
HETATM   14  C   UNL     1     -10.860  15.470  64.905  1.00  0.00    -0.427 C  
HETATM   15  N   UNL     1     -11.718  16.120  63.875  1.00  0.00    -1.452 NA 
HETATM   16  H2  UNL     1     -12.589  16.481  64.265  1.00  0.00     0.000 HD 
HETATM   17  H1  UNL     1     -11.175  16.842  63.403  1.00  0.00     0.000 HD 
BRANCH  14  18
HETATM   18  C   UNL     1     -10.365  16.545  65.883  1.00  0.00    -0.365 C  
BRANCH  18  19
HETATM   19  C   UNL     1      -8.845  16.512  66.078  1.00  0.00    -0.267 C  
BRANCH  19  20
HETATM   20  C   UNL     1      -8.249  17.924  66.096  1.00  0.00    -0.185 C  
BRANCH  20  21
HETATM   21  C   UNL     1      -8.917  18.787  67.166  1.00  0.00    -0.281 C  
HETATM   22  N   UNL     1      -9.220  20.110  66.633  1.00  0.00    -0.481 NA 
HETATM   23  H1  UNL     1      -9.666  20.686  67.347  1.00  0.00     0.000 HD 
HETATM   24  H2  UNL     1      -9.780  20.058  65.782  1.00  0.00     0.000 HD 
ENDBRANCH  20  21
ENDBRANCH  19  20
ENDBRANCH  18  19
ENDBRANCH  14  18
ENDBRANCH  12  14
ENDBRANCH   2  10
TORSDOF 8
ENDMDL
MODEL       31
REMARK 921   NORMALIZED FREE ENERGY PREDICTED BY IDOCK:   -5.23 KCAL/MOL
REMARK 922        TOTAL FREE ENERGY PREDICTED BY IDOCK:   -8.46 KCAL/MOL
REMARK 923 INTER-LIGAND FREE ENERGY PREDICTED BY IDOCK:   -7.20 KCAL/MOL
REMARK 924 INTRA-LIGAND FREE ENERGY PREDICTED BY IDOCK:   -1.26 KCAL/MOL
REMARK 927      BINDING AFFINITY PREDICTED BY RF-SCORE:    0.00 PKD
ROOT
HETATM    1  C   UNL     1      -8.912  10.064  69.473  1.00  0.00    -0.220 C  
HETATM    2  C   UNL     1     -10.375  10.503  69.452  1.00  0.00    -0.234 C  
ENDROOT
BRANCH   2   3
HETATM    3  C   UNL     1     -10.991  10.408  68.035  1.00  0.00    -0.347 C  
BRANCH   3   4
HETATM    4  C   UNL     1     -11.389  11.735  67.420  1.00  0.00    -0.376 A  
HETATM    5  C   UNL     1     -11.631  11.836  66.042  1.00  0.00    -0.206 A  
HETATM    6  C   UNL     1     -12.162  14.184  66.278  1.00  0.00    -0.474 A  
HETATM    7  C   UNL     1     -12.014  13.056  65.475  1.00  0.00    -0.470 A  
HETATM    8  C   UNL     1     -11.935  14.094  67.650  1.00  0.00    -0.405 A  
HETATM    9  C   UNL     1     -11.557  12.875  68.218  1.00  0.00    -0.374 A  
ENDBRANCH   3   4
ENDBRANCH   2   3
BRANCH   2  10
HETATM   10  N   UNL     1     -11.119   9.689  70.410  1.00  0.00    -0.268 N  
HETATM   11  H   UNL     1     -10.867   8.705  70.505  1.00  0.00     0.000 HD 
HETATM   12  C   UNL     1     -12.143  10.177  71.192  1.00  0.00    -0.388 C  
HETATM   13  O   UNL     1     -12.476  11.358  71.225  1.00  0.00    -0.364 OA 
BRANCH  12  14
HETATM   14  C   UNL     1     -12.813   9.094  72.072  1.00  0.00    -0.408 C  
HETATM   15  N   UNL     1     -13.887   8.431  71.283  1.00  0.00    -0.583 NA 
HETATM   16  H2  UNL     1     -13.545   8.056  70.398  1.00  0.00     0.000 HD 
HETATM   17  H1  UNL     1     -14.328   7.718  71.863  1.00  0.00     0.000 HD 
BRANCH  14  18
HETATM   18  C   UNL     1     -11.808   8.028  72.531  1.00  0.00    -0.419 C  
BRANCH  18  19
HETATM   19  C   UNL     1     -12.087   6.650  71.921  1.00  0.00    -0.385 C  
BRANCH  19  20
HETATM   20  C   UNL     1     -10.803   5.997  71.396  1.00  0.00    -0.328 C  
BRANCH  20  21
HETATM   21  C   UNL     1     -10.872   5.794  69.882  1.00  0.00    -0.347 C  
HETATM   22  N   UNL     1     -11.721   6.811  69.273  1.00  0.00    -0.605 NA 
HETATM   23  H1  UNL     1     -11.767   6.675  68.263  1.00  0.00     0.000 HD 
HETATM   24  H2  UNL     1     -11.419   7.754  69.517  1.00  0.00     0.000 HD 
ENDBRANCH  20  21
ENDBRANCH  19  20
ENDBRANCH  18  19
ENDBRANCH  14  18
ENDBRANCH  12  14
ENDBRANCH   2  10
TORSDOF 8
ENDMDL
MODEL       32
REMARK 921   NORMALIZED FREE ENERGY PREDICTED BY IDOCK:   -5.21 KCAL/MOL
REMARK 922        TOTAL FREE ENERGY PREDICTED BY IDOCK:   -8.44 KCAL/MOL
REMARK 923 INTER-LIGAND FREE ENERGY PREDICTED BY IDOCK:   -7.96 KCAL/MOL
REMARK 924 INTRA-LIGAND FREE ENERGY PREDICTED BY IDOCK:   -0.49 KCAL/MOL
REMARK 927      BINDING AFFINITY PREDICTED BY RF-SCORE:    0.00 PKD
ROOT
HETATM    1  C   UNL     1     -13.095  10.228  70.840  1.00  0.00    -0.423 C  
HETATM    2  C   UNL     1     -11.666  10.746  70.674  1.00  0.00    -0.342 C  
ENDROOT
BRANCH   2   3
HETATM    3  C   UNL     1     -10.667   9.606  70.361  1.00  0.00    -0.356 C  
BRANCH   3   4
HETATM    4  C   UNL     1     -10.877   8.334  71.157  1.00  0.00    -0.276 A  
HETATM    5  C   UNL     1     -11.266   7.149  70.515  1.00  0.00    -0.321 A  
HETATM    6  C   UNL     1     -11.235   5.962  72.622  1.00  0.00    -0.335 A  
HETATM    7  C   UNL     1     -11.445   5.970  71.245  1.00  0.00    -0.251 A  
HETATM    8  C   UNL     1     -10.837   7.130  73.270  1.00  0.00    -0.378 A  
HETATM    9  C   UNL     1     -10.654   8.308  72.541  1.00  0.00    -0.407 A  
ENDBRANCH   3   4
ENDBRANCH   2   3
BRANCH   2  10
HETATM   10  N   UNL     1     -11.659  11.763  69.625  1.00  0.00    -0.343 N  
HETATM   11  H   UNL     1     -11.359  11.488  68.690  1.00  0.00     0.000 HD 
HETATM   12  C   UNL     1     -12.035  13.072  69.830  1.00  0.00    -0.311 C  
HETATM   13  O   UNL     1     -12.493  13.495  70.888  1.00  0.00    -0.356 OA 
BRANCH  12  14
HETATM   14  C   UNL     1     -11.870  13.962  68.575  1.00  0.00    -0.366 C  
HETATM   15  N   UNL     1     -10.683  14.840  68.761  1.00  0.00    -0.245 NA 
HETATM   16  H2  UNL     1      -9.837  14.312  68.977  1.00  0.00     0.000 HD 
HETATM   17  H1  UNL     1     -10.574  15.427  67.934  1.00  0.00     0.000 HD 
BRANCH  14  18
HETATM   18  C   UNL     1     -11.671  13.125  67.303  1.00  0.00    -0.425 C  
BRANCH  18  19
HETATM   19  C   UNL     1     -12.252  13.799  66.055  1.00  0.00    -0.495 C  
BRANCH  19  20
HETATM   20  C   UNL     1     -11.157  14.145  65.040  1.00  0.00    -0.372 C  
BRANCH  20  21
HETATM   21  C   UNL     1     -10.866  15.645  65.039  1.00  0.00    -0.450 C  
HETATM   22  N   UNL     1     -11.648  16.312  64.004  1.00  0.00    -1.504 NA 
HETATM   23  H1  UNL     1     -11.453  17.314  64.003  1.00  0.00     0.000 HD 
HETATM   24  H2  UNL     1     -12.645  16.119  64.097  1.00  0.00     0.000 HD 
ENDBRANCH  20  21
ENDBRANCH  19  20
ENDBRANCH  18  19
ENDBRANCH  14  18
ENDBRANCH  12  14
ENDBRANCH   2  10
TORSDOF 8
ENDMDL
MODEL       33
REMARK 921   NORMALIZED FREE ENERGY PREDICTED BY IDOCK:   -5.20 KCAL/MOL
REMARK 922        TOTAL FREE ENERGY PREDICTED BY IDOCK:   -8.42 KCAL/MOL
REMARK 923 INTER-LIGAND FREE ENERGY PREDICTED BY IDOCK:   -7.58 KCAL/MOL
REMARK 924 INTRA-LIGAND FREE ENERGY PREDICTED BY IDOCK:   -0.84 KCAL/MOL
REMARK 927      BINDING AFFINITY PREDICTED BY RF-SCORE:    0.00 PKD
ROOT
HETATM    1  C   UNL     1     -13.106  14.984  70.914  1.00  0.00    -0.462 C  
HETATM    2  C   UNL     1     -12.151  15.185  69.738  1.00  0.00    -0.319 C  
ENDROOT
BRANCH   2   3
HETATM    3  C   UNL     1     -10.888  15.982  70.145  1.00  0.00    -0.349 C  
BRANCH   3   4
HETATM    4  C   UNL     1     -10.109  16.579  68.990  1.00  0.00    -0.279 A  
HETATM    5  C   UNL     1      -8.803  16.147  68.714  1.00  0.00    -0.233 A  
HETATM    6  C   UNL     1      -8.669  17.656  66.829  1.00  0.00    -0.277 A  
HETATM    7  C   UNL     1      -8.087  16.684  67.640  1.00  0.00    -0.184 A  
HETATM    8  C   UNL     1      -9.969  18.086  67.086  1.00  0.00    -0.326 A  
HETATM    9  C   UNL     1     -10.687  17.546  68.157  1.00  0.00    -0.330 A  
ENDBRANCH   3   4
ENDBRANCH   2   3
BRANCH   2  10
HETATM   10  N   UNL     1     -11.802  13.876  69.193  1.00  0.00    -0.337 N  
HETATM   11  H   UNL     1     -11.519  13.143  69.843  1.00  0.00     0.000 HD 
HETATM   12  C   UNL     1     -11.832  13.577  67.848  1.00  0.00    -0.362 C  
HETATM   13  O   UNL     1     -12.235  14.350  66.985  1.00  0.00    -0.400 OA 
BRANCH  12  14
HETATM   14  C   UNL     1     -11.350  12.142  67.527  1.00  0.00    -0.326 C  
HETATM   15  N   UNL     1     -12.124  11.178  68.357  1.00  0.00    -0.727 NA 
HETATM   16  H2  UNL     1     -13.132  11.285  68.240  1.00  0.00     0.000 HD 
HETATM   17  H1  UNL     1     -11.806  10.233  68.146  1.00  0.00     0.000 HD 
BRANCH  14  18
HETATM   18  C   UNL     1     -11.550  11.789  66.046  1.00  0.00    -0.206 C  
BRANCH  18  19
HETATM   19  C   UNL     1     -10.280  11.993  65.213  1.00  0.00    -0.304 C  
BRANCH  19  20
HETATM   20  C   UNL     1     -10.611  12.336  63.756  1.00  0.00    -0.488 C  
BRANCH  20  21
HETATM   21  C   UNL     1     -12.097  12.655  63.593  1.00  0.00    -0.547 C  
HETATM   22  N   UNL     1     -12.294  14.093  63.457  1.00  0.00    -1.127 NA 
HETATM   23  H1  UNL     1     -13.286  14.306  63.349  1.00  0.00     0.000 HD 
HETATM   24  H2  UNL     1     -11.736  14.484  62.698  1.00  0.00     0.000 HD 
ENDBRANCH  20  21
ENDBRANCH  19  20
ENDBRANCH  18  19
ENDBRANCH  14  18
ENDBRANCH  12  14
ENDBRANCH   2  10
TORSDOF 8
ENDMDL
MODEL       34
REMARK 921   NORMALIZED FREE ENERGY PREDICTED BY IDOCK:   -5.19 KCAL/MOL
REMARK 922        TOTAL FREE ENERGY PREDICTED BY IDOCK:   -8.41 KCAL/MOL
REMARK 923 INTER-LIGAND FREE ENERGY PREDICTED BY IDOCK:   -8.16 KCAL/MOL
REMARK 924 INTRA-LIGAND FREE ENERGY PREDICTED BY IDOCK:   -0.25 KCAL/MOL
REMARK 927      BINDING AFFINITY PREDICTED BY RF-SCORE:    0.00 PKD
ROOT
HETATM    1  C   UNL     1     -11.637  15.086  70.670  1.00  0.00    -0.358 C  
HETATM    2  C   UNL     1     -11.400  15.589  69.246  1.00  0.00    -0.325 C  
ENDROOT
BRANCH   2   3
HETATM    3  C   UNL     1     -10.090  16.404  69.127  1.00  0.00    -0.278 C  
BRANCH   3   4
HETATM    4  C   UNL     1     -10.182  17.640  68.256  1.00  0.00    -0.374 A  
HETATM    5  C   UNL     1      -9.987  18.915  68.807  1.00  0.00    -0.466 A  
HETATM    6  C   UNL     1     -10.317  19.936  66.640  1.00  0.00    -0.608 A  
HETATM    7  C   UNL     1     -10.056  20.057  68.003  1.00  0.00    -0.557 A  
HETATM    8  C   UNL     1     -10.503  18.675  66.078  1.00  0.00    -0.456 A  
HETATM    9  C   UNL     1     -10.430  17.533  66.880  1.00  0.00    -0.285 A  
ENDBRANCH   3   4
ENDBRANCH   2   3
BRANCH   2  10
HETATM   10  N   UNL     1     -11.397  14.441  68.342  1.00  0.00    -0.273 N  
HETATM   11  H   UNL     1     -12.255  14.225  67.835  1.00  0.00     0.000 HD 
HETATM   12  C   UNL     1     -10.298  13.635  68.138  1.00  0.00    -0.245 C  
HETATM   13  O   UNL     1      -9.193  13.848  68.626  1.00  0.00    -0.179 OA 
BRANCH  12  14
HETATM   14  C   UNL     1     -10.578  12.448  67.186  1.00  0.00    -0.224 C  
HETATM   15  N   UNL     1     -11.976  11.982  67.395  1.00  0.00    -0.585 NA 
HETATM   16  H2  UNL     1     -12.657  12.735  67.289  1.00  0.00     0.000 HD 
HETATM   17  H1  UNL     1     -12.161  11.200  66.768  1.00  0.00     0.000 HD 
BRANCH  14  18
HETATM   18  C   UNL     1     -10.405  12.843  65.712  1.00  0.00    -0.297 C  
BRANCH  18  19
HETATM   19  C   UNL     1     -11.631  12.498  64.859  1.00  0.00    -0.386 C  
BRANCH  19  20
HETATM   20  C   UNL     1     -12.073  13.688  64.000  1.00  0.00    -0.474 C  
BRANCH  20  21
HETATM   21  C   UNL     1     -11.760  15.012  64.697  1.00  0.00    -0.382 C  
HETATM   22  N   UNL     1     -11.704  16.096  63.723  1.00  0.00    -1.406 NA 
HETATM   23  H1  UNL     1     -11.494  16.980  64.188  1.00  0.00     0.000 HD 
HETATM   24  H2  UNL     1     -12.556  16.152  63.167  1.00  0.00     0.000 HD 
ENDBRANCH  20  21
ENDBRANCH  19  20
ENDBRANCH  18  19
ENDBRANCH  14  18
ENDBRANCH  12  14
ENDBRANCH   2  10
TORSDOF 8
ENDMDL
MODEL       35
REMARK 921   NORMALIZED FREE ENERGY PREDICTED BY IDOCK:   -5.19 KCAL/MOL
REMARK 922        TOTAL FREE ENERGY PREDICTED BY IDOCK:   -8.40 KCAL/MOL
REMARK 923 INTER-LIGAND FREE ENERGY PREDICTED BY IDOCK:   -7.88 KCAL/MOL
REMARK 924 INTRA-LIGAND FREE ENERGY PREDICTED BY IDOCK:   -0.52 KCAL/MOL
REMARK 927      BINDING AFFINITY PREDICTED BY RF-SCORE:    0.00 PKD
ROOT
HETATM    1  C   UNL     1     -10.433  17.174  68.453  1.00  0.00    -0.376 C  
HETATM    2  C   UNL     1     -10.712  15.716  68.814  1.00  0.00    -0.250 C  
ENDROOT
BRANCH   2   3
HETATM    3  C   UNL     1     -12.188  15.488  69.219  1.00  0.00    -0.209 C  
BRANCH   3   4
HETATM    4  C   UNL     1     -12.416  15.253  70.699  1.00  0.00    -0.458 A  
HETATM    5  C   UNL     1     -11.813  16.087  71.653  1.00  0.00    -0.582 A  
HETATM    6  C   UNL     1     -12.861  14.846  73.444  1.00  0.00    -0.638 A  
HETATM    7  C   UNL     1     -12.034  15.882  73.018  1.00  0.00    -0.596 A  
HETATM    8  C   UNL     1     -13.475  14.018  72.507  1.00  0.00    -0.661 A  
HETATM    9  C   UNL     1     -13.258  14.224  71.142  1.00  0.00    -0.387 A  
ENDBRANCH   3   4
ENDBRANCH   2   3
BRANCH   2  10
HETATM   10  N   UNL     1     -10.336  14.876  67.679  1.00  0.00    -0.240 N  
HETATM   11  H   UNL     1     -10.218  15.320  66.769  1.00  0.00     0.000 HD 
HETATM   12  C   UNL     1     -10.134  13.516  67.771  1.00  0.00    -0.236 C  
HETATM   13  O   UNL     1     -10.165  12.889  68.826  1.00  0.00    -0.197 OA 
BRANCH  12  14
HETATM   14  C   UNL     1      -9.813  12.850  66.412  1.00  0.00    -0.268 C  
HETATM   15  N   UNL     1      -8.358  12.540  66.361  1.00  0.00    -0.390 NA 
HETATM   16  H2  UNL     1      -8.051  11.975  67.153  1.00  0.00     0.000 HD 
HETATM   17  H1  UNL     1      -8.146  12.101  65.465  1.00  0.00     0.000 HD 
BRANCH  14  18
HETATM   18  C   UNL     1     -10.601  11.548  66.212  1.00  0.00    -0.309 C  
BRANCH  18  19
HETATM   19  C   UNL     1     -11.354  11.510  64.878  1.00  0.00    -0.189 C  
BRANCH  19  20
HETATM   20  C   UNL     1     -12.338  12.680  64.753  1.00  0.00    -0.556 C  
BRANCH  20  21
HETATM   21  C   UNL     1     -12.035  13.520  63.513  1.00  0.00    -0.332 C  
HETATM   22  N   UNL     1     -12.505  14.888  63.700  1.00  0.00    -1.008 NA 
HETATM   23  H1  UNL     1     -12.304  15.448  62.872  1.00  0.00     0.000 HD 
HETATM   24  H2  UNL     1     -12.124  15.308  64.547  1.00  0.00     0.000 HD 
ENDBRANCH  20  21
ENDBRANCH  19  20
ENDBRANCH  18  19
ENDBRANCH  14  18
ENDBRANCH  12  14
ENDBRANCH   2  10
TORSDOF 8
ENDMDL
MODEL       36
REMARK 921   NORMALIZED FREE ENERGY PREDICTED BY IDOCK:   -5.17 KCAL/MOL
REMARK 922        TOTAL FREE ENERGY PREDICTED BY IDOCK:   -8.38 KCAL/MOL
REMARK 923 INTER-LIGAND FREE ENERGY PREDICTED BY IDOCK:   -7.00 KCAL/MOL
REMARK 924 INTRA-LIGAND FREE ENERGY PREDICTED BY IDOCK:   -1.38 KCAL/MOL
REMARK 927      BINDING AFFINITY PREDICTED BY RF-SCORE:    0.00 PKD
ROOT
HETATM    1  C   UNL     1      -9.122  10.967  62.523  1.00  0.00    -0.361 C  
HETATM    2  C   UNL     1     -10.131  10.913  63.670  1.00  0.00    -0.355 C  
ENDROOT
BRANCH   2   3
HETATM    3  C   UNL     1      -9.618  10.065  64.858  1.00  0.00    -0.375 C  
BRANCH   3   4
HETATM    4  C   UNL     1      -9.860  10.668  66.227  1.00  0.00    -0.263 A  
HETATM    5  C   UNL     1     -11.116  10.559  66.841  1.00  0.00    -0.124 A  
HETATM    6  C   UNL     1     -10.307  11.755  68.780  1.00  0.00    -0.198 A  
HETATM    7  C   UNL     1     -11.338  11.101  68.110  1.00  0.00    -0.377 A  
HETATM    8  C   UNL     1      -9.051  11.861  68.187  1.00  0.00    -0.190 A  
HETATM    9  C   UNL     1      -8.827  11.315  66.919  1.00  0.00    -0.165 A  
ENDBRANCH   3   4
ENDBRANCH   2   3
BRANCH   2  10
HETATM   10  N   UNL     1     -10.437  12.280  64.085  1.00  0.00    -0.345 N  
HETATM   11  H   UNL     1      -9.687  12.840  64.490  1.00  0.00     0.000 HD 
HETATM   12  C   UNL     1     -11.684  12.854  63.960  1.00  0.00    -0.434 C  
HETATM   13  O   UNL     1     -12.636  12.308  63.412  1.00  0.00    -0.682 OA 
BRANCH  12  14
HETATM   14  C   UNL     1     -11.760  14.287  64.538  1.00  0.00    -0.418 C  
HETATM   15  N   UNL     1     -12.699  15.091  63.708  1.00  0.00    -0.799 NA 
HETATM   16  H2  UNL     1     -13.618  14.655  63.626  1.00  0.00     0.000 HD 
HETATM   17  H1  UNL     1     -12.749  16.035  64.089  1.00  0.00     0.000 HD 
BRANCH  14  18
HETATM   18  C   UNL     1     -12.258  14.292  65.991  1.00  0.00    -0.422 C  
BRANCH  18  19
HETATM   19  C   UNL     1     -11.228  14.870  66.967  1.00  0.00    -0.344 C  
BRANCH  19  20
HETATM   20  C   UNL     1      -9.821  14.884  66.358  1.00  0.00    -0.292 C  
BRANCH  20  21
HETATM   21  C   UNL     1      -9.254  16.303  66.322  1.00  0.00    -0.328 C  
HETATM   22  N   UNL     1     -10.050  17.144  65.435  1.00  0.00    -0.530 NA 
HETATM   23  H1  UNL     1      -9.671  18.091  65.411  1.00  0.00     0.000 HD 
HETATM   24  H2  UNL     1     -11.037  17.136  65.689  1.00  0.00     0.000 HD 
ENDBRANCH  20  21
ENDBRANCH  19  20
ENDBRANCH  18  19
ENDBRANCH  14  18
ENDBRANCH  12  14
ENDBRANCH   2  10
TORSDOF 8
ENDMDL
MODEL       37
REMARK 921   NORMALIZED FREE ENERGY PREDICTED BY IDOCK:   -5.17 KCAL/MOL
REMARK 922        TOTAL FREE ENERGY PREDICTED BY IDOCK:   -8.38 KCAL/MOL
REMARK 923 INTER-LIGAND FREE ENERGY PREDICTED BY IDOCK:   -7.28 KCAL/MOL
REMARK 924 INTRA-LIGAND FREE ENERGY PREDICTED BY IDOCK:   -1.10 KCAL/MOL
REMARK 927      BINDING AFFINITY PREDICTED BY RF-SCORE:    0.00 PKD
ROOT
HETATM    1  C   UNL     1     -12.636  13.487  70.856  1.00  0.00    -0.414 C  
HETATM    2  C   UNL     1     -12.020  13.174  69.493  1.00  0.00    -0.294 C  
ENDROOT
BRANCH   2   3
HETATM    3  C   UNL     1     -11.459  14.441  68.803  1.00  0.00    -0.319 C  
BRANCH   3   4
HETATM    4  C   UNL     1     -11.592  14.460  67.294  1.00  0.00    -0.401 A  
HETATM    5  C   UNL     1     -10.802  15.323  66.521  1.00  0.00    -0.311 A  
HETATM    6  C   UNL     1     -11.809  14.477  64.491  1.00  0.00    -0.459 A  
HETATM    7  C   UNL     1     -10.911  15.332  65.127  1.00  0.00    -0.428 A  
HETATM    8  C   UNL     1     -12.592  13.607  65.247  1.00  0.00    -0.512 A  
HETATM    9  C   UNL     1     -12.480  13.595  66.640  1.00  0.00    -0.291 A  
ENDBRANCH   3   4
ENDBRANCH   2   3
BRANCH   2  10
HETATM   10  N   UNL     1     -10.981  12.163  69.673  1.00  0.00    -0.466 N  
HETATM   11  H   UNL     1     -10.284  12.312  70.403  1.00  0.00     0.000 HD 
HETATM   12  C   UNL     1     -10.891  11.019  68.911  1.00  0.00    -0.217 C  
HETATM   13  O   UNL     1     -11.719  10.693  68.065  1.00  0.00    -0.495 OA 
BRANCH  12  14
HETATM   14  C   UNL     1      -9.660  10.146  69.256  1.00  0.00    -0.225 C  
HETATM   15  N   UNL     1      -8.450  11.012  69.281  1.00  0.00    -0.381 NA 
HETATM   16  H2  UNL     1      -8.552  11.808  69.912  1.00  0.00     0.000 HD 
HETATM   17  H1  UNL     1      -7.639  10.438  69.508  1.00  0.00     0.000 HD 
BRANCH  14  18
HETATM   18  C   UNL     1      -9.808   9.466  70.624  1.00  0.00    -0.340 C  
BRANCH  18  19
HETATM   19  C   UNL     1     -11.087   8.629  70.734  1.00  0.00    -0.295 C  
BRANCH  19  20
HETATM   20  C   UNL     1     -11.795   8.856  72.075  1.00  0.00    -0.438 C  
BRANCH  20  21
HETATM   21  C   UNL     1     -12.941   9.856  71.927  1.00  0.00    -0.448 C  
HETATM   22  N   UNL     1     -13.447   9.848  70.559  1.00  0.00    -0.547 NA 
HETATM   23  H1  UNL     1     -14.212  10.516  70.460  1.00  0.00     0.000 HD 
HETATM   24  H2  UNL     1     -13.719   8.912  70.260  1.00  0.00     0.000 HD 
ENDBRANCH  20  21
ENDBRANCH  19  20
ENDBRANCH  18  19
ENDBRANCH  14  18
ENDBRANCH  12  14
ENDBRANCH   2  10
TORSDOF 8
ENDMDL
MODEL       38
REMARK 921   NORMALIZED FREE ENERGY PREDICTED BY IDOCK:   -5.17 KCAL/MOL
REMARK 922        TOTAL FREE ENERGY PREDICTED BY IDOCK:   -8.37 KCAL/MOL
REMARK 923 INTER-LIGAND FREE ENERGY PREDICTED BY IDOCK:   -7.61 KCAL/MOL
REMARK 924 INTRA-LIGAND FREE ENERGY PREDICTED BY IDOCK:   -0.76 KCAL/MOL
REMARK 927      BINDING AFFINITY PREDICTED BY RF-SCORE:    0.00 PKD
ROOT
HETATM    1  C   UNL     1      -7.115  15.225  69.570  1.00  0.00    -0.201 C  
HETATM    2  C   UNL     1      -8.397  15.905  69.091  1.00  0.00    -0.253 C  
ENDROOT
BRANCH   2   3
HETATM    3  C   UNL     1      -8.317  16.315  67.601  1.00  0.00    -0.172 C  
BRANCH   3   4
HETATM    4  C   UNL     1      -8.889  17.682  67.282  1.00  0.00    -0.240 A  
HETATM    5  C   UNL     1      -9.932  17.818  66.354  1.00  0.00    -0.345 A  
HETATM    6  C   UNL     1      -9.977  20.210  66.709  1.00  0.00    -0.604 A  
HETATM    7  C   UNL     1     -10.471  19.076  66.069  1.00  0.00    -0.530 A  
HETATM    8  C   UNL     1      -8.948  20.087  67.641  1.00  0.00    -0.420 A  
HETATM    9  C   UNL     1      -8.411  18.830  67.929  1.00  0.00    -0.300 A  
ENDBRANCH   3   4
ENDBRANCH   2   3
BRANCH   2  10
HETATM   10  N   UNL     1      -9.521  15.005  69.335  1.00  0.00    -0.385 N  
HETATM   11  H   UNL     1      -9.362  14.001  69.249  1.00  0.00     0.000 HD 
HETATM   12  C   UNL     1     -10.785  15.437  69.676  1.00  0.00    -0.276 C  
HETATM   13  O   UNL     1     -11.071  16.611  69.891  1.00  0.00    -0.305 OA 
BRANCH  12  14
HETATM   14  C   UNL     1     -11.811  14.287  69.811  1.00  0.00    -0.324 C  
HETATM   15  N   UNL     1     -13.142  14.867  70.138  1.00  0.00    -0.607 NA 
HETATM   16  H2  UNL     1     -13.436  15.574  69.464  1.00  0.00     0.000 HD 
HETATM   17  H1  UNL     1     -13.819  14.109  70.228  1.00  0.00     0.000 HD 
BRANCH  14  18
HETATM   18  C   UNL     1     -11.933  13.474  68.514  1.00  0.00    -0.379 C  
BRANCH  18  19
HETATM   19  C   UNL     1     -11.930  14.356  67.261  1.00  0.00    -0.409 C  
BRANCH  19  20
HETATM   20  C   UNL     1     -12.280  13.550  66.004  1.00  0.00    -0.493 C  
BRANCH  20  21
HETATM   21  C   UNL     1     -11.640  14.169  64.761  1.00  0.00    -0.396 C  
HETATM   22  N   UNL     1     -12.649  14.397  63.733  1.00  0.00    -0.973 NA 
HETATM   23  H1  UNL     1     -12.223  14.809  62.903  1.00  0.00     0.000 HD 
HETATM   24  H2  UNL     1     -13.426  14.959  64.081  1.00  0.00     0.000 HD 
ENDBRANCH  20  21
ENDBRANCH  19  20
ENDBRANCH  18  19
ENDBRANCH  14  18
ENDBRANCH  12  14
ENDBRANCH   2  10
TORSDOF 8
ENDMDL
MODEL       39
REMARK 921   NORMALIZED FREE ENERGY PREDICTED BY IDOCK:   -5.17 KCAL/MOL
REMARK 922        TOTAL FREE ENERGY PREDICTED BY IDOCK:   -8.37 KCAL/MOL
REMARK 923 INTER-LIGAND FREE ENERGY PREDICTED BY IDOCK:   -7.73 KCAL/MOL
REMARK 924 INTRA-LIGAND FREE ENERGY PREDICTED BY IDOCK:   -0.64 KCAL/MOL
REMARK 927      BINDING AFFINITY PREDICTED BY RF-SCORE:    0.00 PKD
ROOT
HETATM    1  C   UNL     1     -10.426  10.471  67.114  1.00  0.00    -0.302 C  
HETATM    2  C   UNL     1     -10.588  11.168  68.464  1.00  0.00    -0.191 C  
ENDROOT
BRANCH   2   3
HETATM    3  C   UNL     1     -10.052  10.305  69.632  1.00  0.00    -0.257 C  
BRANCH   3   4
HETATM    4  C   UNL     1     -11.096   9.881  70.646  1.00  0.00    -0.409 A  
HETATM    5  C   UNL     1     -12.338  10.530  70.702  1.00  0.00    -0.449 A  
HETATM    6  C   UNL     1     -13.050   9.080  72.501  1.00  0.00    -0.450 A  
HETATM    7  C   UNL     1     -13.309  10.132  71.626  1.00  0.00    -0.463 A  
HETATM    8  C   UNL     1     -11.823   8.420  72.449  1.00  0.00    -0.452 A  
HETATM    9  C   UNL     1     -10.854   8.815  71.523  1.00  0.00    -0.374 A  
ENDBRANCH   3   4
ENDBRANCH   2   3
BRANCH   2  10
HETATM   10  N   UNL     1      -9.912  12.461  68.405  1.00  0.00    -0.244 N  
HETATM   11  H   UNL     1      -8.893  12.471  68.361  1.00  0.00     0.000 HD 
HETATM   12  C   UNL     1     -10.575  13.669  68.405  1.00  0.00    -0.251 C  
HETATM   13  O   UNL     1     -11.797  13.779  68.369  1.00  0.00    -0.341 OA 
BRANCH  12  14
HETATM   14  C   UNL     1      -9.625  14.890  68.406  1.00  0.00    -0.209 C  
HETATM   15  N   UNL     1      -8.761  14.826  69.617  1.00  0.00    -0.418 NA 
HETATM   16  H2  UNL     1      -8.258  13.942  69.690  1.00  0.00     0.000 HD 
HETATM   17  H1  UNL     1      -8.135  15.631  69.618  1.00  0.00     0.000 HD 
BRANCH  14  18
HETATM   18  C   UNL     1      -8.727  14.918  67.161  1.00  0.00    -0.240 C  
BRANCH  18  19
HETATM   19  C   UNL     1      -9.021  16.112  66.246  1.00  0.00    -0.379 C  
BRANCH  19  20
HETATM   20  C   UNL     1     -10.527  16.300  66.032  1.00  0.00    -0.342 C  
BRANCH  20  21
HETATM   21  C   UNL     1     -11.015  15.489  64.831  1.00  0.00    -0.436 C  
HETATM   22  N   UNL     1     -11.703  16.355  63.881  1.00  0.00    -1.527 NA 
HETATM   23  H1  UNL     1     -12.029  15.813  63.080  1.00  0.00     0.000 HD 
HETATM   24  H2  UNL     1     -11.123  17.143  63.596  1.00  0.00     0.000 HD 
ENDBRANCH  20  21
ENDBRANCH  19  20
ENDBRANCH  18  19
ENDBRANCH  14  18
ENDBRANCH  12  14
ENDBRANCH   2  10
TORSDOF 8
ENDMDL
MODEL       40
REMARK 921   NORMALIZED FREE ENERGY PREDICTED BY IDOCK:   -5.17 KCAL/MOL
REMARK 922        TOTAL FREE ENERGY PREDICTED BY IDOCK:   -8.37 KCAL/MOL
REMARK 923 INTER-LIGAND FREE ENERGY PREDICTED BY IDOCK:   -7.57 KCAL/MOL
REMARK 924 INTRA-LIGAND FREE ENERGY PREDICTED BY IDOCK:   -0.80 KCAL/MOL
REMARK 927      BINDING AFFINITY PREDICTED BY RF-SCORE:    0.00 PKD
ROOT
HETATM    1  C   UNL     1     -11.332  11.080  68.979  1.00  0.00    -0.345 C  
HETATM    2  C   UNL     1     -11.833  11.652  70.305  1.00  0.00    -0.326 C  
ENDROOT
BRANCH   2   3
HETATM    3  C   UNL     1     -12.767  12.868  70.098  1.00  0.00     0.133 C  
BRANCH   3   4
HETATM    4  C   UNL     1     -12.584  13.993  71.097  1.00  0.00    -0.445 A  
HETATM    5  C   UNL     1     -13.255  13.967  72.329  1.00  0.00    -0.558 A  
HETATM    6  C   UNL     1     -12.224  16.059  72.969  1.00  0.00    -0.637 A  
HETATM    7  C   UNL     1     -13.076  14.996  73.258  1.00  0.00    -0.607 A  
HETATM    8  C   UNL     1     -11.543  16.091  71.754  1.00  0.00    -0.534 A  
HETATM    9  C   UNL     1     -11.718  15.062  70.825  1.00  0.00    -0.371 A  
ENDBRANCH   3   4
ENDBRANCH   2   3
BRANCH   2  10
HETATM   10  N   UNL     1     -12.502  10.588  71.048  1.00  0.00    -0.362 N  
HETATM   11  H   UNL     1     -13.522  10.592  71.084  1.00  0.00     0.000 HD 
HETATM   12  C   UNL     1     -11.832   9.578  71.704  1.00  0.00    -0.397 C  
HETATM   13  O   UNL     1     -10.616   9.422  71.659  1.00  0.00    -0.340 OA 
BRANCH  12  14
HETATM   14  C   UNL     1     -12.771   8.617  72.472  1.00  0.00    -0.294 C  
HETATM   15  N   UNL     1     -14.056   9.316  72.745  1.00  0.00    -0.950 NA 
HETATM   16  H2  UNL     1     -14.487   9.684  71.896  1.00  0.00     0.000 HD 
HETATM   17  H1  UNL     1     -14.675   8.683  73.251  1.00  0.00     0.000 HD 
BRANCH  14  18
HETATM   18  C   UNL     1     -13.064   7.340  71.671  1.00  0.00    -0.417 C  
BRANCH  18  19
HETATM   19  C   UNL     1     -12.281   6.127  72.184  1.00  0.00    -0.202 C  
BRANCH  19  20
HETATM   20  C   UNL     1     -11.104   5.786  71.263  1.00  0.00    -0.267 C  
BRANCH  20  21
HETATM   21  C   UNL     1     -11.348   6.306  69.847  1.00  0.00    -0.434 C  
HETATM   22  N   UNL     1     -10.332   7.287  69.485  1.00  0.00    -0.218 NA 
HETATM   23  H1  UNL     1     -10.495   7.634  68.540  1.00  0.00     0.000 HD 
HETATM   24  H2  UNL     1      -9.388   6.916  69.596  1.00  0.00     0.000 HD 
ENDBRANCH  20  21
ENDBRANCH  19  20
ENDBRANCH  18  19
ENDBRANCH  14  18
ENDBRANCH  12  14
ENDBRANCH   2  10
TORSDOF 8
ENDMDL
MODEL       41
REMARK 921   NORMALIZED FREE ENERGY PREDICTED BY IDOCK:   -5.16 KCAL/MOL
REMARK 922        TOTAL FREE ENERGY PREDICTED BY IDOCK:   -8.36 KCAL/MOL
REMARK 923 INTER-LIGAND FREE ENERGY PREDICTED BY IDOCK:   -7.90 KCAL/MOL
REMARK 924 INTRA-LIGAND FREE ENERGY PREDICTED BY IDOCK:   -0.46 KCAL/MOL
REMARK 927      BINDING AFFINITY PREDICTED BY RF-SCORE:    0.00 PKD
ROOT
HETATM    1  C   UNL     1     -12.455  11.997  63.530  1.00  0.00    -0.654 C  
HETATM    2  C   UNL     1     -11.081  12.265  64.143  1.00  0.00    -0.366 C  
ENDROOT
BRANCH   2   3
HETATM    3  C   UNL     1      -9.956  11.492  63.412  1.00  0.00    -0.445 C  
BRANCH   3   4
HETATM    4  C   UNL     1      -9.432  10.276  64.148  1.00  0.00    -0.358 A  
HETATM    5  C   UNL     1      -9.919   9.952  65.424  1.00  0.00    -0.349 A  
HETATM    6  C   UNL     1      -8.491   8.002  65.507  1.00  0.00    -0.159 A  
HETATM    7  C   UNL     1      -9.448   8.822  66.100  1.00  0.00    -0.315 A  
HETATM    8  C   UNL     1      -8.008   8.306  64.236  1.00  0.00    -0.148 A  
HETATM    9  C   UNL     1      -8.480   9.433  63.558  1.00  0.00    -0.202 A  
ENDBRANCH   3   4
ENDBRANCH   2   3
BRANCH   2  10
HETATM   10  N   UNL     1     -10.835  13.705  64.123  1.00  0.00    -0.570 N  
HETATM   11  H   UNL     1     -10.555  14.134  63.242  1.00  0.00     0.000 HD 
HETATM   12  C   UNL     1     -10.962  14.515  65.231  1.00  0.00    -0.360 C  
HETATM   13  O   UNL     1     -11.374  14.125  66.320  1.00  0.00    -0.322 OA 
BRANCH  12  14
HETATM   14  C   UNL     1     -10.578  15.989  64.961  1.00  0.00    -0.316 C  
HETATM   15  N   UNL     1     -11.496  16.543  63.927  1.00  0.00    -1.599 NA 
HETATM   16  H2  UNL     1     -12.478  16.437  64.182  1.00  0.00     0.000 HD 
HETATM   17  H1  UNL     1     -11.243  17.514  63.749  1.00  0.00     0.000 HD 
BRANCH  14  18
HETATM   18  C   UNL     1     -10.685  16.850  66.227  1.00  0.00    -0.096 C  
BRANCH  18  19
HETATM   19  C   UNL     1      -9.445  17.721  66.457  1.00  0.00    -0.300 C  
BRANCH  19  20
HETATM   20  C   UNL     1      -9.662  18.720  67.600  1.00  0.00    -0.347 C  
BRANCH  20  21
HETATM   21  C   UNL     1      -9.636  20.158  67.083  1.00  0.00    -0.420 C  
HETATM   22  N   UNL     1      -8.548  20.332  66.127  1.00  0.00    -0.568 NA 
HETATM   23  H1  UNL     1      -8.530  21.292  65.782  1.00  0.00     0.000 HD 
HETATM   24  H2  UNL     1      -8.599  19.656  65.366  1.00  0.00     0.000 HD 
ENDBRANCH  20  21
ENDBRANCH  19  20
ENDBRANCH  18  19
ENDBRANCH  14  18
ENDBRANCH  12  14
ENDBRANCH   2  10
TORSDOF 8
ENDMDL
MODEL       42
REMARK 921   NORMALIZED FREE ENERGY PREDICTED BY IDOCK:   -5.15 KCAL/MOL
REMARK 922        TOTAL FREE ENERGY PREDICTED BY IDOCK:   -8.34 KCAL/MOL
REMARK 923 INTER-LIGAND FREE ENERGY PREDICTED BY IDOCK:   -7.07 KCAL/MOL
REMARK 924 INTRA-LIGAND FREE ENERGY PREDICTED BY IDOCK:   -1.27 KCAL/MOL
REMARK 927      BINDING AFFINITY PREDICTED BY RF-SCORE:    0.00 PKD
ROOT
HETATM    1  C   UNL     1     -11.018   5.956  69.822  1.00  0.00    -0.452 C  
HETATM    2  C   UNL     1     -10.781   7.466  69.815  1.00  0.00    -0.241 C  
ENDROOT
BRANCH   2   3
HETATM    3  C   UNL     1     -10.403   7.989  68.409  1.00  0.00    -0.236 C  
BRANCH   3   4
HETATM    4  C   UNL     1     -10.239   9.492  68.308  1.00  0.00    -0.225 A  
HETATM    5  C   UNL     1      -9.203  10.143  68.993  1.00  0.00    -0.188 A  
HETATM    6  C   UNL     1      -9.908  12.276  68.098  1.00  0.00    -0.212 A  
HETATM    7  C   UNL     1      -9.040  11.528  68.890  1.00  0.00     0.015 A  
HETATM    8  C   UNL     1     -10.935  11.641  67.403  1.00  0.00    -0.313 A  
HETATM    9  C   UNL     1     -11.096  10.256  67.503  1.00  0.00    -0.302 A  
ENDBRANCH   3   4
ENDBRANCH   2   3
BRANCH   2  10
HETATM   10  N   UNL     1     -11.980   8.128  70.324  1.00  0.00    -0.410 N  
HETATM   11  H   UNL     1     -12.756   8.281  69.681  1.00  0.00     0.000 HD 
HETATM   12  C   UNL     1     -12.119   8.558  71.626  1.00  0.00    -0.321 C  
HETATM   13  O   UNL     1     -11.288   8.353  72.506  1.00  0.00    -0.375 OA 
BRANCH  12  14
HETATM   14  C   UNL     1     -13.456   9.290  71.891  1.00  0.00    -0.430 C  
HETATM   15  N   UNL     1     -14.057   8.754  73.143  1.00  0.00    -1.183 NA 
HETATM   16  H2  UNL     1     -13.419   8.810  73.937  1.00  0.00     0.000 HD 
HETATM   17  H1  UNL     1     -14.939   9.236  73.318  1.00  0.00     0.000 HD 
BRANCH  14  18
HETATM   18  C   UNL     1     -13.258  10.804  72.048  1.00  0.00    -0.466 C  
BRANCH  18  19
HETATM   19  C   UNL     1     -12.401  11.408  70.930  1.00  0.00    -0.483 C  
BRANCH  19  20
HETATM   20  C   UNL     1     -12.531  12.934  70.882  1.00  0.00    -0.383 C  
BRANCH  20  21
HETATM   21  C   UNL     1     -13.539  13.431  71.919  1.00  0.00    -0.409 C  
HETATM   22  N   UNL     1     -12.932  14.450  72.767  1.00  0.00    -0.461 NA 
HETATM   23  H1  UNL     1     -13.604  14.781  73.459  1.00  0.00     0.000 HD 
HETATM   24  H2  UNL     1     -12.542  15.217  72.219  1.00  0.00     0.000 HD 
ENDBRANCH  20  21
ENDBRANCH  19  20
ENDBRANCH  18  19
ENDBRANCH  14  18
ENDBRANCH  12  14
ENDBRANCH   2  10
TORSDOF 8
ENDMDL
MODEL       43
REMARK 921   NORMALIZED FREE ENERGY PREDICTED BY IDOCK:   -5.13 KCAL/MOL
REMARK 922        TOTAL FREE ENERGY PREDICTED BY IDOCK:   -8.32 KCAL/MOL
REMARK 923 INTER-LIGAND FREE ENERGY PREDICTED BY IDOCK:   -7.58 KCAL/MOL
REMARK 924 INTRA-LIGAND FREE ENERGY PREDICTED BY IDOCK:   -0.75 KCAL/MOL
REMARK 927      BINDING AFFINITY PREDICTED BY RF-SCORE:    0.00 PKD
ROOT
HETATM    1  C   UNL     1     -10.808  16.049  69.810  1.00  0.00    -0.337 C  
HETATM    2  C   UNL     1     -10.159  16.661  68.569  1.00  0.00    -0.266 C  
ENDROOT
BRANCH   2   3
HETATM    3  C   UNL     1      -8.614  16.641  68.651  1.00  0.00    -0.253 C  
BRANCH   3   4
HETATM    4  C   UNL     1      -7.920  17.784  67.937  1.00  0.00    -0.233 A  
HETATM    5  C   UNL     1      -7.971  19.084  68.461  1.00  0.00    -0.381 A  
HETATM    6  C   UNL     1      -6.608  19.903  66.639  1.00  0.00    -0.214 A  
HETATM    7  C   UNL     1      -7.319  20.138  67.813  1.00  0.00    -0.333 A  
HETATM    8  C   UNL     1      -6.541  18.614  66.114  1.00  0.00    -0.261 A  
HETATM    9  C   UNL     1      -7.189  17.560  66.763  1.00  0.00    -0.250 A  
ENDBRANCH   3   4
ENDBRANCH   2   3
BRANCH   2  10
HETATM   10  N   UNL     1     -10.639  15.943  67.391  1.00  0.00    -0.311 N  
HETATM   11  H   UNL     1     -10.846  14.949  67.483  1.00  0.00     0.000 HD 
HETATM   12  C   UNL     1     -10.827  16.536  66.161  1.00  0.00    -0.050 C  
HETATM   13  O   UNL     1     -10.692  17.738  65.953  1.00  0.00    -0.321 OA 
BRANCH  12  14
HETATM   14  C   UNL     1     -11.275  15.542  65.063  1.00  0.00    -0.358 C  
HETATM   15  N   UNL     1     -11.470  16.288  63.790  1.00  0.00    -1.429 NA 
HETATM   16  H2  UNL     1     -10.642  16.819  63.519  1.00  0.00     0.000 HD 
HETATM   17  H1  UNL     1     -11.765  15.633  63.066  1.00  0.00     0.000 HD 
BRANCH  14  18
HETATM   18  C   UNL     1     -10.235  14.436  64.833  1.00  0.00    -0.357 C  
BRANCH  18  19
HETATM   19  C   UNL     1     -10.770  13.040  65.170  1.00  0.00    -0.324 C  
BRANCH  19  20
HETATM   20  C   UNL     1     -12.265  12.919  64.854  1.00  0.00    -0.504 C  
BRANCH  20  21
HETATM   21  C   UNL     1     -12.491  12.109  63.577  1.00  0.00    -0.555 C  
HETATM   22  N   UNL     1     -11.274  11.394  63.209  1.00  0.00    -0.838 NA 
HETATM   23  H1  UNL     1     -11.425  10.854  62.357  1.00  0.00     0.000 HD 
HETATM   24  H2  UNL     1     -10.929  10.812  63.972  1.00  0.00     0.000 HD 
ENDBRANCH  20  21
ENDBRANCH  19  20
ENDBRANCH  18  19
ENDBRANCH  14  18
ENDBRANCH  12  14
ENDBRANCH   2  10
TORSDOF 8
ENDMDL
MODEL       44
REMARK 921   NORMALIZED FREE ENERGY PREDICTED BY IDOCK:   -5.12 KCAL/MOL
REMARK 922        TOTAL FREE ENERGY PREDICTED BY IDOCK:   -8.30 KCAL/MOL
REMARK 923 INTER-LIGAND FREE ENERGY PREDICTED BY IDOCK:   -6.81 KCAL/MOL
REMARK 924 INTRA-LIGAND FREE ENERGY PREDICTED BY IDOCK:   -1.49 KCAL/MOL
REMARK 927      BINDING AFFINITY PREDICTED BY RF-SCORE:    0.00 PKD
ROOT
HETATM    1  C   UNL     1     -10.552  12.368  64.059  1.00  0.00    -0.444 C  
HETATM    2  C   UNL     1     -11.107  13.684  64.604  1.00  0.00    -0.381 C  
ENDROOT
BRANCH   2   3
HETATM    3  C   UNL     1     -12.324  13.462  65.534  1.00  0.00    -0.528 C  
BRANCH   3   4
HETATM    4  C   UNL     1     -11.982  13.013  66.940  1.00  0.00    -0.415 A  
HETATM    5  C   UNL     1     -11.717  11.662  67.210  1.00  0.00    -0.255 A  
HETATM    6  C   UNL     1     -11.312  12.176  69.538  1.00  0.00    -0.277 A  
HETATM    7  C   UNL     1     -11.386  11.247  68.504  1.00  0.00    -0.341 A  
HETATM    8  C   UNL     1     -11.562  13.522  69.281  1.00  0.00    -0.369 A  
HETATM    9  C   UNL     1     -11.890  13.939  67.988  1.00  0.00    -0.411 A  
ENDBRANCH   3   4
ENDBRANCH   2   3
BRANCH   2  10
HETATM   10  N   UNL     1     -10.033  14.393  65.294  1.00  0.00    -0.529 N  
HETATM   11  H   UNL     1      -9.315  13.841  65.763  1.00  0.00     0.000 HD 
HETATM   12  C   UNL     1      -9.936  15.766  65.346  1.00  0.00    -0.237 C  
HETATM   13  O   UNL     1     -10.691  16.529  64.749  1.00  0.00    -0.719 OA 
BRANCH  12  14
HETATM   14  C   UNL     1      -8.744  16.265  66.198  1.00  0.00    -0.318 C  
HETATM   15  N   UNL     1      -8.507  17.704  65.896  1.00  0.00    -0.537 NA 
HETATM   16  H2  UNL     1      -9.343  18.273  66.026  1.00  0.00     0.000 HD 
HETATM   17  H1  UNL     1      -7.721  18.033  66.456  1.00  0.00     0.000 HD 
BRANCH  14  18
HETATM   18  C   UNL     1      -9.014  16.116  67.702  1.00  0.00    -0.194 C  
BRANCH  18  19
HETATM   19  C   UNL     1      -7.798  15.586  68.471  1.00  0.00    -0.135 C  
BRANCH  19  20
HETATM   20  C   UNL     1      -7.134  14.415  67.737  1.00  0.00    -0.191 C  
BRANCH  20  21
HETATM   21  C   UNL     1      -7.841  13.098  68.054  1.00  0.00    -0.147 C  
HETATM   22  N   UNL     1      -8.279  12.449  66.823  1.00  0.00    -0.380 NA 
HETATM   23  H1  UNL     1      -8.751  11.570  67.035  1.00  0.00     0.000 HD 
HETATM   24  H2  UNL     1      -7.508  12.318  66.168  1.00  0.00     0.000 HD 
ENDBRANCH  20  21
ENDBRANCH  19  20
ENDBRANCH  18  19
ENDBRANCH  14  18
ENDBRANCH  12  14
ENDBRANCH   2  10
TORSDOF 8
ENDMDL
MODEL       45
REMARK 921   NORMALIZED FREE ENERGY PREDICTED BY IDOCK:   -5.11 KCAL/MOL
REMARK 922        TOTAL FREE ENERGY PREDICTED BY IDOCK:   -8.30 KCAL/MOL
REMARK 923 INTER-LIGAND FREE ENERGY PREDICTED BY IDOCK:   -7.64 KCAL/MOL
REMARK 924 INTRA-LIGAND FREE ENERGY PREDICTED BY IDOCK:   -0.66 KCAL/MOL
REMARK 927      BINDING AFFINITY PREDICTED BY RF-SCORE:    0.00 PKD
ROOT
HETATM    1  C   UNL     1     -10.285  10.288  66.858  1.00  0.00    -0.286 C  
HETATM    2  C   UNL     1     -11.232  10.928  67.872  1.00  0.00    -0.321 C  
ENDROOT
BRANCH   2   3
HETATM    3  C   UNL     1     -10.575  11.085  69.265  1.00  0.00    -0.236 C  
BRANCH   3   4
HETATM    4  C   UNL     1     -11.229  10.288  70.375  1.00  0.00    -0.407 A  
HETATM    5  C   UNL     1     -12.525  10.604  70.809  1.00  0.00    -0.480 A  
HETATM    6  C   UNL     1     -12.463   8.793  72.410  1.00  0.00    -0.421 A  
HETATM    7  C   UNL     1     -13.137   9.861  71.823  1.00  0.00    -0.553 A  
HETATM    8  C   UNL     1     -11.180   8.462  71.981  1.00  0.00    -0.404 A  
HETATM    9  C   UNL     1     -10.568   9.202  70.965  1.00  0.00    -0.362 A  
ENDBRANCH   3   4
ENDBRANCH   2   3
BRANCH   2  10
HETATM   10  N   UNL     1     -11.677  12.216  67.346  1.00  0.00    -0.333 N  
HETATM   11  H   UNL     1     -12.678  12.408  67.323  1.00  0.00     0.000 HD 
HETATM   12  C   UNL     1     -10.817  13.186  66.878  1.00  0.00    -0.265 C  
HETATM   13  O   UNL     1      -9.594  13.102  66.935  1.00  0.00    -0.233 OA 
BRANCH  12  14
HETATM   14  C   UNL     1     -11.545  14.429  66.311  1.00  0.00    -0.372 C  
HETATM   15  N   UNL     1     -10.552  15.288  65.608  1.00  0.00    -0.337 NA 
HETATM   16  H2  UNL     1     -10.036  14.778  64.891  1.00  0.00     0.000 HD 
HETATM   17  H1  UNL     1     -11.031  16.106  65.234  1.00  0.00     0.000 HD 
BRANCH  14  18
HETATM   18  C   UNL     1     -12.651  14.041  65.320  1.00  0.00    -0.495 C  
BRANCH  18  19
HETATM   19  C   UNL     1     -12.117  13.791  63.905  1.00  0.00    -0.423 C  
BRANCH  19  20
HETATM   20  C   UNL     1     -12.169  12.303  63.539  1.00  0.00    -0.669 C  
BRANCH  20  21
HETATM   21  C   UNL     1     -10.762  11.728  63.383  1.00  0.00    -0.402 C  
HETATM   22  N   UNL     1      -9.762  12.747  63.679  1.00  0.00    -0.642 NA 
HETATM   23  H1  UNL     1      -8.823  12.363  63.575  1.00  0.00     0.000 HD 
HETATM   24  H2  UNL     1      -9.903  13.162  64.600  1.00  0.00     0.000 HD 
ENDBRANCH  20  21
ENDBRANCH  19  20
ENDBRANCH  18  19
ENDBRANCH  14  18
ENDBRANCH  12  14
ENDBRANCH   2  10
TORSDOF 8
ENDMDL
MODEL       46
REMARK 921   NORMALIZED FREE ENERGY PREDICTED BY IDOCK:   -5.11 KCAL/MOL
REMARK 922        TOTAL FREE ENERGY PREDICTED BY IDOCK:   -8.29 KCAL/MOL
REMARK 923 INTER-LIGAND FREE ENERGY PREDICTED BY IDOCK:   -8.06 KCAL/MOL
REMARK 924 INTRA-LIGAND FREE ENERGY PREDICTED BY IDOCK:   -0.23 KCAL/MOL
REMARK 927      BINDING AFFINITY PREDICTED BY RF-SCORE:    0.00 PKD
ROOT
HETATM    1  C   UNL     1     -12.064   9.943  71.630  1.00  0.00    -0.457 C  
HETATM    2  C   UNL     1     -12.652  11.150  70.899  1.00  0.00    -0.386 C  
ENDROOT
BRANCH   2   3
HETATM    3  C   UNL     1     -13.336  12.142  71.870  1.00  0.00    -0.421 C  
BRANCH   3   4
HETATM    4  C   UNL     1     -12.809  13.562  71.811  1.00  0.00    -0.399 A  
HETATM    5  C   UNL     1     -12.821  14.276  70.604  1.00  0.00    -0.378 A  
HETATM    6  C   UNL     1     -11.864  16.207  71.701  1.00  0.00    -0.557 A  
HETATM    7  C   UNL     1     -12.349  15.591  70.550  1.00  0.00    -0.461 A  
HETATM    8  C   UNL     1     -11.857  15.512  72.909  1.00  0.00    -0.565 A  
HETATM    9  C   UNL     1     -12.332  14.199  72.965  1.00  0.00     0.011 A  
ENDBRANCH   3   4
ENDBRANCH   2   3
BRANCH   2  10
HETATM   10  N   UNL     1     -11.586  11.799  70.140  1.00  0.00    -0.508 N  
HETATM   11  H   UNL     1     -10.932  12.398  70.642  1.00  0.00     0.000 HD 
HETATM   12  C   UNL     1     -11.416  11.645  68.781  1.00  0.00    -0.285 C  
HETATM   13  O   UNL     1     -12.086  10.885  68.089  1.00  0.00    -0.563 OA 
BRANCH  12  14
HETATM   14  C   UNL     1     -10.255  12.494  68.208  1.00  0.00    -0.234 C  
HETATM   15  N   UNL     1      -9.079  11.609  67.982  1.00  0.00    -0.171 NA 
HETATM   16  H2  UNL     1      -9.302  10.807  67.392  1.00  0.00     0.000 HD 
HETATM   17  H1  UNL     1      -8.314  12.168  67.605  1.00  0.00     0.000 HD 
BRANCH  14  18
HETATM   18  C   UNL     1     -10.635  13.159  66.877  1.00  0.00    -0.265 C  
BRANCH  18  19
HETATM   19  C   UNL     1     -11.789  14.157  67.023  1.00  0.00    -0.458 C  
BRANCH  19  20
HETATM   20  C   UNL     1     -12.673  14.183  65.770  1.00  0.00    -0.443 C  
BRANCH  20  21
HETATM   21  C   UNL     1     -12.055  13.349  64.647  1.00  0.00    -0.410 C  
HETATM   22  N   UNL     1     -12.481  13.855  63.347  1.00  0.00    -1.110 NA 
HETATM   23  H1  UNL     1     -12.069  13.299  62.598  1.00  0.00     0.000 HD 
HETATM   24  H2  UNL     1     -12.276  14.849  63.241  1.00  0.00     0.000 HD 
ENDBRANCH  20  21
ENDBRANCH  19  20
ENDBRANCH  18  19
ENDBRANCH  14  18
ENDBRANCH  12  14
ENDBRANCH   2  10
TORSDOF 8
ENDMDL
MODEL       47
REMARK 921   NORMALIZED FREE ENERGY PREDICTED BY IDOCK:   -5.10 KCAL/MOL
REMARK 922        TOTAL FREE ENERGY PREDICTED BY IDOCK:   -8.28 KCAL/MOL
REMARK 923 INTER-LIGAND FREE ENERGY PREDICTED BY IDOCK:   -7.33 KCAL/MOL
REMARK 924 INTRA-LIGAND FREE ENERGY PREDICTED BY IDOCK:   -0.95 KCAL/MOL
REMARK 927      BINDING AFFINITY PREDICTED BY RF-SCORE:    0.00 PKD
ROOT
HETATM    1  C   UNL     1     -11.741  10.233  69.584  1.00  0.00    -0.230 C  
HETATM    2  C   UNL     1     -11.815  10.408  71.100  1.00  0.00    -0.337 C  
ENDROOT
BRANCH   2   3
HETATM    3  C   UNL     1     -13.132  11.089  71.544  1.00  0.00    -0.500 C  
BRANCH   3   4
HETATM    4  C   UNL     1     -13.115  12.604  71.502  1.00  0.00    -0.373 A  
HETATM    5  C   UNL     1     -14.034  13.347  72.257  1.00  0.00    -0.605 A  
HETATM    6  C   UNL     1     -13.068  15.414  71.457  1.00  0.00    -0.545 A  
HETATM    7  C   UNL     1     -14.011  14.744  72.233  1.00  0.00    -0.598 A  
HETATM    8  C   UNL     1     -12.142  14.688  70.711  1.00  0.00    -0.387 A  
HETATM    9  C   UNL     1     -12.161  13.291  70.738  1.00  0.00    -0.390 A  
ENDBRANCH   3   4
ENDBRANCH   2   3
BRANCH   2  10
HETATM   10  N   UNL     1     -11.655   9.099  71.727  1.00  0.00    -0.371 N  
HETATM   11  H   UNL     1     -12.493   8.547  71.913  1.00  0.00     0.000 HD 
HETATM   12  C   UNL     1     -10.435   8.567  72.084  1.00  0.00    -0.342 C  
HETATM   13  O   UNL     1      -9.357   9.100  71.834  1.00  0.00    -0.349 OA 
BRANCH  12  14
HETATM   14  C   UNL     1     -10.546   7.197  72.794  1.00  0.00    -0.268 C  
HETATM   15  N   UNL     1     -11.936   6.687  72.640  1.00  0.00    -0.502 NA 
HETATM   16  H2  UNL     1     -12.229   6.644  71.664  1.00  0.00     0.000 HD 
HETATM   17  H1  UNL     1     -12.009   5.784  73.109  1.00  0.00     0.000 HD 
BRANCH  14  18
HETATM   18  C   UNL     1      -9.574   6.166  72.203  1.00  0.00    -0.162 C  
BRANCH  18  19
HETATM   19  C   UNL     1     -10.203   5.337  71.077  1.00  0.00    -0.299 C  
BRANCH  19  20
HETATM   20  C   UNL     1      -9.686   5.773  69.701  1.00  0.00    -0.208 C  
BRANCH  20  21
HETATM   21  C   UNL     1     -10.845   6.045  68.742  1.00  0.00    -0.322 C  
HETATM   22  N   UNL     1     -11.981   6.606  69.466  1.00  0.00    -0.542 NA 
HETATM   23  H1  UNL     1     -12.754   6.786  68.826  1.00  0.00     0.000 HD 
HETATM   24  H2  UNL     1     -11.721   7.438  69.994  1.00  0.00     0.000 HD 
ENDBRANCH  20  21
ENDBRANCH  19  20
ENDBRANCH  18  19
ENDBRANCH  14  18
ENDBRANCH  12  14
ENDBRANCH   2  10
TORSDOF 8
ENDMDL
MODEL       48
REMARK 921   NORMALIZED FREE ENERGY PREDICTED BY IDOCK:   -5.09 KCAL/MOL
REMARK 922        TOTAL FREE ENERGY PREDICTED BY IDOCK:   -8.27 KCAL/MOL
REMARK 923 INTER-LIGAND FREE ENERGY PREDICTED BY IDOCK:   -7.08 KCAL/MOL
REMARK 924 INTRA-LIGAND FREE ENERGY PREDICTED BY IDOCK:   -1.19 KCAL/MOL
REMARK 927      BINDING AFFINITY PREDICTED BY RF-SCORE:    0.00 PKD
ROOT
HETATM    1  C   UNL     1     -10.402   8.239  68.200  1.00  0.00    -0.253 C  
HETATM    2  C   UNL     1     -10.536   9.730  68.508  1.00  0.00    -0.210 C  
ENDROOT
BRANCH   2   3
HETATM    3  C   UNL     1     -10.593  10.588  67.221  1.00  0.00    -0.317 C  
BRANCH   3   4
HETATM    4  C   UNL     1     -10.789  12.073  67.449  1.00  0.00    -0.285 A  
HETATM    5  C   UNL     1      -9.902  12.791  68.265  1.00  0.00    -0.224 A  
HETATM    6  C   UNL     1     -11.127  14.834  67.851  1.00  0.00    -0.301 A  
HETATM    7  C   UNL     1     -10.072  14.164  68.465  1.00  0.00    -0.243 A  
HETATM    8  C   UNL     1     -12.009  14.135  67.030  1.00  0.00    -0.471 A  
HETATM    9  C   UNL     1     -11.838  12.763  66.826  1.00  0.00    -0.452 A  
ENDBRANCH   3   4
ENDBRANCH   2   3
BRANCH   2  10
HETATM   10  N   UNL     1     -11.724   9.930  69.333  1.00  0.00    -0.462 N  
HETATM   11  H   UNL     1     -12.610  10.119  68.865  1.00  0.00     0.000 HD 
HETATM   12  C   UNL     1     -11.713   9.879  70.710  1.00  0.00    -0.341 C  
HETATM   13  O   UNL     1     -10.727   9.577  71.376  1.00  0.00    -0.346 OA 
BRANCH  12  14
HETATM   14  C   UNL     1     -13.088  10.194  71.347  1.00  0.00    -0.416 C  
HETATM   15  N   UNL     1     -13.317   9.260  72.483  1.00  0.00    -0.579 NA 
HETATM   16  H2  UNL     1     -12.558   9.282  73.165  1.00  0.00     0.000 HD 
HETATM   17  H1  UNL     1     -14.223   9.467  72.903  1.00  0.00     0.000 HD 
BRANCH  14  18
HETATM   18  C   UNL     1     -13.159  11.635  71.872  1.00  0.00    -0.490 C  
BRANCH  18  19
HETATM   19  C   UNL     1     -12.563  12.651  70.891  1.00  0.00    -0.338 C  
BRANCH  19  20
HETATM   20  C   UNL     1     -13.053  14.073  71.187  1.00  0.00    -0.373 C  
BRANCH  20  21
HETATM   21  C   UNL     1     -11.927  14.933  71.759  1.00  0.00    -0.367 C  
HETATM   22  N   UNL     1     -11.938  16.257  71.146  1.00  0.00    -0.607 NA 
HETATM   23  H1  UNL     1     -11.186  16.830  71.527  1.00  0.00     0.000 HD 
HETATM   24  H2  UNL     1     -12.847  16.710  71.238  1.00  0.00     0.000 HD 
ENDBRANCH  20  21
ENDBRANCH  19  20
ENDBRANCH  18  19
ENDBRANCH  14  18
ENDBRANCH  12  14
ENDBRANCH   2  10
TORSDOF 8
ENDMDL
MODEL       49
REMARK 921   NORMALIZED FREE ENERGY PREDICTED BY IDOCK:   -5.08 KCAL/MOL
REMARK 922        TOTAL FREE ENERGY PREDICTED BY IDOCK:   -8.25 KCAL/MOL
REMARK 923 INTER-LIGAND FREE ENERGY PREDICTED BY IDOCK:   -7.38 KCAL/MOL
REMARK 924 INTRA-LIGAND FREE ENERGY PREDICTED BY IDOCK:   -0.87 KCAL/MOL
REMARK 927      BINDING AFFINITY PREDICTED BY RF-SCORE:    0.00 PKD
ROOT
HETATM    1  C   UNL     1     -14.130  13.979  72.245  1.00  0.00    -0.633 C  
HETATM    2  C   UNL     1     -13.412  12.936  71.389  1.00  0.00     0.065 C  
ENDROOT
BRANCH   2   3
HETATM    3  C   UNL     1     -12.043  13.447  70.876  1.00  0.00    -0.269 C  
BRANCH   3   4
HETATM    4  C   UNL     1     -11.863  13.395  69.373  1.00  0.00    -0.390 A  
HETATM    5  C   UNL     1     -11.959  14.564  68.604  1.00  0.00    -0.320 A  
HETATM    6  C   UNL     1     -11.497  13.313  66.587  1.00  0.00    -0.384 A  
HETATM    7  C   UNL     1     -11.778  14.522  67.218  1.00  0.00    -0.429 A  
HETATM    8  C   UNL     1     -11.388  12.146  67.340  1.00  0.00    -0.393 A  
HETATM    9  C   UNL     1     -11.565  12.188  68.726  1.00  0.00    -0.380 A  
ENDBRANCH   3   4
ENDBRANCH   2   3
BRANCH   2  10
HETATM   10  N   UNL     1     -13.263  11.712  72.172  1.00  0.00    -0.545 N  
HETATM   11  H   UNL     1     -13.243  11.790  73.189  1.00  0.00     0.000 HD 
HETATM   12  C   UNL     1     -13.149  10.458  71.613  1.00  0.00    -0.448 C  
HETATM   13  O   UNL     1     -13.245  10.234  70.410  1.00  0.00    -0.226 OA 
BRANCH  12  14
HETATM   14  C   UNL     1     -12.933   9.337  72.658  1.00  0.00    -0.212 C  
HETATM   15  N   UNL     1     -14.258   8.774  73.038  1.00  0.00    -1.132 NA 
HETATM   16  H2  UNL     1     -14.792   8.454  72.229  1.00  0.00     0.000 HD 
HETATM   17  H1  UNL     1     -14.116   8.035  73.727  1.00  0.00     0.000 HD 
BRANCH  14  18
HETATM   18  C   UNL     1     -12.054   8.205  72.108  1.00  0.00    -0.408 C  
BRANCH  18  19
HETATM   19  C   UNL     1     -10.557   8.517  72.207  1.00  0.00    -0.408 C  
BRANCH  19  20
HETATM   20  C   UNL     1      -9.867   8.404  70.843  1.00  0.00    -0.223 C  
BRANCH  20  21
HETATM   21  C   UNL     1     -10.807   7.796  69.802  1.00  0.00    -0.209 C  
HETATM   22  N   UNL     1     -10.973   8.706  68.675  1.00  0.00    -0.439 NA 
HETATM   23  H1  UNL     1     -11.601   8.300  67.981  1.00  0.00     0.000 HD 
HETATM   24  H2  UNL     1     -10.077   8.973  68.268  1.00  0.00     0.000 HD 
ENDBRANCH  20  21
ENDBRANCH  19  20
ENDBRANCH  18  19
ENDBRANCH  14  18
ENDBRANCH  12  14
ENDBRANCH   2  10
TORSDOF 8
ENDMDL
MODEL       50
REMARK 921   NORMALIZED FREE ENERGY PREDICTED BY IDOCK:   -5.08 KCAL/MOL
REMARK 922        TOTAL FREE ENERGY PREDICTED BY IDOCK:   -8.25 KCAL/MOL
REMARK 923 INTER-LIGAND FREE ENERGY PREDICTED BY IDOCK:   -7.62 KCAL/MOL
REMARK 924 INTRA-LIGAND FREE ENERGY PREDICTED BY IDOCK:   -0.63 KCAL/MOL
REMARK 927      BINDING AFFINITY PREDICTED BY RF-SCORE:    0.00 PKD
ROOT
HETATM    1  C   UNL     1     -10.528  10.991  64.106  1.00  0.00    -0.434 C  
HETATM    2  C   UNL     1     -10.586  11.736  65.439  1.00  0.00    -0.277 C  
ENDROOT
BRANCH   2   3
HETATM    3  C   UNL     1      -9.630  11.123  66.491  1.00  0.00    -0.222 C  
BRANCH   3   4
HETATM    4  C   UNL     1     -10.237  10.916  67.864  1.00  0.00    -0.205 A  
HETATM    5  C   UNL     1     -11.581  11.241  68.105  1.00  0.00    -0.359 A  
HETATM    6  C   UNL     1     -11.380  10.504  70.399  1.00  0.00    -0.411 A  
HETATM    7  C   UNL     1     -12.147  11.037  69.366  1.00  0.00    -0.389 A  
HETATM    8  C   UNL     1     -10.048  10.166  70.171  1.00  0.00    -0.197 A  
HETATM    9  C   UNL     1      -9.481  10.366  68.909  1.00  0.00    -0.190 A  
ENDBRANCH   3   4
ENDBRANCH   2   3
BRANCH   2  10
HETATM   10  N   UNL     1     -10.281  13.144  65.200  1.00  0.00    -0.404 N  
HETATM   11  H   UNL     1      -9.332  13.390  64.918  1.00  0.00     0.000 HD 
HETATM   12  C   UNL     1     -11.204  14.158  65.335  1.00  0.00    -0.325 C  
HETATM   13  O   UNL     1     -12.391  13.974  65.585  1.00  0.00    -0.427 OA 
BRANCH  12  14
HETATM   14  C   UNL     1     -10.609  15.566  65.091  1.00  0.00    -0.431 C  
HETATM   15  N   UNL     1     -11.413  16.252  64.043  1.00  0.00    -1.521 NA 
HETATM   16  H2  UNL     1     -12.407  16.284  64.272  1.00  0.00     0.000 HD 
HETATM   17  H1  UNL     1     -11.021  17.180  63.882  1.00  0.00     0.000 HD 
BRANCH  14  18
HETATM   18  C   UNL     1     -10.626  16.422  66.365  1.00  0.00    -0.236 C  
BRANCH  18  19
HETATM   19  C   UNL     1     -10.551  15.581  67.644  1.00  0.00    -0.291 C  
BRANCH  19  20
HETATM   20  C   UNL     1     -11.522  16.096  68.714  1.00  0.00    -0.340 C  
BRANCH  20  21
HETATM   21  C   UNL     1     -11.010  15.775  70.118  1.00  0.00    -0.352 C  
HETATM   22  N   UNL     1     -11.818  16.459  71.121  1.00  0.00    -0.607 NA 
HETATM   23  H1  UNL     1     -11.475  16.246  72.058  1.00  0.00     0.000 HD 
HETATM   24  H2  UNL     1     -12.810  16.246  71.020  1.00  0.00     0.000 HD 
ENDBRANCH  20  21
ENDBRANCH  19  20
ENDBRANCH  18  19
ENDBRANCH  14  18
ENDBRANCH  12  14
ENDBRANCH   2  10
TORSDOF 8
ENDMDL
MODEL       51
REMARK 921   NORMALIZED FREE ENERGY PREDICTED BY IDOCK:   -5.06 KCAL/MOL
REMARK 922        TOTAL FREE ENERGY PREDICTED BY IDOCK:   -8.22 KCAL/MOL
REMARK 923 INTER-LIGAND FREE ENERGY PREDICTED BY IDOCK:   -7.63 KCAL/MOL
REMARK 924 INTRA-LIGAND FREE ENERGY PREDICTED BY IDOCK:   -0.60 KCAL/MOL
REMARK 927      BINDING AFFINITY PREDICTED BY RF-SCORE:    0.00 PKD
ROOT
HETATM    1  C   UNL     1     -11.972  13.265  67.678  1.00  0.00    -0.366 C  
HETATM    2  C   UNL     1     -11.177  13.428  68.973  1.00  0.00    -0.275 C  
ENDROOT
BRANCH   2   3
HETATM    3  C   UNL     1     -11.173  14.892  69.473  1.00  0.00    -0.300 C  
BRANCH   3   4
HETATM    4  C   UNL     1     -11.962  15.137  70.744  1.00  0.00    -0.376 A  
HETATM    5  C   UNL     1     -11.300  15.373  71.958  1.00  0.00    -0.466 A  
HETATM    6  C   UNL     1     -13.417  15.624  73.099  1.00  0.00    -0.620 A  
HETATM    7  C   UNL     1     -12.025  15.614  73.129  1.00  0.00    -0.584 A  
HETATM    8  C   UNL     1     -14.087  15.402  71.898  1.00  0.00    -0.636 A  
HETATM    9  C   UNL     1     -13.363  15.165  70.726  1.00  0.00    -0.389 A  
ENDBRANCH   3   4
ENDBRANCH   2   3
BRANCH   2  10
HETATM   10  N   UNL     1     -11.733  12.524  69.977  1.00  0.00    -0.514 N  
HETATM   11  H   UNL     1     -12.365  12.912  70.677  1.00  0.00     0.000 HD 
HETATM   12  C   UNL     1     -11.450  11.177  70.030  1.00  0.00    -0.292 C  
HETATM   13  O   UNL     1     -10.774  10.586  69.193  1.00  0.00    -0.201 OA 
BRANCH  12  14
HETATM   14  C   UNL     1     -12.111  10.458  71.230  1.00  0.00    -0.362 C  
HETATM   15  N   UNL     1     -13.386   9.837  70.776  1.00  0.00    -0.606 NA 
HETATM   16  H2  UNL     1     -13.254   9.218  69.976  1.00  0.00     0.000 HD 
HETATM   17  H1  UNL     1     -13.822   9.363  71.567  1.00  0.00     0.000 HD 
BRANCH  14  18
HETATM   18  C   UNL     1     -11.207   9.360  71.808  1.00  0.00    -0.359 C  
BRANCH  18  19
HETATM   19  C   UNL     1     -11.749   7.950  71.550  1.00  0.00    -0.317 C  
BRANCH  19  20
HETATM   20  C   UNL     1     -10.639   6.993  71.101  1.00  0.00    -0.237 C  
BRANCH  20  21
HETATM   21  C   UNL     1     -10.894   6.485  69.682  1.00  0.00    -0.304 C  
HETATM   22  N   UNL     1     -10.973   7.604  68.749  1.00  0.00    -0.423 NA 
HETATM   23  H1  UNL     1     -11.144   7.265  67.803  1.00  0.00     0.000 HD 
HETATM   24  H2  UNL     1     -10.144   8.197  68.797  1.00  0.00     0.000 HD 
ENDBRANCH  20  21
ENDBRANCH  19  20
ENDBRANCH  18  19
ENDBRANCH  14  18
ENDBRANCH  12  14
ENDBRANCH   2  10
TORSDOF 8
ENDMDL
MODEL       52
REMARK 921   NORMALIZED FREE ENERGY PREDICTED BY IDOCK:   -5.06 KCAL/MOL
REMARK 922        TOTAL FREE ENERGY PREDICTED BY IDOCK:   -8.22 KCAL/MOL
REMARK 923 INTER-LIGAND FREE ENERGY PREDICTED BY IDOCK:   -7.83 KCAL/MOL
REMARK 924 INTRA-LIGAND FREE ENERGY PREDICTED BY IDOCK:   -0.39 KCAL/MOL
REMARK 927      BINDING AFFINITY PREDICTED BY RF-SCORE:    0.00 PKD
ROOT
HETATM    1  C   UNL     1     -10.904  19.151  67.424  1.00  0.00    -0.533 C  
HETATM    2  C   UNL     1     -10.129  18.709  66.183  1.00  0.00    -0.369 C  
ENDROOT
BRANCH   2   3
HETATM    3  C   UNL     1      -8.733  19.372  66.103  1.00  0.00    -0.294 C  
BRANCH   3   4
HETATM    4  C   UNL     1      -7.823  19.093  67.283  1.00  0.00    -0.274 A  
HETATM    5  C   UNL     1      -7.159  17.863  67.394  1.00  0.00    -0.201 A  
HETATM    6  C   UNL     1      -6.108  18.581  69.450  1.00  0.00    -0.268 A  
HETATM    7  C   UNL     1      -6.307  17.609  68.474  1.00  0.00    -0.185 A  
HETATM    8  C   UNL     1      -6.753  19.812  69.346  1.00  0.00    -0.382 A  
HETATM    9  C   UNL     1      -7.602  20.068  68.265  1.00  0.00    -0.258 A  
ENDBRANCH   3   4
ENDBRANCH   2   3
BRANCH   2  10
HETATM   10  N   UNL     1     -10.027  17.252  66.193  1.00  0.00    -0.293 N  
HETATM   11  H   UNL     1      -9.538  16.808  66.970  1.00  0.00     0.000 HD 
HETATM   12  C   UNL     1     -10.554  16.445  65.209  1.00  0.00    -0.299 C  
HETATM   13  O   UNL     1     -11.233  16.859  64.274  1.00  0.00    -1.204 OA 
BRANCH  12  14
HETATM   14  C   UNL     1     -10.248  14.942  65.418  1.00  0.00    -0.379 C  
HETATM   15  N   UNL     1      -8.962  14.812  66.157  1.00  0.00    -0.495 NA 
HETATM   16  H2  UNL     1      -8.962  15.336  67.033  1.00  0.00     0.000 HD 
HETATM   17  H1  UNL     1      -8.760  13.823  66.295  1.00  0.00     0.000 HD 
BRANCH  14  18
HETATM   18  C   UNL     1     -11.352  14.241  66.222  1.00  0.00    -0.347 C  
BRANCH  18  19
HETATM   19  C   UNL     1     -12.641  14.050  65.416  1.00  0.00    -0.529 C  
BRANCH  19  20
HETATM   20  C   UNL     1     -12.749  12.628  64.853  1.00  0.00    -0.450 C  
BRANCH  20  21
HETATM   21  C   UNL     1     -12.433  12.606  63.357  1.00  0.00    -0.372 C  
HETATM   22  N   UNL     1     -11.101  12.057  63.129  1.00  0.00    -0.696 NA 
HETATM   23  H1  UNL     1     -10.891  12.043  62.131  1.00  0.00     0.000 HD 
HETATM   24  H2  UNL     1     -10.992  11.137  63.554  1.00  0.00     0.000 HD 
ENDBRANCH  20  21
ENDBRANCH  19  20
ENDBRANCH  18  19
ENDBRANCH  14  18
ENDBRANCH  12  14
ENDBRANCH   2  10
TORSDOF 8
ENDMDL
MODEL       53
REMARK 921   NORMALIZED FREE ENERGY PREDICTED BY IDOCK:   -5.04 KCAL/MOL
REMARK 922        TOTAL FREE ENERGY PREDICTED BY IDOCK:   -8.19 KCAL/MOL
REMARK 923 INTER-LIGAND FREE ENERGY PREDICTED BY IDOCK:   -7.68 KCAL/MOL
REMARK 924 INTRA-LIGAND FREE ENERGY PREDICTED BY IDOCK:   -0.51 KCAL/MOL
REMARK 927      BINDING AFFINITY PREDICTED BY RF-SCORE:    0.00 PKD
ROOT
HETATM    1  C   UNL     1     -11.829  10.908  69.105  1.00  0.00    -0.389 C  
HETATM    2  C   UNL     1     -11.948  11.048  70.622  1.00  0.00    -0.365 C  
ENDROOT
BRANCH   2   3
HETATM    3  C   UNL     1     -13.161  11.918  71.032  1.00  0.00    -0.031 C  
BRANCH   3   4
HETATM    4  C   UNL     1     -12.819  13.331  71.461  1.00  0.00    -0.419 A  
HETATM    5  C   UNL     1     -11.964  14.124  70.681  1.00  0.00    -0.385 A  
HETATM    6  C   UNL     1     -12.207  15.964  72.230  1.00  0.00    -0.585 A  
HETATM    7  C   UNL     1     -11.659  15.433  71.065  1.00  0.00    -0.410 A  
HETATM    8  C   UNL     1     -13.066  15.191  73.009  1.00  0.00    -0.605 A  
HETATM    9  C   UNL     1     -13.375  13.884  72.623  1.00  0.00    -0.640 A  
ENDBRANCH   3   4
ENDBRANCH   2   3
BRANCH   2  10
HETATM   10  N   UNL     1     -12.030   9.712  71.207  1.00  0.00    -0.351 N  
HETATM   11  H   UNL     1     -12.954   9.308  71.359  1.00  0.00     0.000 HD 
HETATM   12  C   UNL     1     -10.927   8.969  71.567  1.00  0.00    -0.348 C  
HETATM   13  O   UNL     1      -9.769   9.316  71.354  1.00  0.00    -0.284 OA 
BRANCH  12  14
HETATM   14  C   UNL     1     -11.286   7.617  72.228  1.00  0.00    -0.306 C  
HETATM   15  N   UNL     1     -12.759   7.563  72.440  1.00  0.00    -0.512 NA 
HETATM   16  H2  UNL     1     -13.283   7.727  71.580  1.00  0.00     0.000 HD 
HETATM   17  H1  UNL     1     -12.997   6.673  72.877  1.00  0.00     0.000 HD 
BRANCH  14  18
HETATM   18  C   UNL     1     -10.870   6.424  71.356  1.00  0.00    -0.301 C  
BRANCH  18  19
HETATM   19  C   UNL     1     -11.607   6.388  70.013  1.00  0.00    -0.446 C  
BRANCH  19  20
HETATM   20  C   UNL     1     -10.710   5.847  68.893  1.00  0.00    -0.370 C  
BRANCH  20  21
HETATM   21  C   UNL     1     -10.577   6.863  67.759  1.00  0.00    -0.244 C  
HETATM   22  N   UNL     1     -11.023   6.278  66.500  1.00  0.00    -0.689 NA 
HETATM   23  H1  UNL     1     -10.934   6.956  65.743  1.00  0.00     0.000 HD 
HETATM   24  H2  UNL     1     -11.971   5.907  66.568  1.00  0.00     0.000 HD 
ENDBRANCH  20  21
ENDBRANCH  19  20
ENDBRANCH  18  19
ENDBRANCH  14  18
ENDBRANCH  12  14
ENDBRANCH   2  10
TORSDOF 8
ENDMDL
MODEL       54
REMARK 921   NORMALIZED FREE ENERGY PREDICTED BY IDOCK:   -5.04 KCAL/MOL
REMARK 922        TOTAL FREE ENERGY PREDICTED BY IDOCK:   -8.19 KCAL/MOL
REMARK 923 INTER-LIGAND FREE ENERGY PREDICTED BY IDOCK:   -7.64 KCAL/MOL
REMARK 924 INTRA-LIGAND FREE ENERGY PREDICTED BY IDOCK:   -0.55 KCAL/MOL
REMARK 927      BINDING AFFINITY PREDICTED BY RF-SCORE:    0.00 PKD
ROOT
HETATM    1  C   UNL     1     -11.627  16.024  70.945  1.00  0.00    -0.453 C  
HETATM    2  C   UNL     1     -11.200  15.589  69.543  1.00  0.00    -0.299 C  
ENDROOT
BRANCH   2   3
HETATM    3  C   UNL     1      -9.863  16.240  69.113  1.00  0.00    -0.258 C  
BRANCH   3   4
HETATM    4  C   UNL     1     -10.002  17.459  68.224  1.00  0.00    -0.320 A  
HETATM    5  C   UNL     1      -9.635  18.728  68.695  1.00  0.00    -0.432 A  
HETATM    6  C   UNL     1     -10.223  19.721  66.570  1.00  0.00    -0.606 A  
HETATM    7  C   UNL     1      -9.747  19.853  67.872  1.00  0.00    -0.510 A  
HETATM    8  C   UNL     1     -10.581  18.464  66.086  1.00  0.00    -0.346 A  
HETATM    9  C   UNL     1     -10.465  17.339  66.907  1.00  0.00    -0.272 A  
ENDBRANCH   3   4
ENDBRANCH   2   3
BRANCH   2  10
HETATM   10  N   UNL     1     -11.115  14.131  69.515  1.00  0.00    -0.373 N  
HETATM   11  H   UNL     1     -10.775  13.651  70.348  1.00  0.00     0.000 HD 
HETATM   12  C   UNL     1     -11.470  13.368  68.423  1.00  0.00    -0.316 C  
HETATM   13  O   UNL     1     -11.970  13.827  67.401  1.00  0.00    -0.379 OA 
BRANCH  12  14
HETATM   14  C   UNL     1     -11.220  11.854  68.626  1.00  0.00    -0.257 C  
HETATM   15  N   UNL     1      -9.825  11.657  69.106  1.00  0.00    -0.410 NA 
HETATM   16  H2  UNL     1      -9.621  12.201  69.945  1.00  0.00     0.000 HD 
HETATM   17  H1  UNL     1      -9.660  10.660  69.239  1.00  0.00     0.000 HD 
BRANCH  14  18
HETATM   18  C   UNL     1     -12.186  11.248  69.654  1.00  0.00    -0.340 C  
BRANCH  18  19
HETATM   19  C   UNL     1     -11.554  10.106  70.458  1.00  0.00    -0.411 C  
BRANCH  19  20
HETATM   20  C   UNL     1     -12.171   9.992  71.856  1.00  0.00    -0.269 C  
BRANCH  20  21
HETATM   21  C   UNL     1     -12.815   8.621  72.061  1.00  0.00    -0.379 C  
HETATM   22  N   UNL     1     -13.997   8.738  72.906  1.00  0.00    -1.011 NA 
HETATM   23  H1  UNL     1     -14.427   7.823  73.043  1.00  0.00     0.000 HD 
HETATM   24  H2  UNL     1     -14.662   9.419  72.539  1.00  0.00     0.000 HD 
ENDBRANCH  20  21
ENDBRANCH  19  20
ENDBRANCH  18  19
ENDBRANCH  14  18
ENDBRANCH  12  14
ENDBRANCH   2  10
TORSDOF 8
ENDMDL
MODEL       55
REMARK 921   NORMALIZED FREE ENERGY PREDICTED BY IDOCK:   -5.04 KCAL/MOL
REMARK 922        TOTAL FREE ENERGY PREDICTED BY IDOCK:   -8.19 KCAL/MOL
REMARK 923 INTER-LIGAND FREE ENERGY PREDICTED BY IDOCK:   -7.00 KCAL/MOL
REMARK 924 INTRA-LIGAND FREE ENERGY PREDICTED BY IDOCK:   -1.19 KCAL/MOL
REMARK 927      BINDING AFFINITY PREDICTED BY RF-SCORE:    0.00 PKD
ROOT
HETATM    1  C   UNL     1     -10.194   8.709  66.678  1.00  0.00    -0.343 C  
HETATM    2  C   UNL     1     -10.627  10.028  67.317  1.00  0.00    -0.257 C  
ENDROOT
BRANCH   2   3
HETATM    3  C   UNL     1     -10.089  10.179  68.761  1.00  0.00    -0.198 C  
BRANCH   3   4
HETATM    4  C   UNL     1     -11.152  10.372  69.823  1.00  0.00    -0.352 A  
HETATM    5  C   UNL     1     -11.482   9.326  70.697  1.00  0.00    -0.327 A  
HETATM    6  C   UNL     1     -13.099  10.733  71.818  1.00  0.00    -0.573 A  
HETATM    7  C   UNL     1     -12.452   9.506  71.689  1.00  0.00    -0.476 A  
HETATM    8  C   UNL     1     -12.773  11.783  70.963  1.00  0.00    -0.372 A  
HETATM    9  C   UNL     1     -11.801  11.605  69.975  1.00  0.00    -0.435 A  
ENDBRANCH   3   4
ENDBRANCH   2   3
BRANCH   2  10
HETATM   10  N   UNL     1     -10.180  11.127  66.465  1.00  0.00    -0.223 N  
HETATM   11  H   UNL     1      -9.241  11.081  66.072  1.00  0.00     0.000 HD 
HETATM   12  C   UNL     1     -10.959  12.224  66.165  1.00  0.00    -0.293 C  
HETATM   13  O   UNL     1     -12.130  12.347  66.511  1.00  0.00    -0.599 OA 
BRANCH  12  14
HETATM   14  C   UNL     1     -10.227  13.277  65.300  1.00  0.00    -0.290 C  
HETATM   15  N   UNL     1     -11.174  13.802  64.278  1.00  0.00    -0.558 NA 
HETATM   16  H2  UNL     1     -12.032  14.167  64.693  1.00  0.00     0.000 HD 
HETATM   17  H1  UNL     1     -10.692  14.496  63.708  1.00  0.00     0.000 HD 
BRANCH  14  18
HETATM   18  C   UNL     1      -9.711  14.452  66.143  1.00  0.00    -0.335 C  
BRANCH  18  19
HETATM   19  C   UNL     1      -9.307  14.030  67.560  1.00  0.00    -0.209 C  
BRANCH  19  20
HETATM   20  C   UNL     1      -9.952  14.929  68.621  1.00  0.00    -0.224 C  
BRANCH  20  21
HETATM   21  C   UNL     1     -11.234  15.571  68.089  1.00  0.00    -0.343 C  
HETATM   22  N   UNL     1     -12.386  14.730  68.394  1.00  0.00    -0.593 NA 
HETATM   23  H1  UNL     1     -13.241  15.158  68.039  1.00  0.00     0.000 HD 
HETATM   24  H2  UNL     1     -12.451  14.521  69.390  1.00  0.00     0.000 HD 
ENDBRANCH  20  21
ENDBRANCH  19  20
ENDBRANCH  18  19
ENDBRANCH  14  18
ENDBRANCH  12  14
ENDBRANCH   2  10
TORSDOF 8
ENDMDL
MODEL       56
REMARK 921   NORMALIZED FREE ENERGY PREDICTED BY IDOCK:   -5.03 KCAL/MOL
REMARK 922        TOTAL FREE ENERGY PREDICTED BY IDOCK:   -8.17 KCAL/MOL
REMARK 923 INTER-LIGAND FREE ENERGY PREDICTED BY IDOCK:   -7.48 KCAL/MOL
REMARK 924 INTRA-LIGAND FREE ENERGY PREDICTED BY IDOCK:   -0.68 KCAL/MOL
REMARK 927      BINDING AFFINITY PREDICTED BY RF-SCORE:    0.00 PKD
ROOT
HETATM    1  C   UNL     1     -12.863  10.298  70.798  1.00  0.00    -0.427 C  
HETATM    2  C   UNL     1     -11.563  10.878  70.244  1.00  0.00    -0.334 C  
ENDROOT
BRANCH   2   3
HETATM    3  C   UNL     1     -10.392   9.870  70.329  1.00  0.00    -0.339 C  
BRANCH   3   4
HETATM    4  C   UNL     1     -10.608   8.573  69.575  1.00  0.00    -0.215 A  
HETATM    5  C   UNL     1     -10.476   8.531  68.179  1.00  0.00    -0.236 A  
HETATM    6  C   UNL     1     -10.975   6.165  68.173  1.00  0.00    -0.398 A  
HETATM    7  C   UNL     1     -10.660   7.333  67.483  1.00  0.00    -0.344 A  
HETATM    8  C   UNL     1     -11.099   6.191  69.560  1.00  0.00    -0.490 A  
HETATM    9  C   UNL     1     -10.911   7.387  70.258  1.00  0.00    -0.272 A  
ENDBRANCH   3   4
ENDBRANCH   2   3
BRANCH   2  10
HETATM   10  N   UNL     1     -11.795  11.310  68.868  1.00  0.00    -0.340 N  
HETATM   11  H   UNL     1     -12.059  10.605  68.180  1.00  0.00     0.000 HD 
HETATM   12  C   UNL     1     -11.675  12.617  68.448  1.00  0.00    -0.333 C  
HETATM   13  O   UNL     1     -11.447  13.559  69.201  1.00  0.00    -0.261 OA 
BRANCH  12  14
HETATM   14  C   UNL     1     -11.906  12.797  66.929  1.00  0.00    -0.371 C  
HETATM   15  N   UNL     1     -12.555  14.116  66.694  1.00  0.00    -0.510 NA 
HETATM   16  H2  UNL     1     -12.026  14.888  67.102  1.00  0.00     0.000 HD 
HETATM   17  H1  UNL     1     -12.707  14.235  65.693  1.00  0.00     0.000 HD 
BRANCH  14  18
HETATM   18  C   UNL     1     -10.590  12.748  66.140  1.00  0.00    -0.286 C  
BRANCH  18  19
HETATM   19  C   UNL     1     -10.649  11.784  64.950  1.00  0.00    -0.344 C  
BRANCH  19  20
HETATM   20  C   UNL     1     -10.732  12.540  63.618  1.00  0.00    -0.469 C  
BRANCH  20  21
HETATM   21  C   UNL     1     -12.173  12.950  63.311  1.00  0.00    -0.397 C  
HETATM   22  N   UNL     1     -12.350  14.381  63.532  1.00  0.00    -1.114 NA 
HETATM   23  H1  UNL     1     -13.311  14.655  63.327  1.00  0.00     0.000 HD 
HETATM   24  H2  UNL     1     -11.676  14.934  63.002  1.00  0.00     0.000 HD 
ENDBRANCH  20  21
ENDBRANCH  19  20
ENDBRANCH  18  19
ENDBRANCH  14  18
ENDBRANCH  12  14
ENDBRANCH   2  10
TORSDOF 8
ENDMDL
MODEL       57
REMARK 921   NORMALIZED FREE ENERGY PREDICTED BY IDOCK:   -5.02 KCAL/MOL
REMARK 922        TOTAL FREE ENERGY PREDICTED BY IDOCK:   -8.15 KCAL/MOL
REMARK 923 INTER-LIGAND FREE ENERGY PREDICTED BY IDOCK:   -7.59 KCAL/MOL
REMARK 924 INTRA-LIGAND FREE ENERGY PREDICTED BY IDOCK:   -0.56 KCAL/MOL
REMARK 927      BINDING AFFINITY PREDICTED BY RF-SCORE:    0.00 PKD
ROOT
HETATM    1  C   UNL     1      -8.799   9.694  70.090  1.00  0.00    -0.266 C  
HETATM    2  C   UNL     1     -10.301   9.948  69.975  1.00  0.00    -0.272 C  
ENDROOT
BRANCH   2   3
HETATM    3  C   UNL     1     -11.041   9.681  71.307  1.00  0.00    -0.426 C  
BRANCH   3   4
HETATM    4  C   UNL     1     -10.997   8.244  71.786  1.00  0.00    -0.342 A  
HETATM    5  C   UNL     1     -11.332   7.194  70.918  1.00  0.00    -0.319 A  
HETATM    6  C   UNL     1     -10.886   5.573  72.657  1.00  0.00    -0.305 A  
HETATM    7  C   UNL     1     -11.278   5.866  71.353  1.00  0.00    -0.285 A  
HETATM    8  C   UNL     1     -10.541   6.606  73.526  1.00  0.00    -0.334 A  
HETATM    9  C   UNL     1     -10.590   7.933  73.091  1.00  0.00    -0.342 A  
ENDBRANCH   3   4
ENDBRANCH   2   3
BRANCH   2  10
HETATM   10  N   UNL     1     -10.507  11.321  69.518  1.00  0.00    -0.442 N  
HETATM   11  H   UNL     1      -9.937  12.057  69.934  1.00  0.00     0.000 HD 
HETATM   12  C   UNL     1     -11.429  11.675  68.557  1.00  0.00    -0.298 C  
HETATM   13  O   UNL     1     -12.107  10.867  67.929  1.00  0.00    -0.527 OA 
BRANCH  12  14
HETATM   14  C   UNL     1     -11.497  13.200  68.305  1.00  0.00    -0.314 C  
HETATM   15  N   UNL     1     -10.659  13.893  69.321  1.00  0.00    -0.433 NA 
HETATM   16  H2  UNL     1      -9.700  13.544  69.338  1.00  0.00     0.000 HD 
HETATM   17  H1  UNL     1     -10.704  14.898  69.155  1.00  0.00     0.000 HD 
BRANCH  14  18
HETATM   18  C   UNL     1     -10.985  13.572  66.906  1.00  0.00    -0.296 C  
BRANCH  18  19
HETATM   19  C   UNL     1     -12.117  13.951  65.944  1.00  0.00    -0.459 C  
BRANCH  19  20
HETATM   20  C   UNL     1     -12.548  12.757  65.084  1.00  0.00    -0.513 C  
BRANCH  20  21
HETATM   21  C   UNL     1     -12.046  12.906  63.648  1.00  0.00    -0.535 C  
HETATM   22  N   UNL     1     -11.726  11.599  63.085  1.00  0.00    -0.881 NA 
HETATM   23  H1  UNL     1     -11.391  11.699  62.127  1.00  0.00     0.000 HD 
HETATM   24  H2  UNL     1     -12.515  10.955  63.147  1.00  0.00     0.000 HD 
ENDBRANCH  20  21
ENDBRANCH  19  20
ENDBRANCH  18  19
ENDBRANCH  14  18
ENDBRANCH  12  14
ENDBRANCH   2  10
TORSDOF 8
ENDMDL
MODEL       58
REMARK 921   NORMALIZED FREE ENERGY PREDICTED BY IDOCK:   -5.01 KCAL/MOL
REMARK 922        TOTAL FREE ENERGY PREDICTED BY IDOCK:   -8.15 KCAL/MOL
REMARK 923 INTER-LIGAND FREE ENERGY PREDICTED BY IDOCK:   -7.27 KCAL/MOL
REMARK 924 INTRA-LIGAND FREE ENERGY PREDICTED BY IDOCK:   -0.88 KCAL/MOL
REMARK 927      BINDING AFFINITY PREDICTED BY RF-SCORE:    0.00 PKD
ROOT
HETATM    1  C   UNL     1     -12.656  13.514  64.836  1.00  0.00    -0.392 C  
HETATM    2  C   UNL     1     -11.380  13.265  65.639  1.00  0.00    -0.304 C  
ENDROOT
BRANCH   2   3
HETATM    3  C   UNL     1     -10.192  14.110  65.120  1.00  0.00    -0.411 C  
BRANCH   3   4
HETATM    4  C   UNL     1      -9.943  15.399  65.878  1.00  0.00    -0.374 A  
HETATM    5  C   UNL     1      -8.976  15.452  66.892  1.00  0.00    -0.273 A  
HETATM    6  C   UNL     1      -9.453  17.794  67.266  1.00  0.00    -0.255 A  
HETATM    7  C   UNL     1      -8.734  16.644  67.583  1.00  0.00    -0.206 A  
HETATM    8  C   UNL     1     -10.409  17.757  66.253  1.00  0.00    -0.358 A  
HETATM    9  C   UNL     1     -10.649  16.567  65.559  1.00  0.00    -0.310 A  
ENDBRANCH   3   4
ENDBRANCH   2   3
BRANCH   2  10
HETATM   10  N   UNL     1     -11.654  13.541  67.047  1.00  0.00    -0.339 N  
HETATM   11  H   UNL     1     -11.676  14.514  67.352  1.00  0.00     0.000 HD 
HETATM   12  C   UNL     1     -11.883  12.558  67.986  1.00  0.00    -0.325 C  
HETATM   13  O   UNL     1     -11.964  11.363  67.719  1.00  0.00    -0.637 OA 
BRANCH  12  14
HETATM   14  C   UNL     1     -12.078  13.112  69.417  1.00  0.00    -0.231 C  
HETATM   15  N   UNL     1     -11.695  12.058  70.396  1.00  0.00    -0.525 NA 
HETATM   16  H2  UNL     1     -10.750  11.707  70.241  1.00  0.00     0.000 HD 
HETATM   17  H1  UNL     1     -11.824  12.422  71.340  1.00  0.00     0.000 HD 
BRANCH  14  18
HETATM   18  C   UNL     1     -11.218  14.358  69.672  1.00  0.00    -0.274 C  
BRANCH  18  19
HETATM   19  C   UNL     1     -11.652  15.131  70.922  1.00  0.00    -0.380 C  
BRANCH  19  20
HETATM   20  C   UNL     1     -13.136  15.509  70.864  1.00  0.00    -0.508 C  
BRANCH  20  21
HETATM   21  C   UNL     1     -13.883  14.985  72.090  1.00  0.00    -0.479 C  
HETATM   22  N   UNL     1     -13.564  15.793  73.262  1.00  0.00    -0.686 NA 
HETATM   23  H1  UNL     1     -14.063  15.443  74.080  1.00  0.00     0.000 HD 
HETATM   24  H2  UNL     1     -13.746  16.783  73.101  1.00  0.00     0.000 HD 
ENDBRANCH  20  21
ENDBRANCH  19  20
ENDBRANCH  18  19
ENDBRANCH  14  18
ENDBRANCH  12  14
ENDBRANCH   2  10
TORSDOF 8
ENDMDL
MODEL       59
REMARK 921   NORMALIZED FREE ENERGY PREDICTED BY IDOCK:   -4.99 KCAL/MOL
REMARK 922        TOTAL FREE ENERGY PREDICTED BY IDOCK:   -8.11 KCAL/MOL
REMARK 923 INTER-LIGAND FREE ENERGY PREDICTED BY IDOCK:   -7.93 KCAL/MOL
REMARK 924 INTRA-LIGAND FREE ENERGY PREDICTED BY IDOCK:   -0.18 KCAL/MOL
REMARK 927      BINDING AFFINITY PREDICTED BY RF-SCORE:    0.00 PKD
ROOT
HETATM    1  C   UNL     1     -12.110  13.936  69.793  1.00  0.00    -0.404 C  
HETATM    2  C   UNL     1     -11.339  12.621  69.683  1.00  0.00    -0.104 C  
ENDROOT
BRANCH   2   3
HETATM    3  C   UNL     1     -12.283  11.395  69.631  1.00  0.00    -0.316 C  
BRANCH   3   4
HETATM    4  C   UNL     1     -11.977  10.309  70.642  1.00  0.00    -0.436 A  
HETATM    5  C   UNL     1     -12.999   9.764  71.434  1.00  0.00    -0.490 A  
HETATM    6  C   UNL     1     -11.423   8.269  72.495  1.00  0.00    -0.454 A  
HETATM    7  C   UNL     1     -12.722   8.751  72.356  1.00  0.00    -0.433 A  
HETATM    8  C   UNL     1     -10.400   8.793  71.708  1.00  0.00    -0.413 A  
HETATM    9  C   UNL     1     -10.677   9.804  70.782  1.00  0.00    -0.393 A  
ENDBRANCH   3   4
ENDBRANCH   2   3
BRANCH   2  10
HETATM   10  N   UNL     1     -10.481  12.681  68.502  1.00  0.00    -0.239 N  
HETATM   11  H   UNL     1      -9.471  12.671  68.639  1.00  0.00     0.000 HD 
HETATM   12  C   UNL     1     -10.962  12.752  67.213  1.00  0.00    -0.262 C  
HETATM   13  O   UNL     1     -12.153  12.685  66.922  1.00  0.00    -0.490 OA 
BRANCH  12  14
HETATM   14  C   UNL     1      -9.847  12.876  66.147  1.00  0.00    -0.270 C  
HETATM   15  N   UNL     1      -8.646  13.487  66.779  1.00  0.00    -0.432 NA 
HETATM   16  H2  UNL     1      -8.338  12.977  67.606  1.00  0.00     0.000 HD 
HETATM   17  H1  UNL     1      -7.910  13.570  66.077  1.00  0.00     0.000 HD 
BRANCH  14  18
HETATM   18  C   UNL     1      -9.457  11.509  65.566  1.00  0.00    -0.234 C  
BRANCH  18  19
HETATM   19  C   UNL     1     -10.415  11.039  64.466  1.00  0.00    -0.411 C  
BRANCH  19  20
HETATM   20  C   UNL     1     -10.735  12.167  63.478  1.00  0.00    -0.509 C  
BRANCH  20  21
HETATM   21  C   UNL     1     -12.234  12.467  63.455  1.00  0.00    -0.558 C  
HETATM   22  N   UNL     1     -12.464  13.878  63.166  1.00  0.00    -1.079 NA 
HETATM   23  H1  UNL     1     -13.464  14.078  63.152  1.00  0.00     0.000 HD 
HETATM   24  H2  UNL     1     -12.005  14.169  62.303  1.00  0.00     0.000 HD 
ENDBRANCH  20  21
ENDBRANCH  19  20
ENDBRANCH  18  19
ENDBRANCH  14  18
ENDBRANCH  12  14
ENDBRANCH   2  10
TORSDOF 8
ENDMDL
MODEL       60
REMARK 921   NORMALIZED FREE ENERGY PREDICTED BY IDOCK:   -4.98 KCAL/MOL
REMARK 922        TOTAL FREE ENERGY PREDICTED BY IDOCK:   -8.10 KCAL/MOL
REMARK 923 INTER-LIGAND FREE ENERGY PREDICTED BY IDOCK:   -7.35 KCAL/MOL
REMARK 924 INTRA-LIGAND FREE ENERGY PREDICTED BY IDOCK:   -0.76 KCAL/MOL
REMARK 927      BINDING AFFINITY PREDICTED BY RF-SCORE:    0.00 PKD
ROOT
HETATM    1  C   UNL     1      -6.676  15.107  67.653  1.00  0.00    -0.201 C  
HETATM    2  C   UNL     1      -8.074  15.501  67.181  1.00  0.00    -0.216 C  
ENDROOT
BRANCH   2   3
HETATM    3  C   UNL     1      -8.033  16.605  66.097  1.00  0.00    -0.237 C  
BRANCH   3   4
HETATM    4  C   UNL     1      -8.668  17.921  66.499  1.00  0.00    -0.278 A  
HETATM    5  C   UNL     1     -10.063  18.051  66.553  1.00  0.00    -0.379 A  
HETATM    6  C   UNL     1      -9.852  20.349  67.277  1.00  0.00    -0.597 A  
HETATM    7  C   UNL     1     -10.652  19.259  66.939  1.00  0.00    -0.557 A  
HETATM    8  C   UNL     1      -8.465  20.230  67.238  1.00  0.00    -0.415 A  
HETATM    9  C   UNL     1      -7.876  19.021  66.857  1.00  0.00    -0.256 A  
ENDBRANCH   3   4
ENDBRANCH   2   3
BRANCH   2  10
HETATM   10  N   UNL     1      -8.757  14.304  66.696  1.00  0.00    -0.439 N  
HETATM   11  H   UNL     1      -8.613  14.028  65.725  1.00  0.00     0.000 HD 
HETATM   12  C   UNL     1      -9.584  13.528  67.478  1.00  0.00    -0.221 C  
HETATM   13  O   UNL     1      -9.763  13.714  68.678  1.00  0.00    -0.202 OA 
BRANCH  12  14
HETATM   14  C   UNL     1     -10.238  12.357  66.706  1.00  0.00    -0.219 C  
HETATM   15  N   UNL     1      -9.744  11.072  67.273  1.00  0.00    -0.165 NA 
HETATM   16  H2  UNL     1      -9.896  11.007  68.280  1.00  0.00     0.000 HD 
HETATM   17  H1  UNL     1     -10.174  10.301  66.764  1.00  0.00     0.000 HD 
BRANCH  14  18
HETATM   18  C   UNL     1     -11.769  12.386  66.811  1.00  0.00    -0.430 C  
BRANCH  18  19
HETATM   19  C   UNL     1     -12.362  13.747  66.429  1.00  0.00    -0.460 C  
BRANCH  19  20
HETATM   20  C   UNL     1     -12.302  13.983  64.915  1.00  0.00    -0.447 C  
BRANCH  20  21
HETATM   21  C   UNL     1     -11.338  15.119  64.576  1.00  0.00    -0.290 C  
HETATM   22  N   UNL     1     -11.993  16.101  63.720  1.00  0.00    -1.338 NA 
HETATM   23  H1  UNL     1     -11.349  16.859  63.493  1.00  0.00     0.000 HD 
HETATM   24  H2  UNL     1     -12.858  16.448  64.133  1.00  0.00     0.000 HD 
ENDBRANCH  20  21
ENDBRANCH  19  20
ENDBRANCH  18  19
ENDBRANCH  14  18
ENDBRANCH  12  14
ENDBRANCH   2  10
TORSDOF 8
ENDMDL
MODEL       61
REMARK 921   NORMALIZED FREE ENERGY PREDICTED BY IDOCK:   -4.98 KCAL/MOL
REMARK 922        TOTAL FREE ENERGY PREDICTED BY IDOCK:   -8.10 KCAL/MOL
REMARK 923 INTER-LIGAND FREE ENERGY PREDICTED BY IDOCK:   -6.86 KCAL/MOL
REMARK 924 INTRA-LIGAND FREE ENERGY PREDICTED BY IDOCK:   -1.24 KCAL/MOL
REMARK 927      BINDING AFFINITY PREDICTED BY RF-SCORE:    0.00 PKD
ROOT
HETATM    1  C   UNL     1      -9.939   8.238  66.560  1.00  0.00    -0.320 C  
HETATM    2  C   UNL     1     -10.110   9.733  66.825  1.00  0.00    -0.231 C  
ENDROOT
BRANCH   2   3
HETATM    3  C   UNL     1     -10.479  10.514  65.541  1.00  0.00    -0.220 C  
BRANCH   3   4
HETATM    4  C   UNL     1     -10.765  11.988  65.747  1.00  0.00    -0.319 A  
HETATM    5  C   UNL     1     -12.009  12.528  65.389  1.00  0.00    -0.492 A  
HETATM    6  C   UNL     1     -11.315  14.714  66.158  1.00  0.00    -0.350 A  
HETATM    7  C   UNL     1     -12.281  13.885  65.593  1.00  0.00    -0.477 A  
HETATM    8  C   UNL     1     -10.079  14.187  66.529  1.00  0.00    -0.283 A  
HETATM    9  C   UNL     1      -9.808  12.831  66.329  1.00  0.00    -0.269 A  
ENDBRANCH   3   4
ENDBRANCH   2   3
BRANCH   2  10
HETATM   10  N   UNL     1     -11.123   9.909  67.864  1.00  0.00    -0.492 N  
HETATM   11  H   UNL     1     -12.104   9.834  67.598  1.00  0.00     0.000 HD 
HETATM   12  C   UNL     1     -10.824  10.171  69.183  1.00  0.00    -0.226 C  
HETATM   13  O   UNL     1      -9.682  10.199  69.634  1.00  0.00    -0.228 OA 
BRANCH  12  14
HETATM   14  C   UNL     1     -12.077  10.383  70.066  1.00  0.00    -0.222 C  
HETATM   15  N   UNL     1     -11.989   9.483  71.249  1.00  0.00    -0.338 NA 
HETATM   16  H2  UNL     1     -11.121   9.608  71.769  1.00  0.00     0.000 HD 
HETATM   17  H1  UNL     1     -12.815   9.622  71.830  1.00  0.00     0.000 HD 
BRANCH  14  18
HETATM   18  C   UNL     1     -12.193  11.833  70.556  1.00  0.00    -0.438 C  
BRANCH  18  19
HETATM   19  C   UNL     1     -11.893  12.856  69.455  1.00  0.00    -0.383 C  
BRANCH  19  20
HETATM   20  C   UNL     1     -12.200  14.285  69.916  1.00  0.00    -0.407 C  
BRANCH  20  21
HETATM   21  C   UNL     1     -13.196  14.285  71.075  1.00  0.00    -0.303 C  
HETATM   22  N   UNL     1     -14.127  15.400  70.944  1.00  0.00    -0.864 NA 
HETATM   23  H1  UNL     1     -14.792  15.400  71.718  1.00  0.00     0.000 HD 
HETATM   24  H2  UNL     1     -14.597  15.397  70.039  1.00  0.00     0.000 HD 
ENDBRANCH  20  21
ENDBRANCH  19  20
ENDBRANCH  18  19
ENDBRANCH  14  18
ENDBRANCH  12  14
ENDBRANCH   2  10
TORSDOF 8
ENDMDL
MODEL       62
REMARK 921   NORMALIZED FREE ENERGY PREDICTED BY IDOCK:   -4.96 KCAL/MOL
REMARK 922        TOTAL FREE ENERGY PREDICTED BY IDOCK:   -8.07 KCAL/MOL
REMARK 923 INTER-LIGAND FREE ENERGY PREDICTED BY IDOCK:   -7.43 KCAL/MOL
REMARK 924 INTRA-LIGAND FREE ENERGY PREDICTED BY IDOCK:   -0.63 KCAL/MOL
REMARK 927      BINDING AFFINITY PREDICTED BY RF-SCORE:    0.00 PKD
ROOT
HETATM    1  C   UNL     1     -12.376  13.515  65.928  1.00  0.00    -0.507 C  
HETATM    2  C   UNL     1     -11.840  14.042  67.258  1.00  0.00    -0.411 C  
ENDROOT
BRANCH   2   3
HETATM    3  C   UNL     1     -11.038  12.967  68.030  1.00  0.00    -0.283 C  
BRANCH   3   4
HETATM    4  C   UNL     1     -11.700  12.457  69.294  1.00  0.00    -0.386 A  
HETATM    5  C   UNL     1     -11.776  11.081  69.552  1.00  0.00    -0.400 A  
HETATM    6  C   UNL     1     -12.898  11.505  71.652  1.00  0.00    -0.475 A  
HETATM    7  C   UNL     1     -12.373  10.608  70.725  1.00  0.00    -0.472 A  
HETATM    8  C   UNL     1     -12.820  12.876  71.412  1.00  0.00    -0.377 A  
HETATM    9  C   UNL     1     -12.220  13.349  70.242  1.00  0.00    -0.405 A  
ENDBRANCH   3   4
ENDBRANCH   2   3
BRANCH   2  10
HETATM   10  N   UNL     1     -11.026  15.226  66.996  1.00  0.00    -0.326 N  
HETATM   11  H   UNL     1     -10.535  15.286  66.104  1.00  0.00     0.000 HD 
HETATM   12  C   UNL     1     -10.885  16.267  67.888  1.00  0.00    -0.330 C  
HETATM   13  O   UNL     1     -11.492  16.344  68.951  1.00  0.00    -0.311 OA 
BRANCH  12  14
HETATM   14  C   UNL     1      -9.913  17.368  67.397  1.00  0.00    -0.305 C  
HETATM   15  N   UNL     1      -9.487  17.048  66.007  1.00  0.00    -0.488 NA 
HETATM   16  H2  UNL     1     -10.279  16.919  65.377  1.00  0.00     0.000 HD 
HETATM   17  H1  UNL     1      -8.847  17.772  65.684  1.00  0.00     0.000 HD 
BRANCH  14  18
HETATM   18  C   UNL     1     -10.570  18.755  67.405  1.00  0.00    -0.505 C  
BRANCH  18  19
HETATM   19  C   UNL     1      -9.748  19.795  68.174  1.00  0.00    -0.506 C  
BRANCH  19  20
HETATM   20  C   UNL     1      -8.663  20.421  67.291  1.00  0.00    -0.429 C  
BRANCH  20  21
HETATM   21  C   UNL     1      -7.280  20.251  67.919  1.00  0.00    -0.284 C  
HETATM   22  N   UNL     1      -7.403  19.903  69.329  1.00  0.00    -0.233 NA 
HETATM   23  H1  UNL     1      -6.480  19.790  69.748  1.00  0.00     0.000 HD 
HETATM   24  H2  UNL     1      -7.988  19.079  69.468  1.00  0.00     0.000 HD 
ENDBRANCH  20  21
ENDBRANCH  19  20
ENDBRANCH  18  19
ENDBRANCH  14  18
ENDBRANCH  12  14
ENDBRANCH   2  10
TORSDOF 8
ENDMDL
MODEL       63
REMARK 921   NORMALIZED FREE ENERGY PREDICTED BY IDOCK:   -4.95 KCAL/MOL
REMARK 922        TOTAL FREE ENERGY PREDICTED BY IDOCK:   -8.06 KCAL/MOL
REMARK 923 INTER-LIGAND FREE ENERGY PREDICTED BY IDOCK:   -6.67 KCAL/MOL
REMARK 924 INTRA-LIGAND FREE ENERGY PREDICTED BY IDOCK:   -1.39 KCAL/MOL
REMARK 927      BINDING AFFINITY PREDICTED BY RF-SCORE:    0.00 PKD
ROOT
HETATM    1  C   UNL     1     -12.823  10.586  70.740  1.00  0.00    -0.454 C  
HETATM    2  C   UNL     1     -11.531  11.010  70.041  1.00  0.00    -0.314 C  
ENDROOT
BRANCH   2   3
HETATM    3  C   UNL     1     -10.589   9.811  69.781  1.00  0.00    -0.285 C  
BRANCH   3   4
HETATM    4  C   UNL     1      -9.893   9.823  68.435  1.00  0.00    -0.168 A  
HETATM    5  C   UNL     1     -10.444   9.138  67.342  1.00  0.00    -0.339 A  
HETATM    6  C   UNL     1      -8.626   9.870  65.926  1.00  0.00    -0.149 A  
HETATM    7  C   UNL     1      -9.812   9.161  66.095  1.00  0.00    -0.363 A  
HETATM    8  C   UNL     1      -8.073  10.564  67.000  1.00  0.00    -0.118 A  
HETATM    9  C   UNL     1      -8.706  10.545  68.246  1.00  0.00    -0.135 A  
ENDBRANCH   3   4
ENDBRANCH   2   3
BRANCH   2  10
HETATM   10  N   UNL     1     -11.878  11.694  68.797  1.00  0.00    -0.330 N  
HETATM   11  H   UNL     1     -12.092  11.125  67.978  1.00  0.00     0.000 HD 
HETATM   12  C   UNL     1     -11.932  13.065  68.670  1.00  0.00    -0.263 C  
HETATM   13  O   UNL     1     -11.778  13.845  69.605  1.00  0.00    -0.275 OA 
BRANCH  12  14
HETATM   14  C   UNL     1     -12.255  13.536  67.232  1.00  0.00    -0.260 C  
HETATM   15  N   UNL     1     -11.532  14.810  66.969  1.00  0.00    -0.359 NA 
HETATM   16  H2  UNL     1     -10.529  14.730  67.136  1.00  0.00     0.000 HD 
HETATM   17  H1  UNL     1     -11.745  15.121  66.022  1.00  0.00     0.000 HD 
BRANCH  14  18
HETATM   18  C   UNL     1     -11.827  12.501  66.181  1.00  0.00    -0.459 C  
BRANCH  18  19
HETATM   19  C   UNL     1     -10.575  12.927  65.407  1.00  0.00    -0.308 C  
BRANCH  19  20
HETATM   20  C   UNL     1     -10.660  12.519  63.931  1.00  0.00    -0.472 C  
BRANCH  20  21
HETATM   21  C   UNL     1     -12.086  12.674  63.402  1.00  0.00    -0.525 C  
HETATM   22  N   UNL     1     -12.359  14.070  63.081  1.00  0.00    -1.094 NA 
HETATM   23  H1  UNL     1     -13.310  14.173  62.729  1.00  0.00     0.000 HD 
HETATM   24  H2  UNL     1     -11.670  14.453  62.435  1.00  0.00     0.000 HD 
ENDBRANCH  20  21
ENDBRANCH  19  20
ENDBRANCH  18  19
ENDBRANCH  14  18
ENDBRANCH  12  14
ENDBRANCH   2  10
TORSDOF 8
ENDMDL
MODEL       64
REMARK 921   NORMALIZED FREE ENERGY PREDICTED BY IDOCK:   -4.93 KCAL/MOL
REMARK 922        TOTAL FREE ENERGY PREDICTED BY IDOCK:   -8.03 KCAL/MOL
REMARK 923 INTER-LIGAND FREE ENERGY PREDICTED BY IDOCK:   -7.69 KCAL/MOL
REMARK 924 INTRA-LIGAND FREE ENERGY PREDICTED BY IDOCK:   -0.34 KCAL/MOL
REMARK 927      BINDING AFFINITY PREDICTED BY RF-SCORE:    0.00 PKD
ROOT
HETATM    1  C   UNL     1     -10.018  16.020  68.264  1.00  0.00    -0.220 C  
HETATM    2  C   UNL     1     -11.223  15.281  67.682  1.00  0.00    -0.320 C  
ENDROOT
BRANCH   2   3
HETATM    3  C   UNL     1     -11.362  15.505  66.157  1.00  0.00    -0.010 C  
BRANCH   3   4
HETATM    4  C   UNL     1     -11.435  14.238  65.328  1.00  0.00    -0.344 A  
HETATM    5  C   UNL     1     -12.663  13.592  65.122  1.00  0.00    -0.443 A  
HETATM    6  C   UNL     1     -11.584  11.907  63.765  1.00  0.00    -0.555 A  
HETATM    7  C   UNL     1     -12.736  12.432  64.346  1.00  0.00    -0.434 A  
HETATM    8  C   UNL     1     -10.359  12.545  63.952  1.00  0.00    -0.436 A  
HETATM    9  C   UNL     1     -10.286  13.707  64.725  1.00  0.00    -0.414 A  
ENDBRANCH   3   4
ENDBRANCH   2   3
BRANCH   2  10
HETATM   10  N   UNL     1     -11.098  13.862  68.002  1.00  0.00    -0.251 N  
HETATM   11  H   UNL     1     -10.518  13.280  67.397  1.00  0.00     0.000 HD 
HETATM   12  C   UNL     1     -11.720  13.265  69.077  1.00  0.00    -0.322 C  
HETATM   13  O   UNL     1     -12.369  13.878  69.919  1.00  0.00    -0.332 OA 
BRANCH  12  14
HETATM   14  C   UNL     1     -11.481  11.738  69.154  1.00  0.00    -0.297 C  
HETATM   15  N   UNL     1     -10.017  11.476  69.097  1.00  0.00    -0.416 NA 
HETATM   16  H2  UNL     1      -9.502  11.987  69.815  1.00  0.00     0.000 HD 
HETATM   17  H1  UNL     1      -9.860  10.470  69.147  1.00  0.00     0.000 HD 
BRANCH  14  18
HETATM   18  C   UNL     1     -12.040  11.136  70.452  1.00  0.00    -0.475 C  
BRANCH  18  19
HETATM   19  C   UNL     1     -11.357   9.818  70.834  1.00  0.00    -0.439 C  
BRANCH  19  20
HETATM   20  C   UNL     1     -12.068   9.136  72.009  1.00  0.00    -0.431 C  
BRANCH  20  21
HETATM   21  C   UNL     1     -13.575   9.057  71.765  1.00  0.00    -0.413 C  
HETATM   22  N   UNL     1     -14.293   9.034  73.035  1.00  0.00    -1.139 NA 
HETATM   23  H1  UNL     1     -15.298   8.980  72.872  1.00  0.00     0.000 HD 
HETATM   24  H2  UNL     1     -14.044   9.826  73.627  1.00  0.00     0.000 HD 
ENDBRANCH  20  21
ENDBRANCH  19  20
ENDBRANCH  18  19
ENDBRANCH  14  18
ENDBRANCH  12  14
ENDBRANCH   2  10
TORSDOF 8
ENDMDL
MODEL       65
REMARK 921   NORMALIZED FREE ENERGY PREDICTED BY IDOCK:   -4.93 KCAL/MOL
REMARK 922        TOTAL FREE ENERGY PREDICTED BY IDOCK:   -8.03 KCAL/MOL
REMARK 923 INTER-LIGAND FREE ENERGY PREDICTED BY IDOCK:   -7.37 KCAL/MOL
REMARK 924 INTRA-LIGAND FREE ENERGY PREDICTED BY IDOCK:   -0.66 KCAL/MOL
REMARK 927      BINDING AFFINITY PREDICTED BY RF-SCORE:    0.00 PKD
ROOT
HETATM    1  C   UNL     1     -10.865  14.164  69.091  1.00  0.00    -0.254 C  
HETATM    2  C   UNL     1     -10.898  14.804  67.704  1.00  0.00    -0.285 C  
ENDROOT
BRANCH   2   3
HETATM    3  C   UNL     1     -12.148  14.381  66.897  1.00  0.00    -0.386 C  
BRANCH   3   4
HETATM    4  C   UNL     1     -11.876  13.436  65.743  1.00  0.00    -0.412 A  
HETATM    5  C   UNL     1     -12.264  13.776  64.439  1.00  0.00    -0.440 A  
HETATM    6  C   UNL     1     -11.345  11.704  63.594  1.00  0.00    -0.485 A  
HETATM    7  C   UNL     1     -12.000  12.913  63.371  1.00  0.00    -0.612 A  
HETATM    8  C   UNL     1     -10.945  11.360  64.883  1.00  0.00    -0.284 A  
HETATM    9  C   UNL     1     -11.204  12.223  65.951  1.00  0.00    -0.381 A  
ENDBRANCH   3   4
ENDBRANCH   2   3
BRANCH   2  10
HETATM   10  N   UNL     1     -10.831  16.255  67.859  1.00  0.00    -0.334 N  
HETATM   11  H   UNL     1     -11.136  16.660  68.744  1.00  0.00     0.000 HD 
HETATM   12  C   UNL     1     -10.379  17.107  66.875  1.00  0.00    -0.308 C  
HETATM   13  O   UNL     1      -9.908  16.730  65.806  1.00  0.00    -0.505 OA 
BRANCH  12  14
HETATM   14  C   UNL     1     -10.475  18.602  67.266  1.00  0.00    -0.423 C  
HETATM   15  N   UNL     1      -9.972  18.768  68.657  1.00  0.00    -0.384 NA 
HETATM   16  H2  UNL     1      -9.031  18.394  68.779  1.00  0.00     0.000 HD 
HETATM   17  H1  UNL     1     -10.036  19.752  68.915  1.00  0.00     0.000 HD 
BRANCH  14  18
HETATM   18  C   UNL     1      -9.643  19.492  66.332  1.00  0.00    -0.469 C  
BRANCH  18  19
HETATM   19  C   UNL     1      -8.579  20.303  67.080  1.00  0.00    -0.398 C  
BRANCH  19  20
HETATM   20  C   UNL     1      -7.241  20.302  66.331  1.00  0.00    -0.302 C  
BRANCH  20  21
HETATM   21  C   UNL     1      -6.780  18.875  66.035  1.00  0.00    -0.240 C  
HETATM   22  N   UNL     1      -6.172  18.804  64.711  1.00  0.00    -0.463 NA 
HETATM   23  H1  UNL     1      -5.864  17.851  64.513  1.00  0.00     0.000 HD 
HETATM   24  H2  UNL     1      -5.414  19.478  64.604  1.00  0.00     0.000 HD 
ENDBRANCH  20  21
ENDBRANCH  19  20
ENDBRANCH  18  19
ENDBRANCH  14  18
ENDBRANCH  12  14
ENDBRANCH   2  10
TORSDOF 8
ENDMDL
MODEL       66
REMARK 921   NORMALIZED FREE ENERGY PREDICTED BY IDOCK:   -4.93 KCAL/MOL
REMARK 922        TOTAL FREE ENERGY PREDICTED BY IDOCK:   -8.03 KCAL/MOL
REMARK 923 INTER-LIGAND FREE ENERGY PREDICTED BY IDOCK:   -7.84 KCAL/MOL
REMARK 924 INTRA-LIGAND FREE ENERGY PREDICTED BY IDOCK:   -0.19 KCAL/MOL
REMARK 927      BINDING AFFINITY PREDICTED BY RF-SCORE:    0.00 PKD
ROOT
HETATM    1  C   UNL     1     -10.703  17.020  68.322  1.00  0.00    -0.372 C  
HETATM    2  C   UNL     1     -11.622  15.811  68.147  1.00  0.00    -0.255 C  
ENDROOT
BRANCH   2   3
HETATM    3  C   UNL     1     -10.828  14.510  67.880  1.00  0.00    -0.260 C  
BRANCH   3   4
HETATM    4  C   UNL     1     -11.077  13.874  66.527  1.00  0.00    -0.310 A  
HETATM    5  C   UNL     1     -10.019  13.307  65.802  1.00  0.00    -0.261 A  
HETATM    6  C   UNL     1     -11.536  12.663  64.032  1.00  0.00    -0.486 A  
HETATM    7  C   UNL     1     -10.248  12.707  64.560  1.00  0.00    -0.331 A  
HETATM    8  C   UNL     1     -12.598  13.213  64.748  1.00  0.00    -0.426 A  
HETATM    9  C   UNL     1     -12.371  13.810  65.991  1.00  0.00    -0.499 A  
ENDBRANCH   3   4
ENDBRANCH   2   3
BRANCH   2  10
HETATM   10  N   UNL     1     -12.461  15.688  69.337  1.00  0.00    -0.557 N  
HETATM   11  H   UNL     1     -13.471  15.638  69.211  1.00  0.00     0.000 HD 
HETATM   12  C   UNL     1     -11.961  15.636  70.620  1.00  0.00    -0.402 C  
HETATM   13  O   UNL     1     -10.763  15.602  70.887  1.00  0.00    -0.269 OA 
BRANCH  12  14
HETATM   14  C   UNL     1     -13.062  15.575  71.705  1.00  0.00    -0.466 C  
HETATM   15  N   UNL     1     -14.392  15.527  71.038  1.00  0.00    -0.815 NA 
HETATM   16  H2  UNL     1     -14.464  14.761  70.368  1.00  0.00     0.000 HD 
HETATM   17  H1  UNL     1     -15.118  15.487  71.753  1.00  0.00     0.000 HD 
BRANCH  14  18
HETATM   18  C   UNL     1     -12.914  14.337  72.601  1.00  0.00    -0.526 C  
BRANCH  18  19
HETATM   19  C   UNL     1     -13.561  13.087  71.994  1.00  0.00    -0.530 C  
BRANCH  19  20
HETATM   20  C   UNL     1     -12.511  12.145  71.392  1.00  0.00    -0.222 C  
BRANCH  20  21
HETATM   21  C   UNL     1     -12.968  10.689  71.479  1.00  0.00    -0.461 C  
HETATM   22  N   UNL     1     -13.375  10.207  70.164  1.00  0.00    -0.386 NA 
HETATM   23  H1  UNL     1     -13.680   9.235  70.223  1.00  0.00     0.000 HD 
HETATM   24  H2  UNL     1     -12.640  10.334  69.469  1.00  0.00     0.000 HD 
ENDBRANCH  20  21
ENDBRANCH  19  20
ENDBRANCH  18  19
ENDBRANCH  14  18
ENDBRANCH  12  14
ENDBRANCH   2  10
TORSDOF 8
ENDMDL
MODEL       67
REMARK 921   NORMALIZED FREE ENERGY PREDICTED BY IDOCK:   -4.92 KCAL/MOL
REMARK 922        TOTAL FREE ENERGY PREDICTED BY IDOCK:   -8.02 KCAL/MOL
REMARK 923 INTER-LIGAND FREE ENERGY PREDICTED BY IDOCK:   -6.90 KCAL/MOL
REMARK 924 INTRA-LIGAND FREE ENERGY PREDICTED BY IDOCK:   -1.12 KCAL/MOL
REMARK 927      BINDING AFFINITY PREDICTED BY RF-SCORE:    0.00 PKD
ROOT
HETATM    1  C   UNL     1     -10.812   5.869  70.367  1.00  0.00    -0.378 C  
HETATM    2  C   UNL     1     -10.615   7.361  70.100  1.00  0.00    -0.230 C  
ENDROOT
BRANCH   2   3
HETATM    3  C   UNL     1     -10.287   7.648  68.615  1.00  0.00    -0.220 C  
BRANCH   3   4
HETATM    4  C   UNL     1     -10.118   9.114  68.268  1.00  0.00    -0.221 A  
HETATM    5  C   UNL     1     -10.843   9.683  67.211  1.00  0.00    -0.212 A  
HETATM    6  C   UNL     1      -9.837  11.839  67.641  1.00  0.00    -0.192 A  
HETATM    7  C   UNL     1     -10.701  11.038  66.898  1.00  0.00    -0.325 A  
HETATM    8  C   UNL     1      -9.120  11.289  68.702  1.00  0.00    -0.153 A  
HETATM    9  C   UNL     1      -9.264   9.935  69.017  1.00  0.00    -0.168 A  
ENDBRANCH   3   4
ENDBRANCH   2   3
BRANCH   2  10
HETATM   10  N   UNL     1     -11.816   8.073  70.527  1.00  0.00    -0.476 N  
HETATM   11  H   UNL     1     -12.630   8.058  69.911  1.00  0.00     0.000 HD 
HETATM   12  C   UNL     1     -11.912   8.764  71.715  1.00  0.00    -0.349 C  
HETATM   13  O   UNL     1     -11.030   8.780  72.569  1.00  0.00    -0.258 OA 
BRANCH  12  14
HETATM   14  C   UNL     1     -13.267   9.488  71.897  1.00  0.00    -0.439 C  
HETATM   15  N   UNL     1     -13.931   8.963  73.122  1.00  0.00    -1.215 NA 
HETATM   16  H2  UNL     1     -13.337   9.036  73.948  1.00  0.00     0.000 HD 
HETATM   17  H1  UNL     1     -14.824   9.440  73.242  1.00  0.00     0.000 HD 
BRANCH  14  18
HETATM   18  C   UNL     1     -13.090  11.006  72.043  1.00  0.00    -0.449 C  
BRANCH  18  19
HETATM   19  C   UNL     1     -12.483  11.654  70.794  1.00  0.00    -0.425 C  
BRANCH  19  20
HETATM   20  C   UNL     1     -12.414  13.179  70.928  1.00  0.00    -0.407 C  
BRANCH  20  21
HETATM   21  C   UNL     1     -11.993  13.826  69.608  1.00  0.00    -0.342 C  
HETATM   22  N   UNL     1     -10.733  14.542  69.774  1.00  0.00    -0.443 NA 
HETATM   23  H1  UNL     1     -10.453  14.974  68.894  1.00  0.00     0.000 HD 
HETATM   24  H2  UNL     1     -10.002  13.940  70.153  1.00  0.00     0.000 HD 
ENDBRANCH  20  21
ENDBRANCH  19  20
ENDBRANCH  18  19
ENDBRANCH  14  18
ENDBRANCH  12  14
ENDBRANCH   2  10
TORSDOF 8
ENDMDL
MODEL       68
REMARK 921   NORMALIZED FREE ENERGY PREDICTED BY IDOCK:   -4.92 KCAL/MOL
REMARK 922        TOTAL FREE ENERGY PREDICTED BY IDOCK:   -8.01 KCAL/MOL
REMARK 923 INTER-LIGAND FREE ENERGY PREDICTED BY IDOCK:   -7.30 KCAL/MOL
REMARK 924 INTRA-LIGAND FREE ENERGY PREDICTED BY IDOCK:   -0.71 KCAL/MOL
REMARK 927      BINDING AFFINITY PREDICTED BY RF-SCORE:    0.00 PKD
ROOT
HETATM    1  C   UNL     1     -11.983  13.748  70.100  1.00  0.00    -0.404 C  
HETATM    2  C   UNL     1     -11.376  13.134  68.839  1.00  0.00    -0.289 C  
ENDROOT
BRANCH   2   3
HETATM    3  C   UNL     1     -11.842  11.675  68.620  1.00  0.00    -0.370 C  
BRANCH   3   4
HETATM    4  C   UNL     1     -11.319  10.676  69.632  1.00  0.00    -0.360 A  
HETATM    5  C   UNL     1      -9.992  10.226  69.567  1.00  0.00    -0.252 A  
HETATM    6  C   UNL     1     -10.330   8.850  71.527  1.00  0.00    -0.394 A  
HETATM    7  C   UNL     1      -9.501   9.317  70.509  1.00  0.00    -0.317 A  
HETATM    8  C   UNL     1     -11.647   9.297  71.609  1.00  0.00    -0.463 A  
HETATM    9  C   UNL     1     -12.137  10.209  70.671  1.00  0.00    -0.411 A  
ENDBRANCH   3   4
ENDBRANCH   2   3
BRANCH   2  10
HETATM   10  N   UNL     1     -11.719  13.979  67.698  1.00  0.00    -0.356 N  
HETATM   11  H   UNL     1     -12.613  14.468  67.713  1.00  0.00     0.000 HD 
HETATM   12  C   UNL     1     -10.900  14.151  66.603  1.00  0.00    -0.299 C  
HETATM   13  O   UNL     1      -9.769  13.682  66.514  1.00  0.00    -0.277 OA 
BRANCH  12  14
HETATM   14  C   UNL     1     -11.526  15.040  65.503  1.00  0.00    -0.265 C  
HETATM   15  N   UNL     1     -10.634  16.208  65.263  1.00  0.00    -0.544 NA 
HETATM   16  H2  UNL     1      -9.678  15.929  65.041  1.00  0.00     0.000 HD 
HETATM   17  H1  UNL     1     -11.046  16.794  64.538  1.00  0.00     0.000 HD 
BRANCH  14  18
HETATM   18  C   UNL     1     -11.704  14.277  64.183  1.00  0.00    -0.279 C  
BRANCH  18  19
HETATM   19  C   UNL     1     -12.655  13.082  64.314  1.00  0.00    -0.326 C  
BRANCH  19  20
HETATM   20  C   UNL     1     -12.174  11.885  63.486  1.00  0.00    -0.591 C  
BRANCH  20  21
HETATM   21  C   UNL     1     -10.647  11.811  63.466  1.00  0.00    -0.440 C  
HETATM   22  N   UNL     1     -10.209  10.550  62.880  1.00  0.00    -0.662 NA 
HETATM   23  H1  UNL     1      -9.190  10.500  62.868  1.00  0.00     0.000 HD 
HETATM   24  H2  UNL     1     -10.608  10.402  61.954  1.00  0.00     0.000 HD 
ENDBRANCH  20  21
ENDBRANCH  19  20
ENDBRANCH  18  19
ENDBRANCH  14  18
ENDBRANCH  12  14
ENDBRANCH   2  10
TORSDOF 8
ENDMDL
MODEL       69
REMARK 921   NORMALIZED FREE ENERGY PREDICTED BY IDOCK:   -4.92 KCAL/MOL
REMARK 922        TOTAL FREE ENERGY PREDICTED BY IDOCK:   -8.00 KCAL/MOL
REMARK 923 INTER-LIGAND FREE ENERGY PREDICTED BY IDOCK:   -7.08 KCAL/MOL
REMARK 924 INTRA-LIGAND FREE ENERGY PREDICTED BY IDOCK:   -0.92 KCAL/MOL
REMARK 927      BINDING AFFINITY PREDICTED BY RF-SCORE:    0.00 PKD
ROOT
HETATM    1  C   UNL     1     -11.231   4.933  73.157  1.00  0.00    -0.403 C  
HETATM    2  C   UNL     1     -10.935   5.965  72.070  1.00  0.00    -0.266 C  
ENDROOT
BRANCH   2   3
HETATM    3  C   UNL     1     -10.655   5.304  70.699  1.00  0.00    -0.263 C  
BRANCH   3   4
HETATM    4  C   UNL     1     -10.424   6.272  69.557  1.00  0.00    -0.293 A  
HETATM    5  C   UNL     1      -9.500   7.319  69.686  1.00  0.00    -0.155 A  
HETATM    6  C   UNL     1      -9.966   8.051  67.430  1.00  0.00    -0.270 A  
HETATM    7  C   UNL     1      -9.274   8.204  68.628  1.00  0.00    -0.143 A  
HETATM    8  C   UNL     1     -10.880   7.009  67.284  1.00  0.00    -0.403 A  
HETATM    9  C   UNL     1     -11.103   6.121  68.339  1.00  0.00    -0.343 A  
ENDBRANCH   3   4
ENDBRANCH   2   3
BRANCH   2  10
HETATM   10  N   UNL     1     -12.060   6.894  71.992  1.00  0.00    -0.382 N  
HETATM   11  H   UNL     1     -12.980   6.519  71.764  1.00  0.00     0.000 HD 
HETATM   12  C   UNL     1     -11.946   8.250  72.210  1.00  0.00    -0.386 C  
HETATM   13  O   UNL     1     -10.910   8.800  72.573  1.00  0.00    -0.257 OA 
BRANCH  12  14
HETATM   14  C   UNL     1     -13.272   9.019  71.998  1.00  0.00    -0.429 C  
HETATM   15  N   UNL     1     -14.094   8.908  73.234  1.00  0.00    -1.248 NA 
HETATM   16  H2  UNL     1     -13.592   9.220  74.066  1.00  0.00     0.000 HD 
HETATM   17  H1  UNL     1     -14.968   9.415  73.095  1.00  0.00     0.000 HD 
BRANCH  14  18
HETATM   18  C   UNL     1     -13.029  10.506  71.699  1.00  0.00    -0.581 C  
BRANCH  18  19
HETATM   19  C   UNL     1     -12.817  10.782  70.207  1.00  0.00    -0.226 C  
BRANCH  19  20
HETATM   20  C   UNL     1     -11.356  11.128  69.900  1.00  0.00    -0.348 C  
BRANCH  20  21
HETATM   21  C   UNL     1     -11.256  12.060  68.692  1.00  0.00    -0.258 C  
HETATM   22  N   UNL     1     -10.433  13.220  69.015  1.00  0.00    -0.429 NA 
HETATM   23  H1  UNL     1     -10.367  13.842  68.209  1.00  0.00     0.000 HD 
HETATM   24  H2  UNL     1      -9.514  12.949  69.363  1.00  0.00     0.000 HD 
ENDBRANCH  20  21
ENDBRANCH  19  20
ENDBRANCH  18  19
ENDBRANCH  14  18
ENDBRANCH  12  14
ENDBRANCH   2  10
TORSDOF 8
ENDMDL
MODEL       70
REMARK 921   NORMALIZED FREE ENERGY PREDICTED BY IDOCK:   -4.90 KCAL/MOL
REMARK 922        TOTAL FREE ENERGY PREDICTED BY IDOCK:   -7.98 KCAL/MOL
REMARK 923 INTER-LIGAND FREE ENERGY PREDICTED BY IDOCK:   -6.69 KCAL/MOL
REMARK 924 INTRA-LIGAND FREE ENERGY PREDICTED BY IDOCK:   -1.29 KCAL/MOL
REMARK 927      BINDING AFFINITY PREDICTED BY RF-SCORE:    0.00 PKD
ROOT
HETATM    1  C   UNL     1     -11.319  15.504  71.156  1.00  0.00    -0.442 C  
HETATM    2  C   UNL     1     -12.067  14.806  70.020  1.00  0.00    -0.329 C  
ENDROOT
BRANCH   2   3
HETATM    3  C   UNL     1     -11.760  15.444  68.644  1.00  0.00    -0.371 C  
BRANCH   3   4
HETATM    4  C   UNL     1     -11.433  14.458  67.540  1.00  0.00    -0.370 A  
HETATM    5  C   UNL     1     -12.460  13.841  66.810  1.00  0.00    -0.254 A  
HETATM    6  C   UNL     1     -10.836  12.655  65.469  1.00  0.00    -0.310 A  
HETATM    7  C   UNL     1     -12.162  12.943  65.781  1.00  0.00    -0.498 A  
HETATM    8  C   UNL     1      -9.806  13.269  66.179  1.00  0.00    -0.286 A  
HETATM    9  C   UNL     1     -10.103  14.170  67.205  1.00  0.00    -0.258 A  
ENDBRANCH   3   4
ENDBRANCH   2   3
BRANCH   2  10
HETATM   10  N   UNL     1     -11.721  13.387  70.038  1.00  0.00    -0.471 N  
HETATM   11  H   UNL     1     -10.943  13.073  69.458  1.00  0.00     0.000 HD 
HETATM   12  C   UNL     1     -12.389  12.449  70.795  1.00  0.00    -0.286 C  
HETATM   13  O   UNL     1     -13.282  12.722  71.591  1.00  0.00    -0.397 OA 
BRANCH  12  14
HETATM   14  C   UNL     1     -11.871  11.007  70.581  1.00  0.00    -0.333 C  
HETATM   15  N   UNL     1     -13.025  10.125  70.257  1.00  0.00    -0.577 NA 
HETATM   16  H2  UNL     1     -13.565  10.466  69.461  1.00  0.00     0.000 HD 
HETATM   17  H1  UNL     1     -12.685   9.174  70.116  1.00  0.00     0.000 HD 
BRANCH  14  18
HETATM   18  C   UNL     1     -10.853  10.928  69.434  1.00  0.00    -0.286 C  
BRANCH  18  19
HETATM   19  C   UNL     1     -11.390  10.165  68.218  1.00  0.00    -0.183 C  
BRANCH  19  20
HETATM   20  C   UNL     1     -10.252   9.613  67.352  1.00  0.00    -0.283 C  
BRANCH  20  21
HETATM   21  C   UNL     1     -10.477   8.136  67.029  1.00  0.00    -0.326 C  
HETATM   22  N   UNL     1      -9.582   7.709  65.960  1.00  0.00    -0.432 NA 
HETATM   23  H1  UNL     1      -9.733   6.723  65.744  1.00  0.00     0.000 HD 
HETATM   24  H2  UNL     1      -8.606   7.905  66.180  1.00  0.00     0.000 HD 
ENDBRANCH  20  21
ENDBRANCH  19  20
ENDBRANCH  18  19
ENDBRANCH  14  18
ENDBRANCH  12  14
ENDBRANCH   2  10
TORSDOF 8
ENDMDL
MODEL       71
REMARK 921   NORMALIZED FREE ENERGY PREDICTED BY IDOCK:   -4.90 KCAL/MOL
REMARK 922        TOTAL FREE ENERGY PREDICTED BY IDOCK:   -7.98 KCAL/MOL
REMARK 923 INTER-LIGAND FREE ENERGY PREDICTED BY IDOCK:   -6.83 KCAL/MOL
REMARK 924 INTRA-LIGAND FREE ENERGY PREDICTED BY IDOCK:   -1.15 KCAL/MOL
REMARK 927      BINDING AFFINITY PREDICTED BY RF-SCORE:    0.00 PKD
ROOT
HETATM    1  C   UNL     1     -11.178  14.792  68.882  1.00  0.00    -0.282 C  
HETATM    2  C   UNL     1     -10.478  14.845  67.525  1.00  0.00    -0.254 C  
ENDROOT
BRANCH   2   3
HETATM    3  C   UNL     1     -11.484  14.963  66.355  1.00  0.00    -0.280 C  
BRANCH   3   4
HETATM    4  C   UNL     1     -11.444  13.822  65.359  1.00  0.00    -0.318 A  
HETATM    5  C   UNL     1     -10.223  13.386  64.825  1.00  0.00    -0.339 A  
HETATM    6  C   UNL     1     -11.358  11.683  63.537  1.00  0.00    -0.447 A  
HETATM    7  C   UNL     1     -10.181  12.323  63.917  1.00  0.00    -0.421 A  
HETATM    8  C   UNL     1     -12.577  12.099  64.068  1.00  0.00    -0.507 A  
HETATM    9  C   UNL     1     -12.619  13.159  64.979  1.00  0.00    -0.499 A  
ENDBRANCH   3   4
ENDBRANCH   2   3
BRANCH   2  10
HETATM   10  N   UNL     1      -9.536  15.962  67.531  1.00  0.00    -0.218 N  
HETATM   11  H   UNL     1      -9.897  16.896  67.721  1.00  0.00     0.000 HD 
HETATM   12  C   UNL     1      -8.186  15.822  67.292  1.00  0.00    -0.184 C  
HETATM   13  O   UNL     1      -7.627  14.740  67.136  1.00  0.00    -0.194 OA 
BRANCH  12  14
HETATM   14  C   UNL     1      -7.421  17.167  67.287  1.00  0.00    -0.160 C  
HETATM   15  N   UNL     1      -7.419  17.713  65.902  1.00  0.00    -0.506 NA 
HETATM   16  H2  UNL     1      -8.360  17.799  65.516  1.00  0.00     0.000 HD 
HETATM   17  H1  UNL     1      -6.915  18.599  65.898  1.00  0.00     0.000 HD 
BRANCH  14  18
HETATM   18  C   UNL     1      -8.069  18.197  68.223  1.00  0.00    -0.306 C  
BRANCH  18  19
HETATM   19  C   UNL     1      -8.246  19.568  67.561  1.00  0.00    -0.328 C  
BRANCH  19  20
HETATM   20  C   UNL     1      -9.670  20.103  67.746  1.00  0.00    -0.529 C  
BRANCH  20  21
HETATM   21  C   UNL     1     -10.705  19.077  67.284  1.00  0.00    -0.470 C  
HETATM   22  N   UNL     1     -10.433  18.666  65.911  1.00  0.00    -0.587 NA 
HETATM   23  H1  UNL     1     -11.123  17.982  65.602  1.00  0.00     0.000 HD 
HETATM   24  H2  UNL     1      -9.479  18.322  65.800  1.00  0.00     0.000 HD 
ENDBRANCH  20  21
ENDBRANCH  19  20
ENDBRANCH  18  19
ENDBRANCH  14  18
ENDBRANCH  12  14
ENDBRANCH   2  10
TORSDOF 8
ENDMDL
MODEL       72
REMARK 921   NORMALIZED FREE ENERGY PREDICTED BY IDOCK:   -4.90 KCAL/MOL
REMARK 922        TOTAL FREE ENERGY PREDICTED BY IDOCK:   -7.98 KCAL/MOL
REMARK 923 INTER-LIGAND FREE ENERGY PREDICTED BY IDOCK:   -7.57 KCAL/MOL
REMARK 924 INTRA-LIGAND FREE ENERGY PREDICTED BY IDOCK:   -0.41 KCAL/MOL
REMARK 927      BINDING AFFINITY PREDICTED BY RF-SCORE:    0.00 PKD
ROOT
HETATM    1  C   UNL     1     -14.209   9.042  71.393  1.00  0.00    -0.185 C  
HETATM    2  C   UNL     1     -12.826   9.628  71.674  1.00  0.00    -0.405 C  
ENDROOT
BRANCH   2   3
HETATM    3  C   UNL     1     -11.894   8.610  72.373  1.00  0.00    -0.402 C  
BRANCH   3   4
HETATM    4  C   UNL     1     -11.064   7.754  71.437  1.00  0.00    -0.268 A  
HETATM    5  C   UNL     1      -9.708   8.040  71.226  1.00  0.00    -0.199 A  
HETATM    6  C   UNL     1      -9.511   6.150  69.730  1.00  0.00    -0.168 A  
HETATM    7  C   UNL     1      -8.936   7.243  70.375  1.00  0.00    -0.151 A  
HETATM    8  C   UNL     1     -10.855   5.849  69.939  1.00  0.00    -0.439 A  
HETATM    9  C   UNL     1     -11.626   6.642  70.793  1.00  0.00    -0.432 A  
ENDBRANCH   3   4
ENDBRANCH   2   3
BRANCH   2  10
HETATM   10  N   UNL     1     -12.254  10.095  70.414  1.00  0.00    -0.425 N  
HETATM   11  H   UNL     1     -11.947   9.398  69.736  1.00  0.00     0.000 HD 
HETATM   12  C   UNL     1     -12.105  11.427  70.092  1.00  0.00    -0.357 C  
HETATM   13  O   UNL     1     -12.515  12.350  70.790  1.00  0.00    -0.349 OA 
BRANCH  12  14
HETATM   14  C   UNL     1     -11.409  11.654  68.729  1.00  0.00    -0.264 C  
HETATM   15  N   UNL     1     -11.605  10.446  67.881  1.00  0.00    -0.693 NA 
HETATM   16  H2  UNL     1     -12.589  10.198  67.779  1.00  0.00     0.000 HD 
HETATM   17  H1  UNL     1     -11.146  10.595  66.983  1.00  0.00     0.000 HD 
BRANCH  14  18
HETATM   18  C   UNL     1     -11.981  12.873  67.990  1.00  0.00    -0.323 C  
BRANCH  18  19
HETATM   19  C   UNL     1     -11.863  12.750  66.467  1.00  0.00    -0.471 C  
BRANCH  19  20
HETATM   20  C   UNL     1     -12.499  13.949  65.754  1.00  0.00    -0.530 C  
BRANCH  20  21
HETATM   21  C   UNL     1     -11.754  14.275  64.460  1.00  0.00    -0.418 C  
HETATM   22  N   UNL     1     -12.467  13.723  63.313  1.00  0.00    -1.092 NA 
HETATM   23  H1  UNL     1     -11.970  13.940  62.449  1.00  0.00     0.000 HD 
HETATM   24  H2  UNL     1     -13.437  14.035  63.282  1.00  0.00     0.000 HD 
ENDBRANCH  20  21
ENDBRANCH  19  20
ENDBRANCH  18  19
ENDBRANCH  14  18
ENDBRANCH  12  14
ENDBRANCH   2  10
TORSDOF 8
ENDMDL
MODEL       73
REMARK 921   NORMALIZED FREE ENERGY PREDICTED BY IDOCK:   -4.89 KCAL/MOL
REMARK 922        TOTAL FREE ENERGY PREDICTED BY IDOCK:   -7.97 KCAL/MOL
REMARK 923 INTER-LIGAND FREE ENERGY PREDICTED BY IDOCK:   -7.68 KCAL/MOL
REMARK 924 INTRA-LIGAND FREE ENERGY PREDICTED BY IDOCK:   -0.29 KCAL/MOL
REMARK 927      BINDING AFFINITY PREDICTED BY RF-SCORE:    0.00 PKD
ROOT
HETATM    1  C   UNL     1     -10.377  18.415  68.087  1.00  0.00    -0.393 C  
HETATM    2  C   UNL     1      -9.733  18.417  66.700  1.00  0.00    -0.337 C  
ENDROOT
BRANCH   2   3
HETATM    3  C   UNL     1      -8.226  18.071  66.757  1.00  0.00    -0.272 C  
BRANCH   3   4
HETATM    4  C   UNL     1      -7.369  19.066  67.514  1.00  0.00    -0.245 A  
HETATM    5  C   UNL     1      -6.838  18.736  68.770  1.00  0.00    -0.309 A  
HETATM    6  C   UNL     1      -5.751  20.892  68.910  1.00  0.00    -0.379 A  
HETATM    7  C   UNL     1      -6.034  19.646  69.464  1.00  0.00    -0.310 A  
HETATM    8  C   UNL     1      -6.264  21.228  67.659  1.00  0.00    -0.409 A  
HETATM    9  C   UNL     1      -7.064  20.318  66.963  1.00  0.00    -0.309 A  
ENDBRANCH   3   4
ENDBRANCH   2   3
BRANCH   2  10
HETATM   10  N   UNL     1     -10.462  17.481  65.848  1.00  0.00    -0.324 N  
HETATM   11  H   UNL     1     -11.042  17.862  65.100  1.00  0.00     0.000 HD 
HETATM   12  C   UNL     1     -10.409  16.113  65.998  1.00  0.00    -0.358 C  
HETATM   13  O   UNL     1      -9.682  15.541  66.805  1.00  0.00    -0.226 OA 
BRANCH  12  14
HETATM   14  C   UNL     1     -11.326  15.351  65.012  1.00  0.00    -0.333 C  
HETATM   15  N   UNL     1     -11.599  16.224  63.837  1.00  0.00    -1.573 NA 
HETATM   16  H2  UNL     1     -10.744  16.559  63.394  1.00  0.00     0.000 HD 
HETATM   17  H1  UNL     1     -12.204  15.723  63.187  1.00  0.00     0.000 HD 
BRANCH  14  18
HETATM   18  C   UNL     1     -10.680  14.049  64.519  1.00  0.00    -0.355 C  
BRANCH  18  19
HETATM   19  C   UNL     1     -11.398  12.798  65.038  1.00  0.00    -0.344 C  
BRANCH  19  20
HETATM   20  C   UNL     1     -12.489  13.156  66.053  1.00  0.00    -0.330 C  
BRANCH  20  21
HETATM   21  C   UNL     1     -11.992  12.956  67.485  1.00  0.00    -0.296 C  
HETATM   22  N   UNL     1     -12.259  14.146  68.284  1.00  0.00    -0.573 NA 
HETATM   23  H1  UNL     1     -11.927  14.013  69.239  1.00  0.00     0.000 HD 
HETATM   24  H2  UNL     1     -13.244  14.410  68.257  1.00  0.00     0.000 HD 
ENDBRANCH  20  21
ENDBRANCH  19  20
ENDBRANCH  18  19
ENDBRANCH  14  18
ENDBRANCH  12  14
ENDBRANCH   2  10
TORSDOF 8
ENDMDL
MODEL       74
REMARK 921   NORMALIZED FREE ENERGY PREDICTED BY IDOCK:   -4.88 KCAL/MOL
REMARK 922        TOTAL FREE ENERGY PREDICTED BY IDOCK:   -7.95 KCAL/MOL
REMARK 923 INTER-LIGAND FREE ENERGY PREDICTED BY IDOCK:   -7.29 KCAL/MOL
REMARK 924 INTRA-LIGAND FREE ENERGY PREDICTED BY IDOCK:   -0.66 KCAL/MOL
REMARK 927      BINDING AFFINITY PREDICTED BY RF-SCORE:    0.00 PKD
ROOT
HETATM    1  C   UNL     1     -11.471  15.826  69.968  1.00  0.00    -0.359 C  
HETATM    2  C   UNL     1     -11.039  15.112  68.687  1.00  0.00    -0.271 C  
ENDROOT
BRANCH   2   3
HETATM    3  C   UNL     1     -12.073  14.053  68.234  1.00  0.00    -0.312 C  
BRANCH   3   4
HETATM    4  C   UNL     1     -11.652  12.614  68.454  1.00  0.00    -0.370 A  
HETATM    5  C   UNL     1     -11.710  12.044  69.735  1.00  0.00    -0.390 A  
HETATM    6  C   UNL     1     -10.907   9.935  68.866  1.00  0.00    -0.239 A  
HETATM    7  C   UNL     1     -11.338  10.712  69.939  1.00  0.00    -0.386 A  
HETATM    8  C   UNL     1     -10.856  10.485  67.587  1.00  0.00    -0.355 A  
HETATM    9  C   UNL     1     -11.231  11.816  67.382  1.00  0.00    -0.357 A  
ENDBRANCH   3   4
ENDBRANCH   2   3
BRANCH   2  10
HETATM   10  N   UNL     1     -10.816  16.115  67.648  1.00  0.00    -0.317 N  
HETATM   11  H   UNL     1     -11.207  17.047  67.786  1.00  0.00     0.000 HD 
HETATM   12  C   UNL     1     -10.106  15.871  66.493  1.00  0.00    -0.282 C  
HETATM   13  O   UNL     1      -9.520  14.818  66.259  1.00  0.00    -0.283 OA 
BRANCH  12  14
HETATM   14  C   UNL     1     -10.074  17.078  65.525  1.00  0.00    -0.010 C  
HETATM   15  N   UNL     1     -11.045  16.837  64.423  1.00  0.00    -1.260 NA 
HETATM   16  H2  UNL     1     -11.985  16.639  64.768  1.00  0.00     0.000 HD 
HETATM   17  H1  UNL     1     -11.024  17.632  63.785  1.00  0.00     0.000 HD 
BRANCH  14  18
HETATM   18  C   UNL     1     -10.448  18.389  66.233  1.00  0.00    -0.421 C  
BRANCH  18  19
HETATM   19  C   UNL     1      -9.241  19.308  66.451  1.00  0.00    -0.386 C  
BRANCH  19  20
HETATM   20  C   UNL     1      -9.354  20.082  67.770  1.00  0.00    -0.467 C  
BRANCH  20  21
HETATM   21  C   UNL     1      -9.762  19.155  68.915  1.00  0.00    -0.414 C  
HETATM   22  N   UNL     1     -10.266  19.933  70.041  1.00  0.00    -0.412 NA 
HETATM   23  H1  UNL     1     -10.538  19.315  70.806  1.00  0.00     0.000 HD 
HETATM   24  H2  UNL     1     -11.027  20.553  69.764  1.00  0.00     0.000 HD 
ENDBRANCH  20  21
ENDBRANCH  19  20
ENDBRANCH  18  19
ENDBRANCH  14  18
ENDBRANCH  12  14
ENDBRANCH   2  10
TORSDOF 8
ENDMDL
MODEL       75
REMARK 921   NORMALIZED FREE ENERGY PREDICTED BY IDOCK:   -4.86 KCAL/MOL
REMARK 922        TOTAL FREE ENERGY PREDICTED BY IDOCK:   -7.92 KCAL/MOL
REMARK 923 INTER-LIGAND FREE ENERGY PREDICTED BY IDOCK:   -7.13 KCAL/MOL
REMARK 924 INTRA-LIGAND FREE ENERGY PREDICTED BY IDOCK:   -0.78 KCAL/MOL
REMARK 927      BINDING AFFINITY PREDICTED BY RF-SCORE:    0.00 PKD
ROOT
HETATM    1  C   UNL     1     -12.805  14.734  70.644  1.00  0.00    -0.398 C  
HETATM    2  C   UNL     1     -12.182  13.763  69.642  1.00  0.00    -0.305 C  
ENDROOT
BRANCH   2   3
HETATM    3  C   UNL     1     -10.974  14.386  68.902  1.00  0.00    -0.269 C  
BRANCH   3   4
HETATM    4  C   UNL     1     -11.175  14.598  67.415  1.00  0.00    -0.351 A  
HETATM    5  C   UNL     1     -12.160  13.882  66.720  1.00  0.00    -0.476 A  
HETATM    6  C   UNL     1     -11.576  15.012  64.663  1.00  0.00    -0.386 A  
HETATM    7  C   UNL     1     -12.358  14.087  65.351  1.00  0.00    -0.495 A  
HETATM    8  C   UNL     1     -10.601  15.738  65.344  1.00  0.00    -0.441 A  
HETATM    9  C   UNL     1     -10.405  15.537  66.713  1.00  0.00    -0.288 A  
ENDBRANCH   3   4
ENDBRANCH   2   3
BRANCH   2  10
HETATM   10  N   UNL     1     -11.801  12.544  70.350  1.00  0.00    -0.550 N  
HETATM   11  H   UNL     1     -11.480  12.627  71.314  1.00  0.00     0.000 HD 
HETATM   12  C   UNL     1     -11.852  11.287  69.787  1.00  0.00    -0.364 C  
HETATM   13  O   UNL     1     -12.300  11.057  68.667  1.00  0.00    -0.539 OA 
BRANCH  12  14
HETATM   14  C   UNL     1     -11.329  10.173  70.724  1.00  0.00    -0.354 C  
HETATM   15  N   UNL     1     -12.274   9.024  70.679  1.00  0.00    -0.487 NA 
HETATM   16  H2  UNL     1     -12.436   8.689  69.729  1.00  0.00     0.000 HD 
HETATM   17  H1  UNL     1     -11.930   8.290  71.297  1.00  0.00     0.000 HD 
BRANCH  14  18
HETATM   18  C   UNL     1      -9.935   9.681  70.306  1.00  0.00    -0.326 C  
BRANCH  18  19
HETATM   19  C   UNL     1      -9.979   8.341  69.563  1.00  0.00    -0.187 C  
BRANCH  19  20
HETATM   20  C   UNL     1      -9.688   8.516  68.069  1.00  0.00    -0.180 C  
BRANCH  20  21
HETATM   21  C   UNL     1     -10.562   7.585  67.228  1.00  0.00    -0.324 C  
HETATM   22  N   UNL     1      -9.803   7.063  66.097  1.00  0.00    -0.413 NA 
HETATM   23  H1  UNL     1     -10.386   6.443  65.536  1.00  0.00     0.000 HD 
HETATM   24  H2  UNL     1      -8.941   6.608  66.396  1.00  0.00     0.000 HD 
ENDBRANCH  20  21
ENDBRANCH  19  20
ENDBRANCH  18  19
ENDBRANCH  14  18
ENDBRANCH  12  14
ENDBRANCH   2  10
TORSDOF 8
ENDMDL
MODEL       76
REMARK 921   NORMALIZED FREE ENERGY PREDICTED BY IDOCK:   -4.84 KCAL/MOL
REMARK 922        TOTAL FREE ENERGY PREDICTED BY IDOCK:   -7.89 KCAL/MOL
REMARK 923 INTER-LIGAND FREE ENERGY PREDICTED BY IDOCK:   -7.08 KCAL/MOL
REMARK 924 INTRA-LIGAND FREE ENERGY PREDICTED BY IDOCK:   -0.81 KCAL/MOL
REMARK 927      BINDING AFFINITY PREDICTED BY RF-SCORE:    0.00 PKD
ROOT
HETATM    1  C   UNL     1     -12.055  14.812  70.073  1.00  0.00    -0.380 C  
HETATM    2  C   UNL     1     -11.836  13.566  69.216  1.00  0.00    -0.341 C  
ENDROOT
BRANCH   2   3
HETATM    3  C   UNL     1     -10.752  13.788  68.133  1.00  0.00    -0.258 C  
BRANCH   3   4
HETATM    4  C   UNL     1     -11.250  13.712  66.704  1.00  0.00    -0.324 A  
HETATM    5  C   UNL     1     -11.318  14.868  65.912  1.00  0.00    -0.306 A  
HETATM    6  C   UNL     1     -12.139  13.574  64.041  1.00  0.00    -0.494 A  
HETATM    7  C   UNL     1     -11.762  14.798  64.588  1.00  0.00    -0.426 A  
HETATM    8  C   UNL     1     -12.066  12.417  64.814  1.00  0.00    -0.483 A  
HETATM    9  C   UNL     1     -11.618  12.485  66.136  1.00  0.00    -0.448 A  
ENDBRANCH   3   4
ENDBRANCH   2   3
BRANCH   2  10
HETATM   10  N   UNL     1     -11.490  12.451  70.094  1.00  0.00    -0.520 N  
HETATM   11  H   UNL     1     -10.966  12.653  70.945  1.00  0.00     0.000 HD 
HETATM   12  C   UNL     1     -11.832  11.142  69.834  1.00  0.00    -0.363 C  
HETATM   13  O   UNL     1     -12.531  10.792  68.888  1.00  0.00    -0.377 OA 
BRANCH  12  14
HETATM   14  C   UNL     1     -11.286  10.145  70.885  1.00  0.00    -0.340 C  
HETATM   15  N   UNL     1     -12.370   9.827  71.854  1.00  0.00    -0.368 NA 
HETATM   16  H2  UNL     1     -13.215   9.485  71.395  1.00  0.00     0.000 HD 
HETATM   17  H1  UNL     1     -12.011   9.171  72.547  1.00  0.00     0.000 HD 
BRANCH  14  18
HETATM   18  C   UNL     1     -10.804   8.839  70.238  1.00  0.00    -0.252 C  
BRANCH  18  19
HETATM   19  C   UNL     1     -11.650   7.629  70.648  1.00  0.00    -0.251 C  
BRANCH  19  20
HETATM   20  C   UNL     1     -10.773   6.435  71.041  1.00  0.00    -0.301 C  
BRANCH  20  21
HETATM   21  C   UNL     1     -10.986   6.058  72.507  1.00  0.00    -0.260 C  
HETATM   22  N   UNL     1     -11.271   7.248  73.300  1.00  0.00    -0.587 NA 
HETATM   23  H1  UNL     1     -11.413   6.996  74.278  1.00  0.00     0.000 HD 
HETATM   24  H2  UNL     1     -12.060   7.774  72.924  1.00  0.00     0.000 HD 
ENDBRANCH  20  21
ENDBRANCH  19  20
ENDBRANCH  18  19
ENDBRANCH  14  18
ENDBRANCH  12  14
ENDBRANCH   2  10
TORSDOF 8
ENDMDL
MODEL       77
REMARK 921   NORMALIZED FREE ENERGY PREDICTED BY IDOCK:   -4.83 KCAL/MOL
REMARK 922        TOTAL FREE ENERGY PREDICTED BY IDOCK:   -7.88 KCAL/MOL
REMARK 923 INTER-LIGAND FREE ENERGY PREDICTED BY IDOCK:   -6.87 KCAL/MOL
REMARK 924 INTRA-LIGAND FREE ENERGY PREDICTED BY IDOCK:   -1.01 KCAL/MOL
REMARK 927      BINDING AFFINITY PREDICTED BY RF-SCORE:    0.00 PKD
ROOT
HETATM    1  C   UNL     1     -11.828  15.862  72.167  1.00  0.00    -0.615 C  
HETATM    2  C   UNL     1     -12.512  15.164  70.991  1.00  0.00    -0.357 C  
ENDROOT
BRANCH   2   3
HETATM    3  C   UNL     1     -11.998  15.685  69.627  1.00  0.00    -0.367 C  
BRANCH   3   4
HETATM    4  C   UNL     1     -11.327  14.642  68.756  1.00  0.00    -0.302 A  
HETATM    5  C   UNL     1     -12.070  13.925  67.805  1.00  0.00    -0.328 A  
HETATM    6  C   UNL     1     -10.085  12.730  67.112  1.00  0.00    -0.234 A  
HETATM    7  C   UNL     1     -11.451  12.974  66.989  1.00  0.00    -0.381 A  
HETATM    8  C   UNL     1      -9.334  13.443  68.045  1.00  0.00    -0.217 A  
HETATM    9  C   UNL     1      -9.951  14.397  68.858  1.00  0.00    -0.183 A  
ENDBRANCH   3   4
ENDBRANCH   2   3
BRANCH   2  10
HETATM   10  N   UNL     1     -12.307  13.724  71.122  1.00  0.00    -0.363 N  
HETATM   11  H   UNL     1     -11.508  13.305  70.647  1.00  0.00     0.000 HD 
HETATM   12  C   UNL     1     -13.136  12.900  71.853  1.00  0.00    -0.373 C  
HETATM   13  O   UNL     1     -14.075  13.302  72.533  1.00  0.00    -0.709 OA 
BRANCH  12  14
HETATM   14  C   UNL     1     -12.740  11.406  71.774  1.00  0.00    -0.254 C  
HETATM   15  N   UNL     1     -13.887  10.579  72.239  1.00  0.00    -0.318 NA 
HETATM   16  H2  UNL     1     -14.746  10.782  71.726  1.00  0.00     0.000 HD 
HETATM   17  H1  UNL     1     -13.627   9.595  72.187  1.00  0.00     0.000 HD 
BRANCH  14  18
HETATM   18  C   UNL     1     -12.377  10.985  70.342  1.00  0.00    -0.442 C  
BRANCH  18  19
HETATM   19  C   UNL     1     -11.717   9.603  70.281  1.00  0.00    -0.213 C  
BRANCH  19  20
HETATM   20  C   UNL     1     -10.804   9.361  71.489  1.00  0.00    -0.398 C  
BRANCH  20  21
HETATM   21  C   UNL     1     -11.128   8.028  72.162  1.00  0.00    -0.311 C  
HETATM   22  N   UNL     1     -12.570   7.878  72.322  1.00  0.00    -0.506 NA 
HETATM   23  H1  UNL     1     -12.786   6.989  72.772  1.00  0.00     0.000 HD 
HETATM   24  H2  UNL     1     -13.064   7.987  71.437  1.00  0.00     0.000 HD 
ENDBRANCH  20  21
ENDBRANCH  19  20
ENDBRANCH  18  19
ENDBRANCH  14  18
ENDBRANCH  12  14
ENDBRANCH   2  10
TORSDOF 8
ENDMDL
MODEL       78
REMARK 921   NORMALIZED FREE ENERGY PREDICTED BY IDOCK:   -4.83 KCAL/MOL
REMARK 922        TOTAL FREE ENERGY PREDICTED BY IDOCK:   -7.87 KCAL/MOL
REMARK 923 INTER-LIGAND FREE ENERGY PREDICTED BY IDOCK:   -6.95 KCAL/MOL
REMARK 924 INTRA-LIGAND FREE ENERGY PREDICTED BY IDOCK:   -0.92 KCAL/MOL
REMARK 927      BINDING AFFINITY PREDICTED BY RF-SCORE:    0.00 PKD
ROOT
HETATM    1  C   UNL     1     -11.813  13.731  69.713  1.00  0.00    -0.394 C  
HETATM    2  C   UNL     1     -11.244  13.970  68.315  1.00  0.00    -0.268 C  
ENDROOT
BRANCH   2   3
HETATM    3  C   UNL     1     -12.279  13.665  67.205  1.00  0.00    -0.340 C  
BRANCH   3   4
HETATM    4  C   UNL     1     -11.703  13.050  65.945  1.00  0.00    -0.442 A  
HETATM    5  C   UNL     1     -12.538  12.733  64.863  1.00  0.00    -0.541 A  
HETATM    6  C   UNL     1     -10.640  11.941  63.592  1.00  0.00    -0.500 A  
HETATM    7  C   UNL     1     -12.008  12.179  63.694  1.00  0.00    -0.628 A  
HETATM    8  C   UNL     1      -9.798  12.262  64.655  1.00  0.00    -0.126 A  
HETATM    9  C   UNL     1     -10.326  12.818  65.823  1.00  0.00    -0.297 A  
ENDBRANCH   3   4
ENDBRANCH   2   3
BRANCH   2  10
HETATM   10  N   UNL     1     -10.769  15.349  68.235  1.00  0.00    -0.252 N  
HETATM   11  H   UNL     1     -11.437  16.075  67.978  1.00  0.00     0.000 HD 
HETATM   12  C   UNL     1      -9.467  15.723  68.488  1.00  0.00    -0.201 C  
HETATM   13  O   UNL     1      -8.599  14.952  68.887  1.00  0.00    -0.169 OA 
BRANCH  12  14
HETATM   14  C   UNL     1      -9.207  17.232  68.266  1.00  0.00    -0.265 C  
HETATM   15  N   UNL     1      -8.067  17.390  67.322  1.00  0.00    -0.197 NA 
HETATM   16  H2  UNL     1      -8.214  16.888  66.446  1.00  0.00     0.000 HD 
HETATM   17  H1  UNL     1      -7.896  18.384  67.176  1.00  0.00     0.000 HD 
BRANCH  14  18
HETATM   18  C   UNL     1     -10.435  17.943  67.680  1.00  0.00    -0.406 C  
BRANCH  18  19
HETATM   19  C   UNL     1     -10.219  18.402  66.234  1.00  0.00    -0.427 C  
BRANCH  19  20
HETATM   20  C   UNL     1     -10.383  19.920  66.094  1.00  0.00    -0.604 C  
BRANCH  20  21
HETATM   21  C   UNL     1      -9.504  20.661  67.100  1.00  0.00    -0.365 C  
HETATM   22  N   UNL     1      -8.099  20.554  66.721  1.00  0.00    -0.526 NA 
HETATM   23  H1  UNL     1      -7.512  21.048  67.393  1.00  0.00     0.000 HD 
HETATM   24  H2  UNL     1      -7.938  20.875  65.767  1.00  0.00     0.000 HD 
ENDBRANCH  20  21
ENDBRANCH  19  20
ENDBRANCH  18  19
ENDBRANCH  14  18
ENDBRANCH  12  14
ENDBRANCH   2  10
TORSDOF 8
ENDMDL
MODEL       79
REMARK 921   NORMALIZED FREE ENERGY PREDICTED BY IDOCK:   -4.83 KCAL/MOL
REMARK 922        TOTAL FREE ENERGY PREDICTED BY IDOCK:   -7.87 KCAL/MOL
REMARK 923 INTER-LIGAND FREE ENERGY PREDICTED BY IDOCK:   -7.25 KCAL/MOL
REMARK 924 INTRA-LIGAND FREE ENERGY PREDICTED BY IDOCK:   -0.62 KCAL/MOL
REMARK 927      BINDING AFFINITY PREDICTED BY RF-SCORE:    0.00 PKD
ROOT
HETATM    1  C   UNL     1     -12.394  15.267  70.064  1.00  0.00    -0.366 C  
HETATM    2  C   UNL     1     -11.579  15.599  68.814  1.00  0.00    -0.384 C  
ENDROOT
BRANCH   2   3
HETATM    3  C   UNL     1     -10.420  16.579  69.117  1.00  0.00    -0.317 C  
BRANCH   3   4
HETATM    4  C   UNL     1     -10.331  17.772  68.187  1.00  0.00    -0.393 A  
HETATM    5  C   UNL     1      -9.971  19.035  68.681  1.00  0.00    -0.482 A  
HETATM    6  C   UNL     1     -10.130  19.983  66.462  1.00  0.00    -0.606 A  
HETATM    7  C   UNL     1      -9.873  20.134  67.823  1.00  0.00    -0.547 A  
HETATM    8  C   UNL     1     -10.478  18.732  65.956  1.00  0.00    -0.483 A  
HETATM    9  C   UNL     1     -10.572  17.632  66.813  1.00  0.00    -0.224 A  
ENDBRANCH   3   4
ENDBRANCH   2   3
BRANCH   2  10
HETATM   10  N   UNL     1     -11.083  14.352  68.237  1.00  0.00    -0.250 N  
HETATM   11  H   UNL     1     -10.346  13.851  68.732  1.00  0.00     0.000 HD 
HETATM   12  C   UNL     1     -11.557  13.815  67.060  1.00  0.00    -0.365 C  
HETATM   13  O   UNL     1     -12.498  14.282  66.424  1.00  0.00    -0.441 OA 
BRANCH  12  14
HETATM   14  C   UNL     1     -10.818  12.525  66.632  1.00  0.00    -0.246 C  
HETATM   15  N   UNL     1      -9.671  12.896  65.758  1.00  0.00    -0.423 NA 
HETATM   16  H2  UNL     1      -9.048  13.573  66.199  1.00  0.00     0.000 HD 
HETATM   17  H1  UNL     1      -9.183  12.046  65.475  1.00  0.00     0.000 HD 
BRANCH  14  18
HETATM   18  C   UNL     1     -10.283  11.744  67.841  1.00  0.00    -0.203 C  
BRANCH  18  19
HETATM   19  C   UNL     1     -11.281  10.703  68.360  1.00  0.00    -0.347 C  
BRANCH  19  20
HETATM   20  C   UNL     1     -10.729   9.952  69.578  1.00  0.00    -0.265 C  
BRANCH  20  21
HETATM   21  C   UNL     1     -11.688  10.054  70.764  1.00  0.00    -0.350 C  
HETATM   22  N   UNL     1     -13.068  10.119  70.297  1.00  0.00    -0.557 NA 
HETATM   23  H1  UNL     1     -13.707  10.187  71.088  1.00  0.00     0.000 HD 
HETATM   24  H2  UNL     1     -13.299   9.336  69.686  1.00  0.00     0.000 HD 
ENDBRANCH  20  21
ENDBRANCH  19  20
ENDBRANCH  18  19
ENDBRANCH  14  18
ENDBRANCH  12  14
ENDBRANCH   2  10
TORSDOF 8
ENDMDL
MODEL       80
REMARK 921   NORMALIZED FREE ENERGY PREDICTED BY IDOCK:   -4.81 KCAL/MOL
REMARK 922        TOTAL FREE ENERGY PREDICTED BY IDOCK:   -7.84 KCAL/MOL
REMARK 923 INTER-LIGAND FREE ENERGY PREDICTED BY IDOCK:   -6.50 KCAL/MOL
REMARK 924 INTRA-LIGAND FREE ENERGY PREDICTED BY IDOCK:   -1.35 KCAL/MOL
REMARK 927      BINDING AFFINITY PREDICTED BY RF-SCORE:    0.00 PKD
ROOT
HETATM    1  C   UNL     1      -8.014  11.170  68.616  1.00  0.00    -0.145 C  
HETATM    2  C   UNL     1      -8.919  12.091  67.799  1.00  0.00    -0.176 C  
ENDROOT
BRANCH   2   3
HETATM    3  C   UNL     1     -10.267  11.418  67.444  1.00  0.00    -0.221 C  
BRANCH   3   4
HETATM    4  C   UNL     1     -10.917  11.920  66.171  1.00  0.00    -0.352 A  
HETATM    5  C   UNL     1     -10.443  11.505  64.918  1.00  0.00    -0.345 A  
HETATM    6  C   UNL     1     -12.140  12.820  63.806  1.00  0.00    -0.596 A  
HETATM    7  C   UNL     1     -11.051  11.954  63.742  1.00  0.00    -0.510 A  
HETATM    8  C   UNL     1     -12.628  13.232  65.044  1.00  0.00    -0.483 A  
HETATM    9  C   UNL     1     -12.023  12.780  66.221  1.00  0.00    -0.460 A  
ENDBRANCH   3   4
ENDBRANCH   2   3
BRANCH   2  10
HETATM   10  N   UNL     1      -9.122  13.328  68.548  1.00  0.00    -0.352 N  
HETATM   11  H   UNL     1      -9.213  13.268  69.562  1.00  0.00     0.000 HD 
HETATM   12  C   UNL     1      -9.200  14.572  67.960  1.00  0.00    -0.190 C  
HETATM   13  O   UNL     1      -9.021  14.775  66.763  1.00  0.00    -0.244 OA 
BRANCH  12  14
HETATM   14  C   UNL     1      -9.489  15.710  68.968  1.00  0.00    -0.243 C  
HETATM   15  N   UNL     1      -8.436  16.753  68.830  1.00  0.00    -0.255 NA 
HETATM   16  H2  UNL     1      -8.349  17.094  67.872  1.00  0.00     0.000 HD 
HETATM   17  H1  UNL     1      -8.626  17.503  69.494  1.00  0.00     0.000 HD 
BRANCH  14  18
HETATM   18  C   UNL     1     -10.860  16.357  68.722  1.00  0.00    -0.338 C  
BRANCH  18  19
HETATM   19  C   UNL     1     -12.020  15.372  68.906  1.00  0.00    -0.298 C  
BRANCH  19  20
HETATM   20  C   UNL     1     -12.581  15.422  70.331  1.00  0.00    -0.433 C  
BRANCH  20  21
HETATM   21  C   UNL     1     -12.158  14.189  71.130  1.00  0.00    -0.314 C  
HETATM   22  N   UNL     1     -11.776  13.109  70.228  1.00  0.00    -0.541 NA 
HETATM   23  H1  UNL     1     -11.494  12.286  70.761  1.00  0.00     0.000 HD 
HETATM   24  H2  UNL     1     -11.054  13.401  69.569  1.00  0.00     0.000 HD 
ENDBRANCH  20  21
ENDBRANCH  19  20
ENDBRANCH  18  19
ENDBRANCH  14  18
ENDBRANCH  12  14
ENDBRANCH   2  10
TORSDOF 8
ENDMDL
MODEL       81
REMARK 921   NORMALIZED FREE ENERGY PREDICTED BY IDOCK:   -4.79 KCAL/MOL
REMARK 922        TOTAL FREE ENERGY PREDICTED BY IDOCK:   -7.82 KCAL/MOL
REMARK 923 INTER-LIGAND FREE ENERGY PREDICTED BY IDOCK:   -6.91 KCAL/MOL
REMARK 924 INTRA-LIGAND FREE ENERGY PREDICTED BY IDOCK:   -0.91 KCAL/MOL
REMARK 927      BINDING AFFINITY PREDICTED BY RF-SCORE:    0.00 PKD
ROOT
HETATM    1  C   UNL     1     -11.560  12.967  69.750  1.00  0.00    -0.286 C  
HETATM    2  C   UNL     1     -11.434  14.120  68.754  1.00  0.00    -0.299 C  
ENDROOT
BRANCH   2   3
HETATM    3  C   UNL     1     -12.379  15.295  69.102  1.00  0.00    -0.092 C  
BRANCH   3   4
HETATM    4  C   UNL     1     -12.682  15.458  70.578  1.00  0.00    -0.455 A  
HETATM    5  C   UNL     1     -13.876  14.960  71.118  1.00  0.00    -0.428 A  
HETATM    6  C   UNL     1     -13.235  15.726  73.321  1.00  0.00    -0.687 A  
HETATM    7  C   UNL     1     -14.152  15.095  72.482  1.00  0.00    -0.535 A  
HETATM    8  C   UNL     1     -12.040  16.215  72.799  1.00  0.00    -0.653 A  
HETATM    9  C   UNL     1     -11.762  16.077  71.436  1.00  0.00    -0.536 A  
ENDBRANCH   3   4
ENDBRANCH   2   3
BRANCH   2  10
HETATM   10  N   UNL     1     -10.039  14.552  68.716  1.00  0.00    -0.238 N  
HETATM   11  H   UNL     1      -9.455  14.369  69.532  1.00  0.00     0.000 HD 
HETATM   12  C   UNL     1      -9.469  15.193  67.638  1.00  0.00    -0.201 C  
HETATM   13  O   UNL     1     -10.048  15.389  66.573  1.00  0.00    -0.254 OA 
BRANCH  12  14
HETATM   14  C   UNL     1      -7.997  15.606  67.878  1.00  0.00    -0.142 C  
HETATM   15  N   UNL     1      -7.121  14.810  66.974  1.00  0.00    -0.338 NA 
HETATM   16  H2  UNL     1      -7.394  14.894  65.995  1.00  0.00     0.000 HD 
HETATM   17  H1  UNL     1      -6.151  15.082  67.133  1.00  0.00     0.000 HD 
BRANCH  14  18
HETATM   18  C   UNL     1      -7.769  17.098  67.597  1.00  0.00    -0.184 C  
BRANCH  18  19
HETATM   19  C   UNL     1      -8.495  18.006  68.597  1.00  0.00    -0.277 C  
BRANCH  19  20
HETATM   20  C   UNL     1      -9.453  18.970  67.888  1.00  0.00    -0.360 C  
BRANCH  20  21
HETATM   21  C   UNL     1      -9.299  18.878  66.370  1.00  0.00    -0.328 C  
HETATM   22  N   UNL     1     -10.495  18.294  65.774  1.00  0.00    -0.617 NA 
HETATM   23  H1  UNL     1     -10.392  18.232  64.761  1.00  0.00     0.000 HD 
HETATM   24  H2  UNL     1     -11.339  18.801  66.040  1.00  0.00     0.000 HD 
ENDBRANCH  20  21
ENDBRANCH  19  20
ENDBRANCH  18  19
ENDBRANCH  14  18
ENDBRANCH  12  14
ENDBRANCH   2  10
TORSDOF 8
ENDMDL
MODEL       82
REMARK 921   NORMALIZED FREE ENERGY PREDICTED BY IDOCK:   -4.79 KCAL/MOL
REMARK 922        TOTAL FREE ENERGY PREDICTED BY IDOCK:   -7.82 KCAL/MOL
REMARK 923 INTER-LIGAND FREE ENERGY PREDICTED BY IDOCK:   -7.28 KCAL/MOL
REMARK 924 INTRA-LIGAND FREE ENERGY PREDICTED BY IDOCK:   -0.55 KCAL/MOL
REMARK 927      BINDING AFFINITY PREDICTED BY RF-SCORE:    0.00 PKD
ROOT
HETATM    1  C   UNL     1      -8.966   9.761  69.915  1.00  0.00    -0.254 C  
HETATM    2  C   UNL     1     -10.423  10.183  69.735  1.00  0.00    -0.263 C  
ENDROOT
BRANCH   2   3
HETATM    3  C   UNL     1     -11.293   9.811  70.960  1.00  0.00    -0.460 C  
BRANCH   3   4
HETATM    4  C   UNL     1     -11.187   8.366  71.405  1.00  0.00    -0.316 A  
HETATM    5  C   UNL     1     -11.440   7.323  70.501  1.00  0.00    -0.310 A  
HETATM    6  C   UNL     1     -10.960   5.683  72.212  1.00  0.00    -0.312 A  
HETATM    7  C   UNL     1     -11.329   5.989  70.905  1.00  0.00    -0.299 A  
HETATM    8  C   UNL     1     -10.696   6.710  73.117  1.00  0.00    -0.306 A  
HETATM    9  C   UNL     1     -10.803   8.043  72.714  1.00  0.00    -0.438 A  
ENDBRANCH   3   4
ENDBRANCH   2   3
BRANCH   2  10
HETATM   10  N   UNL     1     -10.463  11.619  69.472  1.00  0.00    -0.429 N  
HETATM   11  H   UNL     1      -9.747  12.207  69.898  1.00  0.00     0.000 HD 
HETATM   12  C   UNL     1     -11.415  12.223  68.679  1.00  0.00    -0.307 C  
HETATM   13  O   UNL     1     -12.270  11.609  68.048  1.00  0.00    -0.551 OA 
BRANCH  12  14
HETATM   14  C   UNL     1     -11.275  13.763  68.617  1.00  0.00    -0.278 C  
HETATM   15  N   UNL     1     -12.398  14.316  67.811  1.00  0.00    -0.578 NA 
HETATM   16  H2  UNL     1     -13.310  14.021  68.160  1.00  0.00     0.000 HD 
HETATM   17  H1  UNL     1     -12.306  15.330  67.770  1.00  0.00     0.000 HD 
BRANCH  14  18
HETATM   18  C   UNL     1     -11.313  14.397  70.015  1.00  0.00    -0.253 C  
BRANCH  18  19
HETATM   19  C   UNL     1     -12.490  13.897  70.859  1.00  0.00    -0.447 C  
BRANCH  19  20
HETATM   20  C   UNL     1     -13.090  15.021  71.711  1.00  0.00    -0.442 C  
BRANCH  20  21
HETATM   21  C   UNL     1     -12.711  14.855  73.183  1.00  0.00    -0.489 C  
HETATM   22  N   UNL     1     -12.445  16.155  73.788  1.00  0.00    -0.547 NA 
HETATM   23  H1  UNL     1     -12.191  16.043  74.770  1.00  0.00     0.000 HD 
HETATM   24  H2  UNL     1     -13.227  16.797  73.667  1.00  0.00     0.000 HD 
ENDBRANCH  20  21
ENDBRANCH  19  20
ENDBRANCH  18  19
ENDBRANCH  14  18
ENDBRANCH  12  14
ENDBRANCH   2  10
TORSDOF 8
ENDMDL
MODEL       83
REMARK 921   NORMALIZED FREE ENERGY PREDICTED BY IDOCK:   -4.78 KCAL/MOL
REMARK 922        TOTAL FREE ENERGY PREDICTED BY IDOCK:   -7.81 KCAL/MOL
REMARK 923 INTER-LIGAND FREE ENERGY PREDICTED BY IDOCK:   -7.07 KCAL/MOL
REMARK 924 INTRA-LIGAND FREE ENERGY PREDICTED BY IDOCK:   -0.74 KCAL/MOL
REMARK 927      BINDING AFFINITY PREDICTED BY RF-SCORE:    0.00 PKD
ROOT
HETATM    1  C   UNL     1      -8.210  11.303  68.580  1.00  0.00    -0.150 C  
HETATM    2  C   UNL     1      -9.708  11.260  68.281  1.00  0.00    -0.198 C  
ENDROOT
BRANCH   2   3
HETATM    3  C   UNL     1     -10.019  10.484  66.978  1.00  0.00    -0.244 C  
BRANCH   3   4
HETATM    4  C   UNL     1     -10.744  11.283  65.914  1.00  0.00    -0.291 A  
HETATM    5  C   UNL     1     -11.815  12.122  66.260  1.00  0.00    -0.320 A  
HETATM    6  C   UNL     1     -12.072  12.795  63.952  1.00  0.00    -0.562 A  
HETATM    7  C   UNL     1     -12.475  12.872  65.283  1.00  0.00    -0.552 A  
HETATM    8  C   UNL     1     -11.004  11.975  63.597  1.00  0.00    -0.517 A  
HETATM    9  C   UNL     1     -10.340  11.227  64.573  1.00  0.00    -0.381 A  
ENDBRANCH   3   4
ENDBRANCH   2   3
BRANCH   2  10
HETATM   10  N   UNL     1     -10.395  10.672  69.428  1.00  0.00    -0.280 N  
HETATM   11  H   UNL     1      -9.997   9.833  69.850  1.00  0.00     0.000 HD 
HETATM   12  C   UNL     1     -11.552  11.189  69.970  1.00  0.00    -0.338 C  
HETATM   13  O   UNL     1     -12.072  12.237  69.601  1.00  0.00    -0.279 OA 
BRANCH  12  14
HETATM   14  C   UNL     1     -12.115  10.339  71.135  1.00  0.00    -0.395 C  
HETATM   15  N   UNL     1     -13.403   9.728  70.704  1.00  0.00    -0.607 NA 
HETATM   16  H2  UNL     1     -13.310   9.192  69.841  1.00  0.00     0.000 HD 
HETATM   17  H1  UNL     1     -13.775   9.169  71.472  1.00  0.00     0.000 HD 
BRANCH  14  18
HETATM   18  C   UNL     1     -11.150   9.218  71.545  1.00  0.00    -0.443 C  
BRANCH  18  19
HETATM   19  C   UNL     1     -11.707   7.821  71.250  1.00  0.00    -0.311 C  
BRANCH  19  20
HETATM   20  C   UNL     1     -10.596   6.847  70.843  1.00  0.00    -0.243 C  
BRANCH  20  21
HETATM   21  C   UNL     1     -11.035   5.977  69.665  1.00  0.00    -0.400 C  
HETATM   22  N   UNL     1     -11.391   6.811  68.524  1.00  0.00    -0.560 NA 
HETATM   23  H1  UNL     1     -11.685   6.231  67.738  1.00  0.00     0.000 HD 
HETATM   24  H2  UNL     1     -10.635   7.446  68.266  1.00  0.00     0.000 HD 
ENDBRANCH  20  21
ENDBRANCH  19  20
ENDBRANCH  18  19
ENDBRANCH  14  18
ENDBRANCH  12  14
ENDBRANCH   2  10
TORSDOF 8
ENDMDL
MODEL       84
REMARK 921   NORMALIZED FREE ENERGY PREDICTED BY IDOCK:   -4.78 KCAL/MOL
REMARK 922        TOTAL FREE ENERGY PREDICTED BY IDOCK:   -7.80 KCAL/MOL
REMARK 923 INTER-LIGAND FREE ENERGY PREDICTED BY IDOCK:   -6.92 KCAL/MOL
REMARK 924 INTRA-LIGAND FREE ENERGY PREDICTED BY IDOCK:   -0.89 KCAL/MOL
REMARK 927      BINDING AFFINITY PREDICTED BY RF-SCORE:    0.00 PKD
ROOT
HETATM    1  C   UNL     1     -13.784   9.930  71.632  1.00  0.00    -0.243 C  
HETATM    2  C   UNL     1     -12.510  10.774  71.659  1.00  0.00    -0.275 C  
ENDROOT
BRANCH   2   3
HETATM    3  C   UNL     1     -11.313  10.041  71.006  1.00  0.00    -0.434 C  
BRANCH   3   4
HETATM    4  C   UNL     1     -11.221   8.561  71.317  1.00  0.00    -0.321 A  
HETATM    5  C   UNL     1     -11.342   7.610  70.293  1.00  0.00    -0.197 A  
HETATM    6  C   UNL     1     -11.018   5.815  71.881  1.00  0.00    -0.318 A  
HETATM    7  C   UNL     1     -11.243   6.244  70.575  1.00  0.00    -0.420 A  
HETATM    8  C   UNL     1     -10.885   6.750  72.906  1.00  0.00    -0.304 A  
HETATM    9  C   UNL     1     -10.981   8.115  72.624  1.00  0.00    -0.440 A  
ENDBRANCH   3   4
ENDBRANCH   2   3
BRANCH   2  10
HETATM   10  N   UNL     1     -12.780  12.047  70.995  1.00  0.00    -0.304 N  
HETATM   11  H   UNL     1     -12.664  12.097  69.983  1.00  0.00     0.000 HD 
HETATM   12  C   UNL     1     -13.184  13.183  71.662  1.00  0.00    -0.346 C  
HETATM   13  O   UNL     1     -13.437  13.219  72.862  1.00  0.00    -0.560 OA 
BRANCH  12  14
HETATM   14  C   UNL     1     -13.335  14.416  70.738  1.00  0.00    -0.155 C  
HETATM   15  N   UNL     1     -14.390  15.307  71.295  1.00  0.00    -0.715 NA 
HETATM   16  H2  UNL     1     -14.208  15.567  72.264  1.00  0.00     0.000 HD 
HETATM   17  H1  UNL     1     -14.490  16.118  70.686  1.00  0.00     0.000 HD 
BRANCH  14  18
HETATM   18  C   UNL     1     -12.026  15.211  70.625  1.00  0.00    -0.371 C  
BRANCH  18  19
HETATM   19  C   UNL     1     -11.535  15.340  69.179  1.00  0.00    -0.330 C  
BRANCH  19  20
HETATM   20  C   UNL     1     -10.891  14.039  68.685  1.00  0.00    -0.272 C  
BRANCH  20  21
HETATM   21  C   UNL     1     -11.740  13.388  67.593  1.00  0.00    -0.359 C  
HETATM   22  N   UNL     1     -11.872  11.957  67.839  1.00  0.00    -0.552 NA 
HETATM   23  H1  UNL     1     -12.438  11.523  67.110  1.00  0.00     0.000 HD 
HETATM   24  H2  UNL     1     -12.238  11.764  68.771  1.00  0.00     0.000 HD 
ENDBRANCH  20  21
ENDBRANCH  19  20
ENDBRANCH  18  19
ENDBRANCH  14  18
ENDBRANCH  12  14
ENDBRANCH   2  10
TORSDOF 8
ENDMDL
MODEL       85
REMARK 921   NORMALIZED FREE ENERGY PREDICTED BY IDOCK:   -4.78 KCAL/MOL
REMARK 922        TOTAL FREE ENERGY PREDICTED BY IDOCK:   -7.80 KCAL/MOL
REMARK 923 INTER-LIGAND FREE ENERGY PREDICTED BY IDOCK:   -6.99 KCAL/MOL
REMARK 924 INTRA-LIGAND FREE ENERGY PREDICTED BY IDOCK:   -0.80 KCAL/MOL
REMARK 927      BINDING AFFINITY PREDICTED BY RF-SCORE:    0.00 PKD
ROOT
HETATM    1  C   UNL     1      -9.862   9.238  66.197  1.00  0.00    -0.363 C  
HETATM    2  C   UNL     1     -10.489   9.578  67.549  1.00  0.00    -0.275 C  
ENDROOT
BRANCH   2   3
HETATM    3  C   UNL     1      -9.627   9.076  68.733  1.00  0.00    -0.155 C  
BRANCH   3   4
HETATM    4  C   UNL     1     -10.403   8.420  69.857  1.00  0.00    -0.210 A  
HETATM    5  C   UNL     1     -11.034   7.183  69.658  1.00  0.00    -0.236 A  
HETATM    6  C   UNL     1     -11.817   7.180  71.946  1.00  0.00    -0.336 A  
HETATM    7  C   UNL     1     -11.739   6.568  70.697  1.00  0.00    -0.436 A  
HETATM    8  C   UNL     1     -11.185   8.404  72.160  1.00  0.00    -0.431 A  
HETATM    9  C   UNL     1     -10.478   9.017  71.123  1.00  0.00    -0.363 A  
ENDBRANCH   3   4
ENDBRANCH   2   3
BRANCH   2  10
HETATM   10  N   UNL     1     -10.696  11.022  67.616  1.00  0.00    -0.220 N  
HETATM   11  H   UNL     1     -10.070  11.624  67.082  1.00  0.00     0.000 HD 
HETATM   12  C   UNL     1     -11.691  11.616  68.362  1.00  0.00    -0.307 C  
HETATM   13  O   UNL     1     -12.553  10.991  68.974  1.00  0.00    -0.378 OA 
BRANCH  12  14
HETATM   14  C   UNL     1     -11.652  13.162  68.318  1.00  0.00    -0.335 C  
HETATM   15  N   UNL     1     -10.279  13.618  68.668  1.00  0.00    -0.305 NA 
HETATM   16  H2  UNL     1      -9.564  13.193  68.076  1.00  0.00     0.000 HD 
HETATM   17  H1  UNL     1     -10.252  14.636  68.639  1.00  0.00     0.000 HD 
BRANCH  14  18
HETATM   18  C   UNL     1     -12.011  13.704  66.927  1.00  0.00    -0.454 C  
BRANCH  18  19
HETATM   19  C   UNL     1     -10.831  14.400  66.240  1.00  0.00    -0.313 C  
BRANCH  19  20
HETATM   20  C   UNL     1     -10.518  13.766  64.880  1.00  0.00    -0.437 C  
BRANCH  20  21
HETATM   21  C   UNL     1     -11.734  13.020  64.330  1.00  0.00    -0.373 C  
HETATM   22  N   UNL     1     -12.280  13.723  63.175  1.00  0.00    -1.066 NA 
HETATM   23  H1  UNL     1     -13.092  13.226  62.809  1.00  0.00     0.000 HD 
HETATM   24  H2  UNL     1     -11.574  13.880  62.457  1.00  0.00     0.000 HD 
ENDBRANCH  20  21
ENDBRANCH  19  20
ENDBRANCH  18  19
ENDBRANCH  14  18
ENDBRANCH  12  14
ENDBRANCH   2  10
TORSDOF 8
ENDMDL
MODEL       86
REMARK 921   NORMALIZED FREE ENERGY PREDICTED BY IDOCK:   -4.77 KCAL/MOL
REMARK 922        TOTAL FREE ENERGY PREDICTED BY IDOCK:   -7.78 KCAL/MOL
REMARK 923 INTER-LIGAND FREE ENERGY PREDICTED BY IDOCK:   -6.98 KCAL/MOL
REMARK 924 INTRA-LIGAND FREE ENERGY PREDICTED BY IDOCK:   -0.80 KCAL/MOL
REMARK 927      BINDING AFFINITY PREDICTED BY RF-SCORE:    0.00 PKD
ROOT
HETATM    1  C   UNL     1      -8.480  11.475  68.262  1.00  0.00    -0.159 C  
HETATM    2  C   UNL     1      -9.951  11.279  67.897  1.00  0.00    -0.175 C  
ENDROOT
BRANCH   2   3
HETATM    3  C   UNL     1     -10.899  11.972  68.905  1.00  0.00    -0.252 C  
BRANCH   3   4
HETATM    4  C   UNL     1     -11.453  11.069  69.988  1.00  0.00    -0.398 A  
HETATM    5  C   UNL     1     -10.968   9.762  70.142  1.00  0.00    -0.339 A  
HETATM    6  C   UNL     1     -12.452   9.398  72.016  1.00  0.00    -0.440 A  
HETATM    7  C   UNL     1     -11.467   8.931  71.149  1.00  0.00    -0.364 A  
HETATM    8  C   UNL     1     -12.935  10.698  71.881  1.00  0.00    -0.542 A  
HETATM    9  C   UNL     1     -12.434  11.530  70.876  1.00  0.00    -0.464 A  
ENDBRANCH   3   4
ENDBRANCH   2   3
BRANCH   2  10
HETATM   10  N   UNL     1     -10.164  11.775  66.540  1.00  0.00    -0.204 N  
HETATM   11  H   UNL     1     -10.299  12.777  66.408  1.00  0.00     0.000 HD 
HETATM   12  C   UNL     1     -10.193  10.963  65.427  1.00  0.00    -0.277 C  
HETATM   13  O   UNL     1      -9.959   9.758  65.453  1.00  0.00    -0.320 OA 
BRANCH  12  14
HETATM   14  C   UNL     1     -10.504  11.727  64.117  1.00  0.00    -0.346 C  
HETATM   15  N   UNL     1     -10.293  10.809  62.964  1.00  0.00    -0.729 NA 
HETATM   16  H2  UNL     1     -10.831   9.947  63.049  1.00  0.00     0.000 HD 
HETATM   17  H1  UNL     1     -10.497  11.312  62.101  1.00  0.00     0.000 HD 
BRANCH  14  18
HETATM   18  C   UNL     1     -11.952  12.237  64.083  1.00  0.00    -0.518 C  
BRANCH  18  19
HETATM   19  C   UNL     1     -12.038  13.766  64.023  1.00  0.00    -0.448 C  
BRANCH  19  20
HETATM   20  C   UNL     1     -12.192  14.376  65.421  1.00  0.00    -0.362 C  
BRANCH  20  21
HETATM   21  C   UNL     1     -10.983  15.242  65.776  1.00  0.00    -0.338 C  
HETATM   22  N   UNL     1     -10.694  15.149  67.202  1.00  0.00    -0.303 NA 
HETATM   23  H1  UNL     1      -9.888  15.727  67.439  1.00  0.00     0.000 HD 
HETATM   24  H2  UNL     1     -10.571  14.182  67.503  1.00  0.00     0.000 HD 
ENDBRANCH  20  21
ENDBRANCH  19  20
ENDBRANCH  18  19
ENDBRANCH  14  18
ENDBRANCH  12  14
ENDBRANCH   2  10
TORSDOF 8
ENDMDL
MODEL       87
REMARK 921   NORMALIZED FREE ENERGY PREDICTED BY IDOCK:   -4.75 KCAL/MOL
REMARK 922        TOTAL FREE ENERGY PREDICTED BY IDOCK:   -7.76 KCAL/MOL
REMARK 923 INTER-LIGAND FREE ENERGY PREDICTED BY IDOCK:   -7.38 KCAL/MOL
REMARK 924 INTRA-LIGAND FREE ENERGY PREDICTED BY IDOCK:   -0.37 KCAL/MOL
REMARK 927      BINDING AFFINITY PREDICTED BY RF-SCORE:    0.00 PKD
ROOT
HETATM    1  C   UNL     1     -13.385  12.895  71.898  1.00  0.00    -0.530 C  
HETATM    2  C   UNL     1     -12.417  12.042  71.078  1.00  0.00    -0.276 C  
ENDROOT
BRANCH   2   3
HETATM    3  C   UNL     1     -12.820  10.548  71.071  1.00  0.00    -0.502 C  
BRANCH   3   4
HETATM    4  C   UNL     1     -11.746   9.592  71.549  1.00  0.00    -0.472 A  
HETATM    5  C   UNL     1     -12.045   8.601  72.495  1.00  0.00    -0.368 A  
HETATM    6  C   UNL     1      -9.767   7.794  72.414  1.00  0.00    -0.249 A  
HETATM    7  C   UNL     1     -11.060   7.708  72.926  1.00  0.00    -0.448 A  
HETATM    8  C   UNL     1      -9.459   8.767  71.466  1.00  0.00    -0.341 A  
HETATM    9  C   UNL     1     -10.445   9.658  71.032  1.00  0.00    -0.327 A  
ENDBRANCH   3   4
ENDBRANCH   2   3
BRANCH   2  10
HETATM   10  N   UNL     1     -12.353  12.583  69.723  1.00  0.00    -0.097 N  
HETATM   11  H   UNL     1     -12.788  12.050  68.970  1.00  0.00     0.000 HD 
HETATM   12  C   UNL     1     -11.736  13.773  69.405  1.00  0.00    -0.325 C  
HETATM   13  O   UNL     1     -11.255  14.538  70.236  1.00  0.00    -0.208 OA 
BRANCH  12  14
HETATM   14  C   UNL     1     -11.748  14.085  67.889  1.00  0.00    -0.362 C  
HETATM   15  N   UNL     1     -11.358  15.508  67.688  1.00  0.00    -0.301 NA 
HETATM   16  H2  UNL     1     -10.463  15.732  68.125  1.00  0.00     0.000 HD 
HETATM   17  H1  UNL     1     -11.366  15.713  66.690  1.00  0.00     0.000 HD 
BRANCH  14  18
HETATM   18  C   UNL     1     -10.770  13.191  67.114  1.00  0.00    -0.263 C  
BRANCH  18  19
HETATM   19  C   UNL     1     -11.482  12.152  66.242  1.00  0.00    -0.433 C  
BRANCH  19  20
HETATM   20  C   UNL     1     -12.462  12.813  65.265  1.00  0.00    -0.528 C  
BRANCH  20  21
HETATM   21  C   UNL     1     -12.036  12.573  63.816  1.00  0.00    -0.517 C  
HETATM   22  N   UNL     1     -12.988  11.694  63.147  1.00  0.00    -0.837 NA 
HETATM   23  H1  UNL     1     -12.703  11.533  62.181  1.00  0.00     0.000 HD 
HETATM   24  H2  UNL     1     -13.942  12.049  63.209  1.00  0.00     0.000 HD 
ENDBRANCH  20  21
ENDBRANCH  19  20
ENDBRANCH  18  19
ENDBRANCH  14  18
ENDBRANCH  12  14
ENDBRANCH   2  10
TORSDOF 8
ENDMDL
MODEL       88
REMARK 921   NORMALIZED FREE ENERGY PREDICTED BY IDOCK:   -4.74 KCAL/MOL
REMARK 922        TOTAL FREE ENERGY PREDICTED BY IDOCK:   -7.74 KCAL/MOL
REMARK 923 INTER-LIGAND FREE ENERGY PREDICTED BY IDOCK:   -6.97 KCAL/MOL
REMARK 924 INTRA-LIGAND FREE ENERGY PREDICTED BY IDOCK:   -0.77 KCAL/MOL
REMARK 927      BINDING AFFINITY PREDICTED BY RF-SCORE:    0.00 PKD
ROOT
HETATM    1  C   UNL     1     -12.456  13.608  70.360  1.00  0.00    -0.364 C  
HETATM    2  C   UNL     1     -11.891  12.521  69.447  1.00  0.00    -0.308 C  
ENDROOT
BRANCH   2   3
HETATM    3  C   UNL     1     -10.874  13.087  68.427  1.00  0.00    -0.280 C  
BRANCH   3   4
HETATM    4  C   UNL     1     -11.283  12.955  66.974  1.00  0.00    -0.329 A  
HETATM    5  C   UNL     1     -10.697  11.978  66.155  1.00  0.00    -0.312 A  
HETATM    6  C   UNL     1     -12.062  12.681  64.287  1.00  0.00    -0.502 A  
HETATM    7  C   UNL     1     -11.084  11.844  64.818  1.00  0.00    -0.367 A  
HETATM    8  C   UNL     1     -12.659  13.649  65.091  1.00  0.00    -0.474 A  
HETATM    9  C   UNL     1     -12.276  13.781  66.429  1.00  0.00    -0.480 A  
ENDBRANCH   3   4
ENDBRANCH   2   3
BRANCH   2  10
HETATM   10  N   UNL     1     -11.289  11.481  70.278  1.00  0.00    -0.491 N  
HETATM   11  H   UNL     1     -10.299  11.562  70.508  1.00  0.00     0.000 HD 
HETATM   12  C   UNL     1     -11.986  10.397  70.767  1.00  0.00    -0.363 C  
HETATM   13  O   UNL     1     -13.195  10.241  70.626  1.00  0.00    -0.354 OA 
BRANCH  12  14
HETATM   14  C   UNL     1     -11.101   9.407  71.561  1.00  0.00    -0.376 C  
HETATM   15  N   UNL     1     -11.941   8.261  72.005  1.00  0.00    -0.325 NA 
HETATM   16  H2  UNL     1     -12.428   7.812  71.229  1.00  0.00     0.000 HD 
HETATM   17  H1  UNL     1     -11.358   7.609  72.528  1.00  0.00     0.000 HD 
BRANCH  14  18
HETATM   18  C   UNL     1      -9.941   8.868  70.711  1.00  0.00    -0.282 C  
BRANCH  18  19
HETATM   19  C   UNL     1     -10.415   7.957  69.573  1.00  0.00    -0.226 C  
BRANCH  19  20
HETATM   20  C   UNL     1      -9.797   8.366  68.231  1.00  0.00    -0.189 C  
BRANCH  20  21
HETATM   21  C   UNL     1     -10.778   8.130  67.083  1.00  0.00    -0.194 C  
HETATM   22  N   UNL     1     -11.343   6.788  67.166  1.00  0.00    -0.755 NA 
HETATM   23  H1  UNL     1     -11.997   6.630  66.400  1.00  0.00     0.000 HD 
HETATM   24  H2  UNL     1     -11.772   6.612  68.075  1.00  0.00     0.000 HD 
ENDBRANCH  20  21
ENDBRANCH  19  20
ENDBRANCH  18  19
ENDBRANCH  14  18
ENDBRANCH  12  14
ENDBRANCH   2  10
TORSDOF 8
ENDMDL
MODEL       89
REMARK 921   NORMALIZED FREE ENERGY PREDICTED BY IDOCK:   -4.70 KCAL/MOL
REMARK 922        TOTAL FREE ENERGY PREDICTED BY IDOCK:   -7.69 KCAL/MOL
REMARK 923 INTER-LIGAND FREE ENERGY PREDICTED BY IDOCK:   -7.22 KCAL/MOL
REMARK 924 INTRA-LIGAND FREE ENERGY PREDICTED BY IDOCK:   -0.48 KCAL/MOL
REMARK 927      BINDING AFFINITY PREDICTED BY RF-SCORE:    0.00 PKD
ROOT
HETATM    1  C   UNL     1      -8.902   7.809  68.491  1.00  0.00    -0.130 C  
HETATM    2  C   UNL     1     -10.201   7.711  67.692  1.00  0.00    -0.214 C  
ENDROOT
BRANCH   2   3
HETATM    3  C   UNL     1     -11.058   6.495  68.120  1.00  0.00    -0.332 C  
BRANCH   3   4
HETATM    4  C   UNL     1     -11.015   6.171  69.600  1.00  0.00    -0.459 A  
HETATM    5  C   UNL     1     -10.201   5.134  70.078  1.00  0.00    -0.354 A  
HETATM    6  C   UNL     1     -10.905   5.587  72.347  1.00  0.00    -0.301 A  
HETATM    7  C   UNL     1     -10.149   4.843  71.445  1.00  0.00    -0.268 A  
HETATM    8  C   UNL     1     -11.709   6.627  71.886  1.00  0.00    -0.355 A  
HETATM    9  C   UNL     1     -11.760   6.921  70.521  1.00  0.00    -0.401 A  
ENDBRANCH   3   4
ENDBRANCH   2   3
BRANCH   2  10
HETATM   10  N   UNL     1     -10.939   8.962  67.848  1.00  0.00    -0.493 N  
HETATM   11  H   UNL     1     -11.628   9.026  68.596  1.00  0.00     0.000 HD 
HETATM   12  C   UNL     1     -10.754  10.062  67.038  1.00  0.00    -0.178 C  
HETATM   13  O   UNL     1      -9.896  10.131  66.163  1.00  0.00    -0.209 OA 
BRANCH  12  14
HETATM   14  C   UNL     1     -11.708  11.235  67.369  1.00  0.00    -0.027 C  
HETATM   15  N   UNL     1     -12.302  11.006  68.715  1.00  0.00    -0.731 NA 
HETATM   16  H2  UNL     1     -11.593  10.866  69.435  1.00  0.00     0.000 HD 
HETATM   17  H1  UNL     1     -12.931  11.778  68.933  1.00  0.00     0.000 HD 
BRANCH  14  18
HETATM   18  C   UNL     1     -10.975  12.584  67.377  1.00  0.00    -0.297 C  
BRANCH  18  19
HETATM   19  C   UNL     1     -11.668  13.639  66.507  1.00  0.00    -0.414 C  
BRANCH  19  20
HETATM   20  C   UNL     1     -12.510  12.992  65.401  1.00  0.00    -0.531 C  
BRANCH  20  21
HETATM   21  C   UNL     1     -11.810  13.101  64.046  1.00  0.00    -0.453 C  
HETATM   22  N   UNL     1     -12.193  14.339  63.377  1.00  0.00    -1.068 NA 
HETATM   23  H1  UNL     1     -11.726  14.411  62.473  1.00  0.00     0.000 HD 
HETATM   24  H2  UNL     1     -12.018  15.156  63.961  1.00  0.00     0.000 HD 
ENDBRANCH  20  21
ENDBRANCH  19  20
ENDBRANCH  18  19
ENDBRANCH  14  18
ENDBRANCH  12  14
ENDBRANCH   2  10
TORSDOF 8
ENDMDL
MODEL       90
REMARK 921   NORMALIZED FREE ENERGY PREDICTED BY IDOCK:   -4.70 KCAL/MOL
REMARK 922        TOTAL FREE ENERGY PREDICTED BY IDOCK:   -7.69 KCAL/MOL
REMARK 923 INTER-LIGAND FREE ENERGY PREDICTED BY IDOCK:   -7.53 KCAL/MOL
REMARK 924 INTRA-LIGAND FREE ENERGY PREDICTED BY IDOCK:   -0.16 KCAL/MOL
REMARK 927      BINDING AFFINITY PREDICTED BY RF-SCORE:    0.00 PKD
ROOT
HETATM    1  C   UNL     1      -9.280  12.886  67.457  1.00  0.00    -0.192 C  
HETATM    2  C   UNL     1     -10.759  12.622  67.734  1.00  0.00    -0.220 C  
ENDROOT
BRANCH   2   3
HETATM    3  C   UNL     1     -11.406  13.752  68.569  1.00  0.00    -0.318 C  
BRANCH   3   4
HETATM    4  C   UNL     1     -12.053  13.302  69.863  1.00  0.00    -0.377 A  
HETATM    5  C   UNL     1     -12.503  14.245  70.799  1.00  0.00    -0.428 A  
HETATM    6  C   UNL     1     -13.285  12.476  72.251  1.00  0.00    -0.425 A  
HETATM    7  C   UNL     1     -13.114  13.833  71.988  1.00  0.00    -0.485 A  
HETATM    8  C   UNL     1     -12.852  11.529  71.325  1.00  0.00    -0.463 A  
HETATM    9  C   UNL     1     -12.245  11.941  70.135  1.00  0.00    -0.319 A  
ENDBRANCH   3   4
ENDBRANCH   2   3
BRANCH   2  10
HETATM   10  N   UNL     1     -11.447  12.443  66.457  1.00  0.00    -0.350 N  
HETATM   11  H   UNL     1     -11.786  11.511  66.219  1.00  0.00     0.000 HD 
HETATM   12  C   UNL     1     -11.663  13.464  65.558  1.00  0.00    -0.340 C  
HETATM   13  O   UNL     1     -11.376  14.638  65.774  1.00  0.00    -0.335 OA 
BRANCH  12  14
HETATM   14  C   UNL     1     -12.351  12.998  64.253  1.00  0.00    -0.366 C  
HETATM   15  N   UNL     1     -12.280  14.097  63.252  1.00  0.00    -1.043 NA 
HETATM   16  H2  UNL     1     -11.325  14.419  63.094  1.00  0.00     0.000 HD 
HETATM   17  H1  UNL     1     -12.734  13.790  62.393  1.00  0.00     0.000 HD 
BRANCH  14  18
HETATM   18  C   UNL     1     -11.676  11.750  63.664  1.00  0.00    -0.517 C  
BRANCH  18  19
HETATM   19  C   UNL     1     -10.191  11.971  63.356  1.00  0.00    -0.457 C  
BRANCH  19  20
HETATM   20  C   UNL     1      -9.386  10.675  63.507  1.00  0.00    -0.319 C  
BRANCH  20  21
HETATM   21  C   UNL     1      -8.969  10.456  64.961  1.00  0.00    -0.195 C  
HETATM   22  N   UNL     1      -9.378   9.130  65.411  1.00  0.00    -0.380 NA 
HETATM   23  H1  UNL     1      -9.100   8.984  66.381  1.00  0.00     0.000 HD 
HETATM   24  H2  UNL     1      -9.025   8.395  64.799  1.00  0.00     0.000 HD 
ENDBRANCH  20  21
ENDBRANCH  19  20
ENDBRANCH  18  19
ENDBRANCH  14  18
ENDBRANCH  12  14
ENDBRANCH   2  10
TORSDOF 8
ENDMDL
MODEL       91
REMARK 921   NORMALIZED FREE ENERGY PREDICTED BY IDOCK:   -4.70 KCAL/MOL
REMARK 922        TOTAL FREE ENERGY PREDICTED BY IDOCK:   -7.69 KCAL/MOL
REMARK 923 INTER-LIGAND FREE ENERGY PREDICTED BY IDOCK:   -6.81 KCAL/MOL
REMARK 924 INTRA-LIGAND FREE ENERGY PREDICTED BY IDOCK:   -0.88 KCAL/MOL
REMARK 927      BINDING AFFINITY PREDICTED BY RF-SCORE:    0.00 PKD
ROOT
HETATM    1  C   UNL     1     -10.188  15.897  67.741  1.00  0.00    -0.260 C  
HETATM    2  C   UNL     1     -10.889  14.990  68.752  1.00  0.00    -0.249 C  
ENDROOT
BRANCH   2   3
HETATM    3  C   UNL     1     -12.147  15.657  69.357  1.00  0.00    -0.287 C  
BRANCH   3   4
HETATM    4  C   UNL     1     -12.366  15.390  70.833  1.00  0.00    -0.452 A  
HETATM    5  C   UNL     1     -11.765  16.210  71.800  1.00  0.00    -0.568 A  
HETATM    6  C   UNL     1     -12.793  14.924  73.572  1.00  0.00    -0.594 A  
HETATM    7  C   UNL     1     -11.976  15.976  73.162  1.00  0.00    -0.570 A  
HETATM    8  C   UNL     1     -13.404  14.110  72.621  1.00  0.00    -0.638 A  
HETATM    9  C   UNL     1     -13.196  14.345  71.260  1.00  0.00    -0.416 A  
ENDBRANCH   3   4
ENDBRANCH   2   3
BRANCH   2  10
HETATM   10  N   UNL     1     -11.219  13.728  68.095  1.00  0.00    -0.259 N  
HETATM   11  H   UNL     1     -12.159  13.612  67.718  1.00  0.00     0.000 HD 
HETATM   12  C   UNL     1     -10.329  12.685  67.957  1.00  0.00    -0.228 C  
HETATM   13  O   UNL     1      -9.150  12.742  68.294  1.00  0.00    -0.199 OA 
BRANCH  12  14
HETATM   14  C   UNL     1     -10.948  11.435  67.285  1.00  0.00    -0.282 C  
HETATM   15  N   UNL     1     -11.983  11.877  66.311  1.00  0.00    -0.503 NA 
HETATM   16  H2  UNL     1     -11.619  12.544  65.630  1.00  0.00     0.000 HD 
HETATM   17  H1  UNL     1     -12.392  11.054  65.868  1.00  0.00     0.000 HD 
BRANCH  14  18
HETATM   18  C   UNL     1      -9.893  10.604  66.541  1.00  0.00    -0.250 C  
BRANCH  18  19
HETATM   19  C   UNL     1      -9.975   9.110  66.874  1.00  0.00    -0.304 C  
BRANCH  19  20
HETATM   20  C   UNL     1     -10.251   8.880  68.364  1.00  0.00    -0.231 C  
BRANCH  20  21
HETATM   21  C   UNL     1      -8.962   8.975  69.181  1.00  0.00    -0.140 C  
HETATM   22  N   UNL     1      -9.065  10.042  70.169  1.00  0.00    -0.379 NA 
HETATM   23  H1  UNL     1      -8.205  10.105  70.713  1.00  0.00     0.000 HD 
HETATM   24  H2  UNL     1      -9.885   9.930  70.765  1.00  0.00     0.000 HD 
ENDBRANCH  20  21
ENDBRANCH  19  20
ENDBRANCH  18  19
ENDBRANCH  14  18
ENDBRANCH  12  14
ENDBRANCH   2  10
TORSDOF 8
ENDMDL
MODEL       92
REMARK 921   NORMALIZED FREE ENERGY PREDICTED BY IDOCK:   -4.68 KCAL/MOL
REMARK 922        TOTAL FREE ENERGY PREDICTED BY IDOCK:   -7.65 KCAL/MOL
REMARK 923 INTER-LIGAND FREE ENERGY PREDICTED BY IDOCK:   -6.94 KCAL/MOL
REMARK 924 INTRA-LIGAND FREE ENERGY PREDICTED BY IDOCK:   -0.71 KCAL/MOL
REMARK 927      BINDING AFFINITY PREDICTED BY RF-SCORE:    0.00 PKD
ROOT
HETATM    1  C   UNL     1     -14.125   7.577  71.470  1.00  0.00    -0.550 C  
HETATM    2  C   UNL     1     -13.005   8.596  71.682  1.00  0.00    -0.344 C  
ENDROOT
BRANCH   2   3
HETATM    3  C   UNL     1     -13.526   9.911  72.309  1.00  0.00    -0.397 C  
BRANCH   3   4
HETATM    4  C   UNL     1     -13.057  11.178  71.622  1.00  0.00    -0.529 A  
HETATM    5  C   UNL     1     -13.387  12.436  72.147  1.00  0.00    -0.508 A  
HETATM    6  C   UNL     1     -12.163  13.531  70.372  1.00  0.00    -0.426 A  
HETATM    7  C   UNL     1     -12.943  13.606  71.524  1.00  0.00    -0.443 A  
HETATM    8  C   UNL     1     -11.819  12.287  69.847  1.00  0.00    -0.383 A  
HETATM    9  C   UNL     1     -12.259  11.117  70.471  1.00  0.00    -0.475 A  
ENDBRANCH   3   4
ENDBRANCH   2   3
BRANCH   2  10
HETATM   10  N   UNL     1     -11.971   7.983  72.511  1.00  0.00    -0.520 N  
HETATM   11  H   UNL     1     -12.258   7.313  73.223  1.00  0.00     0.000 HD 
HETATM   12  C   UNL     1     -10.627   8.263  72.385  1.00  0.00    -0.337 C  
HETATM   13  O   UNL     1     -10.158   8.987  71.510  1.00  0.00    -0.301 OA 
BRANCH  12  14
HETATM   14  C   UNL     1      -9.748   7.535  73.429  1.00  0.00    -0.291 C  
HETATM   15  N   UNL     1     -10.629   6.751  74.337  1.00  0.00    -0.455 NA 
HETATM   16  H2  UNL     1     -11.240   6.111  73.829  1.00  0.00     0.000 HD 
HETATM   17  H1  UNL     1     -10.050   6.272  75.025  1.00  0.00     0.000 HD 
BRANCH  14  18
HETATM   18  C   UNL     1      -8.746   6.579  72.766  1.00  0.00    -0.126 C  
BRANCH  18  19
HETATM   19  C   UNL     1      -9.381   5.242  72.367  1.00  0.00    -0.157 C  
BRANCH  19  20
HETATM   20  C   UNL     1      -9.339   5.029  70.850  1.00  0.00    -0.204 C  
BRANCH  20  21
HETATM   21  C   UNL     1     -10.622   5.535  70.191  1.00  0.00    -0.297 C  
HETATM   22  N   UNL     1     -10.342   6.026  68.847  1.00  0.00    -0.194 NA 
HETATM   23  H1  UNL     1     -11.198   6.364  68.407  1.00  0.00     0.000 HD 
HETATM   24  H2  UNL     1      -9.873   5.324  68.275  1.00  0.00     0.000 HD 
ENDBRANCH  20  21
ENDBRANCH  19  20
ENDBRANCH  18  19
ENDBRANCH  14  18
ENDBRANCH  12  14
ENDBRANCH   2  10
TORSDOF 8
ENDMDL
MODEL       93
REMARK 921   NORMALIZED FREE ENERGY PREDICTED BY IDOCK:   -4.67 KCAL/MOL
REMARK 922        TOTAL FREE ENERGY PREDICTED BY IDOCK:   -7.64 KCAL/MOL
REMARK 923 INTER-LIGAND FREE ENERGY PREDICTED BY IDOCK:   -7.32 KCAL/MOL
REMARK 924 INTRA-LIGAND FREE ENERGY PREDICTED BY IDOCK:   -0.32 KCAL/MOL
REMARK 927      BINDING AFFINITY PREDICTED BY RF-SCORE:    0.00 PKD
ROOT
HETATM    1  C   UNL     1      -9.411   8.203  70.841  1.00  0.00    -0.186 C  
HETATM    2  C   UNL     1     -10.667   8.160  69.972  1.00  0.00    -0.243 C  
ENDROOT
BRANCH   2   3
HETATM    3  C   UNL     1     -11.213   6.721  69.809  1.00  0.00    -0.368 C  
BRANCH   3   4
HETATM    4  C   UNL     1     -10.859   5.770  70.935  1.00  0.00    -0.326 A  
HETATM    5  C   UNL     1     -11.439   5.922  72.203  1.00  0.00    -0.333 A  
HETATM    6  C   UNL     1     -10.234   3.991  73.019  1.00  0.00    -0.225 A  
HETATM    7  C   UNL     1     -11.126   5.038  73.239  1.00  0.00    -0.406 A  
HETATM    8  C   UNL     1      -9.659   3.823  71.761  1.00  0.00    -0.226 A  
HETATM    9  C   UNL     1      -9.975   4.704  70.723  1.00  0.00    -0.284 A  
ENDBRANCH   3   4
ENDBRANCH   2   3
BRANCH   2  10
HETATM   10  N   UNL     1     -11.670   9.046  70.559  1.00  0.00    -0.435 N  
HETATM   11  H   UNL     1     -12.301   8.661  71.261  1.00  0.00     0.000 HD 
HETATM   12  C   UNL     1     -11.810  10.373  70.215  1.00  0.00    -0.312 C  
HETATM   13  O   UNL     1     -11.055  10.964  69.448  1.00  0.00    -0.223 OA 
BRANCH  12  14
HETATM   14  C   UNL     1     -12.991  11.071  70.931  1.00  0.00    -0.224 C  
HETATM   15  N   UNL     1     -13.213  10.411  72.247  1.00  0.00    -0.569 NA 
HETATM   16  H2  UNL     1     -12.369  10.390  72.819  1.00  0.00     0.000 HD 
HETATM   17  H1  UNL     1     -13.992  10.870  72.718  1.00  0.00     0.000 HD 
BRANCH  14  18
HETATM   18  C   UNL     1     -12.715  12.563  71.168  1.00  0.00    -0.340 C  
BRANCH  18  19
HETATM   19  C   UNL     1     -13.613  13.165  72.254  1.00  0.00    -0.677 C  
BRANCH  19  20
HETATM   20  C   UNL     1     -14.209  14.507  71.813  1.00  0.00    -0.592 C  
BRANCH  20  21
HETATM   21  C   UNL     1     -13.295  15.667  72.208  1.00  0.00    -0.478 C  
HETATM   22  N   UNL     1     -13.494  16.013  73.611  1.00  0.00    -0.872 NA 
HETATM   23  H1  UNL     1     -12.885  16.788  73.874  1.00  0.00     0.000 HD 
HETATM   24  H2  UNL     1     -13.369  15.206  74.222  1.00  0.00     0.000 HD 
ENDBRANCH  20  21
ENDBRANCH  19  20
ENDBRANCH  18  19
ENDBRANCH  14  18
ENDBRANCH  12  14
ENDBRANCH   2  10
TORSDOF 8
ENDMDL
MODEL       94
REMARK 921   NORMALIZED FREE ENERGY PREDICTED BY IDOCK:   -4.67 KCAL/MOL
REMARK 922        TOTAL FREE ENERGY PREDICTED BY IDOCK:   -7.64 KCAL/MOL
REMARK 923 INTER-LIGAND FREE ENERGY PREDICTED BY IDOCK:   -7.11 KCAL/MOL
REMARK 924 INTRA-LIGAND FREE ENERGY PREDICTED BY IDOCK:   -0.53 KCAL/MOL
REMARK 927      BINDING AFFINITY PREDICTED BY RF-SCORE:    0.00 PKD
ROOT
HETATM    1  C   UNL     1     -11.142  11.092  67.448  1.00  0.00    -0.370 C  
HETATM    2  C   UNL     1     -11.967  11.906  68.444  1.00  0.00    -0.182 C  
ENDROOT
BRANCH   2   3
HETATM    3  C   UNL     1     -11.431  11.773  69.890  1.00  0.00    -0.285 C  
BRANCH   3   4
HETATM    4  C   UNL     1     -11.858  10.514  70.618  1.00  0.00    -0.458 A  
HETATM    5  C   UNL     1     -10.987   9.419  70.717  1.00  0.00    -0.371 A  
HETATM    6  C   UNL     1     -12.631   8.189  71.995  1.00  0.00    -0.366 A  
HETATM    7  C   UNL     1     -11.373   8.262  71.401  1.00  0.00    -0.309 A  
HETATM    8  C   UNL     1     -13.501   9.274  71.913  1.00  0.00    -0.497 A  
HETATM    9  C   UNL     1     -13.115  10.432  71.233  1.00  0.00    -0.494 A  
ENDBRANCH   3   4
ENDBRANCH   2   3
BRANCH   2  10
HETATM   10  N   UNL     1     -11.981  13.300  68.008  1.00  0.00    -0.345 N  
HETATM   11  H   UNL     1     -12.856  13.686  67.653  1.00  0.00     0.000 HD 
HETATM   12  C   UNL     1     -10.876  14.123  68.051  1.00  0.00    -0.246 C  
HETATM   13  O   UNL     1      -9.797  13.796  68.535  1.00  0.00    -0.226 OA 
BRANCH  12  14
HETATM   14  C   UNL     1     -11.138  15.532  67.467  1.00  0.00    -0.305 C  
HETATM   15  N   UNL     1     -10.729  16.552  68.472  1.00  0.00    -0.318 NA 
HETATM   16  H2  UNL     1      -9.764  16.431  68.778  1.00  0.00     0.000 HD 
HETATM   17  H1  UNL     1     -10.902  17.481  68.088  1.00  0.00     0.000 HD 
BRANCH  14  18
HETATM   18  C   UNL     1     -10.348  15.771  66.172  1.00  0.00    -0.333 C  
BRANCH  18  19
HETATM   19  C   UNL     1     -11.056  15.208  64.935  1.00  0.00    -0.425 C  
BRANCH  19  20
HETATM   20  C   UNL     1     -10.603  13.775  64.631  1.00  0.00    -0.443 C  
BRANCH  20  21
HETATM   21  C   UNL     1     -11.787  12.904  64.208  1.00  0.00    -0.395 C  
HETATM   22  N   UNL     1     -12.986  13.289  64.943  1.00  0.00    -0.740 NA 
HETATM   23  H1  UNL     1     -13.776  12.708  64.662  1.00  0.00     0.000 HD 
HETATM   24  H2  UNL     1     -13.191  14.283  64.843  1.00  0.00     0.000 HD 
ENDBRANCH  20  21
ENDBRANCH  19  20
ENDBRANCH  18  19
ENDBRANCH  14  18
ENDBRANCH  12  14
ENDBRANCH   2  10
TORSDOF 8
ENDMDL
MODEL       95
REMARK 921   NORMALIZED FREE ENERGY PREDICTED BY IDOCK:   -4.66 KCAL/MOL
REMARK 922        TOTAL FREE ENERGY PREDICTED BY IDOCK:   -7.63 KCAL/MOL
REMARK 923 INTER-LIGAND FREE ENERGY PREDICTED BY IDOCK:   -6.98 KCAL/MOL
REMARK 924 INTRA-LIGAND FREE ENERGY PREDICTED BY IDOCK:   -0.65 KCAL/MOL
REMARK 927      BINDING AFFINITY PREDICTED BY RF-SCORE:    0.00 PKD
ROOT
HETATM    1  C   UNL     1     -10.492  14.417  69.111  1.00  0.00    -0.199 C  
HETATM    2  C   UNL     1     -10.692  13.251  68.144  1.00  0.00    -0.249 C  
ENDROOT
BRANCH   2   3
HETATM    3  C   UNL     1     -10.052  13.523  66.762  1.00  0.00    -0.268 C  
BRANCH   3   4
HETATM    4  C   UNL     1     -10.807  12.946  65.582  1.00  0.00    -0.296 A  
HETATM    5  C   UNL     1     -12.209  12.900  65.588  1.00  0.00    -0.519 A  
HETATM    6  C   UNL     1     -12.216  11.909  63.382  1.00  0.00    -0.561 A  
HETATM    7  C   UNL     1     -12.909  12.382  64.494  1.00  0.00    -0.305 A  
HETATM    8  C   UNL     1     -10.824  11.959  63.359  1.00  0.00    -0.469 A  
HETATM    9  C   UNL     1     -10.124  12.480  64.450  1.00  0.00    -0.284 A  
ENDBRANCH   3   4
ENDBRANCH   2   3
BRANCH   2  10
HETATM   10  N   UNL     1     -10.145  12.041  68.755  1.00  0.00    -0.381 N  
HETATM   11  H   UNL     1      -9.293  12.124  69.309  1.00  0.00     0.000 HD 
HETATM   12  C   UNL     1     -10.718  10.795  68.623  1.00  0.00    -0.208 C  
HETATM   13  O   UNL     1     -11.785  10.589  68.053  1.00  0.00    -0.450 OA 
BRANCH  12  14
HETATM   14  C   UNL     1      -9.904   9.671  69.308  1.00  0.00    -0.189 C  
HETATM   15  N   UNL     1      -8.904  10.289  70.221  1.00  0.00    -0.272 NA 
HETATM   16  H2  UNL     1      -9.333  10.925  70.894  1.00  0.00     0.000 HD 
HETATM   17  H1  UNL     1      -8.368   9.549  70.672  1.00  0.00     0.000 HD 
BRANCH  14  18
HETATM   18  C   UNL     1     -10.803   8.731  70.125  1.00  0.00    -0.241 C  
BRANCH  18  19
HETATM   19  C   UNL     1     -11.390   9.407  71.368  1.00  0.00    -0.451 C  
BRANCH  19  20
HETATM   20  C   UNL     1     -11.970   8.379  72.347  1.00  0.00    -0.451 C  
BRANCH  20  21
HETATM   21  C   UNL     1     -13.401   8.003  71.962  1.00  0.00    -0.244 C  
HETATM   22  N   UNL     1     -14.351   8.916  72.586  1.00  0.00    -0.945 NA 
HETATM   23  H1  UNL     1     -15.305   8.664  72.330  1.00  0.00     0.000 HD 
HETATM   24  H2  UNL     1     -14.142   9.890  72.368  1.00  0.00     0.000 HD 
ENDBRANCH  20  21
ENDBRANCH  19  20
ENDBRANCH  18  19
ENDBRANCH  14  18
ENDBRANCH  12  14
ENDBRANCH   2  10
TORSDOF 8
ENDMDL
MODEL       96
REMARK 921   NORMALIZED FREE ENERGY PREDICTED BY IDOCK:   -4.65 KCAL/MOL
REMARK 922        TOTAL FREE ENERGY PREDICTED BY IDOCK:   -7.62 KCAL/MOL
REMARK 923 INTER-LIGAND FREE ENERGY PREDICTED BY IDOCK:   -7.03 KCAL/MOL
REMARK 924 INTRA-LIGAND FREE ENERGY PREDICTED BY IDOCK:   -0.59 KCAL/MOL
REMARK 927      BINDING AFFINITY PREDICTED BY RF-SCORE:    0.00 PKD
ROOT
HETATM    1  C   UNL     1     -10.546  17.915  67.355  1.00  0.00    -0.370 C  
HETATM    2  C   UNL     1      -9.811  17.379  66.127  1.00  0.00    -0.245 C  
ENDROOT
BRANCH   2   3
HETATM    3  C   UNL     1      -8.281  17.306  66.349  1.00  0.00    -0.317 C  
BRANCH   3   4
HETATM    4  C   UNL     1      -7.840  16.387  67.470  1.00  0.00    -0.167 A  
HETATM    5  C   UNL     1      -7.444  15.070  67.196  1.00  0.00    -0.145 A  
HETATM    6  C   UNL     1      -6.988  14.687  69.540  1.00  0.00    -0.165 A  
HETATM    7  C   UNL     1      -7.022  14.224  68.226  1.00  0.00    -0.108 A  
HETATM    8  C   UNL     1      -7.369  15.996  69.825  1.00  0.00     0.094 A  
HETATM    9  C   UNL     1      -7.787  16.844  68.795  1.00  0.00    -0.250 A  
ENDBRANCH   3   4
ENDBRANCH   2   3
BRANCH   2  10
HETATM   10  N   UNL     1     -10.362  16.068  65.791  1.00  0.00    -0.358 N  
HETATM   11  H   UNL     1     -10.118  15.276  66.384  1.00  0.00     0.000 HD 
HETATM   12  C   UNL     1     -11.194  15.844  64.715  1.00  0.00    -0.355 C  
HETATM   13  O   UNL     1     -11.623  16.733  63.985  1.00  0.00    -1.195 OA 
BRANCH  12  14
HETATM   14  C   UNL     1     -11.582  14.356  64.539  1.00  0.00    -0.384 C  
HETATM   15  N   UNL     1     -10.340  13.536  64.512  1.00  0.00    -0.557 NA 
HETATM   16  H2  UNL     1      -9.753  13.691  65.333  1.00  0.00     0.000 HD 
HETATM   17  H1  UNL     1     -10.595  12.556  64.396  1.00  0.00     0.000 HD 
BRANCH  14  18
HETATM   18  C   UNL     1     -12.477  13.859  65.683  1.00  0.00    -0.538 C  
BRANCH  18  19
HETATM   19  C   UNL     1     -11.824  12.739  66.501  1.00  0.00    -0.471 C  
BRANCH  19  20
HETATM   20  C   UNL     1     -11.575  13.172  67.950  1.00  0.00    -0.375 C  
BRANCH  20  21
HETATM   21  C   UNL     1     -11.783  12.003  68.914  1.00  0.00    -0.326 C  
HETATM   22  N   UNL     1     -11.913  10.753  68.174  1.00  0.00    -0.801 NA 
HETATM   23  H1  UNL     1     -12.052   9.974  68.817  1.00  0.00     0.000 HD 
HETATM   24  H2  UNL     1     -11.121  10.596  67.551  1.00  0.00     0.000 HD 
ENDBRANCH  20  21
ENDBRANCH  19  20
ENDBRANCH  18  19
ENDBRANCH  14  18
ENDBRANCH  12  14
ENDBRANCH   2  10
TORSDOF 8
ENDMDL
MODEL       97
REMARK 921   NORMALIZED FREE ENERGY PREDICTED BY IDOCK:   -4.65 KCAL/MOL
REMARK 922        TOTAL FREE ENERGY PREDICTED BY IDOCK:   -7.61 KCAL/MOL
REMARK 923 INTER-LIGAND FREE ENERGY PREDICTED BY IDOCK:   -7.34 KCAL/MOL
REMARK 924 INTRA-LIGAND FREE ENERGY PREDICTED BY IDOCK:   -0.27 KCAL/MOL
REMARK 927      BINDING AFFINITY PREDICTED BY RF-SCORE:    0.00 PKD
ROOT
HETATM    1  C   UNL     1      -9.995  18.170  69.127  1.00  0.00    -0.204 C  
HETATM    2  C   UNL     1     -10.759  17.687  67.894  1.00  0.00    -0.337 C  
ENDROOT
BRANCH   2   3
HETATM    3  C   UNL     1     -10.182  18.276  66.585  1.00  0.00    -0.399 C  
BRANCH   3   4
HETATM    4  C   UNL     1      -8.777  18.831  66.697  1.00  0.00    -0.306 A  
HETATM    5  C   UNL     1      -8.568  20.192  66.963  1.00  0.00    -0.408 A  
HETATM    6  C   UNL     1      -6.173  19.861  66.939  1.00  0.00    -0.197 A  
HETATM    7  C   UNL     1      -7.272  20.704  67.082  1.00  0.00    -0.389 A  
HETATM    8  C   UNL     1      -6.366  18.505  66.685  1.00  0.00    -0.206 A  
HETATM    9  C   UNL     1      -7.661  17.992  66.570  1.00  0.00    -0.279 A  
ENDBRANCH   3   4
ENDBRANCH   2   3
BRANCH   2  10
HETATM   10  N   UNL     1     -10.737  16.227  67.876  1.00  0.00    -0.321 N  
HETATM   11  H   UNL     1     -10.194  15.762  67.148  1.00  0.00     0.000 HD 
HETATM   12  C   UNL     1     -11.411  15.442  68.787  1.00  0.00    -0.320 C  
HETATM   13  O   UNL     1     -12.024  15.888  69.752  1.00  0.00    -0.332 OA 
BRANCH  12  14
HETATM   14  C   UNL     1     -11.281  13.926  68.505  1.00  0.00    -0.270 C  
HETATM   15  N   UNL     1     -11.654  13.176  69.736  1.00  0.00    -0.463 NA 
HETATM   16  H2  UNL     1     -12.579  13.430  70.082  1.00  0.00     0.000 HD 
HETATM   17  H1  UNL     1     -11.568  12.177  69.551  1.00  0.00     0.000 HD 
BRANCH  14  18
HETATM   18  C   UNL     1     -12.197  13.477  67.358  1.00  0.00    -0.278 C  
BRANCH  18  19
HETATM   19  C   UNL     1     -11.433  13.236  66.051  1.00  0.00    -0.360 C  
BRANCH  19  20
HETATM   20  C   UNL     1     -11.979  14.104  64.911  1.00  0.00    -0.424 C  
BRANCH  20  21
HETATM   21  C   UNL     1     -11.049  15.284  64.628  1.00  0.00    -0.332 C  
HETATM   22  N   UNL     1     -11.755  16.318  63.882  1.00  0.00    -1.518 NA 
HETATM   23  H1  UNL     1     -11.135  17.105  63.693  1.00  0.00     0.000 HD 
HETATM   24  H2  UNL     1     -12.609  16.612  64.355  1.00  0.00     0.000 HD 
ENDBRANCH  20  21
ENDBRANCH  19  20
ENDBRANCH  18  19
ENDBRANCH  14  18
ENDBRANCH  12  14
ENDBRANCH   2  10
TORSDOF 8
ENDMDL
MODEL       98
REMARK 921   NORMALIZED FREE ENERGY PREDICTED BY IDOCK:   -4.65 KCAL/MOL
REMARK 922        TOTAL FREE ENERGY PREDICTED BY IDOCK:   -7.61 KCAL/MOL
REMARK 923 INTER-LIGAND FREE ENERGY PREDICTED BY IDOCK:   -7.23 KCAL/MOL
REMARK 924 INTRA-LIGAND FREE ENERGY PREDICTED BY IDOCK:   -0.38 KCAL/MOL
REMARK 927      BINDING AFFINITY PREDICTED BY RF-SCORE:    0.00 PKD
ROOT
HETATM    1  C   UNL     1     -10.362   9.364  70.411  1.00  0.00    -0.318 C  
HETATM    2  C   UNL     1      -9.904   9.892  69.052  1.00  0.00    -0.190 C  
ENDROOT
BRANCH   2   3
HETATM    3  C   UNL     1     -10.640   9.199  67.880  1.00  0.00    -0.272 C  
BRANCH   3   4
HETATM    4  C   UNL     1      -9.927   9.270  66.545  1.00  0.00    -0.344 A  
HETATM    5  C   UNL     1     -10.240  10.280  65.623  1.00  0.00    -0.301 A  
HETATM    6  C   UNL     1      -8.585   9.429  64.080  1.00  0.00    -0.222 A  
HETATM    7  C   UNL     1      -9.573  10.357  64.397  1.00  0.00    -0.375 A  
HETATM    8  C   UNL     1      -8.256   8.427  64.991  1.00  0.00    -0.155 A  
HETATM    9  C   UNL     1      -8.919   8.352  66.219  1.00  0.00    -0.213 A  
ENDBRANCH   3   4
ENDBRANCH   2   3
BRANCH   2  10
HETATM   10  N   UNL     1     -10.102  11.339  69.024  1.00  0.00    -0.359 N  
HETATM   11  H   UNL     1      -9.278  11.939  69.009  1.00  0.00     0.000 HD 
HETATM   12  C   UNL     1     -11.343  11.938  69.017  1.00  0.00    -0.279 C  
HETATM   13  O   UNL     1     -12.401  11.320  68.948  1.00  0.00    -0.485 OA 
BRANCH  12  14
HETATM   14  C   UNL     1     -11.278  13.484  69.057  1.00  0.00    -0.269 C  
HETATM   15  N   UNL     1      -9.850  13.905  69.065  1.00  0.00    -0.428 NA 
HETATM   16  H2  UNL     1      -9.325  13.513  68.283  1.00  0.00     0.000 HD 
HETATM   17  H1  UNL     1      -9.807  14.923  69.091  1.00  0.00     0.000 HD 
BRANCH  14  18
HETATM   18  C   UNL     1     -11.972  14.117  67.842  1.00  0.00    -0.378 C  
BRANCH  18  19
HETATM   19  C   UNL     1     -11.460  13.558  66.510  1.00  0.00    -0.365 C  
BRANCH  19  20
HETATM   20  C   UNL     1     -10.837  14.656  65.641  1.00  0.00    -0.335 C  
BRANCH  20  21
HETATM   21  C   UNL     1     -11.787  15.067  64.515  1.00  0.00    -0.371 C  
HETATM   22  N   UNL     1     -11.431  16.387  64.009  1.00  0.00    -1.573 NA 
HETATM   23  H1  UNL     1     -12.064  16.662  63.258  1.00  0.00     0.000 HD 
HETATM   24  H2  UNL     1     -10.454  16.432  63.718  1.00  0.00     0.000 HD 
ENDBRANCH  20  21
ENDBRANCH  19  20
ENDBRANCH  18  19
ENDBRANCH  14  18
ENDBRANCH  12  14
ENDBRANCH   2  10
TORSDOF 8
ENDMDL
MODEL       99
REMARK 921   NORMALIZED FREE ENERGY PREDICTED BY IDOCK:   -4.64 KCAL/MOL
REMARK 922        TOTAL FREE ENERGY PREDICTED BY IDOCK:   -7.60 KCAL/MOL
REMARK 923 INTER-LIGAND FREE ENERGY PREDICTED BY IDOCK:   -7.07 KCAL/MOL
REMARK 924 INTRA-LIGAND FREE ENERGY PREDICTED BY IDOCK:   -0.53 KCAL/MOL
REMARK 927      BINDING AFFINITY PREDICTED BY RF-SCORE:    0.00 PKD
ROOT
HETATM    1  C   UNL     1     -13.303   9.757  71.096  1.00  0.00    -0.360 C  
HETATM    2  C   UNL     1     -11.903  10.340  71.280  1.00  0.00    -0.335 C  
ENDROOT
BRANCH   2   3
HETATM    3  C   UNL     1     -10.806   9.250  71.218  1.00  0.00    -0.417 C  
BRANCH   3   4
HETATM    4  C   UNL     1     -10.811   8.407  69.959  1.00  0.00    -0.225 A  
HETATM    5  C   UNL     1     -11.217   7.065  70.003  1.00  0.00    -0.310 A  
HETATM    6  C   UNL     1     -10.857   6.845  67.622  1.00  0.00    -0.333 A  
HETATM    7  C   UNL     1     -11.238   6.289  68.841  1.00  0.00    -0.387 A  
HETATM    8  C   UNL     1     -10.462   8.180  67.562  1.00  0.00    -0.326 A  
HETATM    9  C   UNL     1     -10.445   8.958  68.724  1.00  0.00    -0.223 A  
ENDBRANCH   3   4
ENDBRANCH   2   3
BRANCH   2  10
HETATM   10  N   UNL     1     -11.689  11.368  70.264  1.00  0.00    -0.429 N  
HETATM   11  H   UNL     1     -11.241  11.095  69.389  1.00  0.00     0.000 HD 
HETATM   12  C   UNL     1     -12.060  12.685  70.422  1.00  0.00    -0.300 C  
HETATM   13  O   UNL     1     -12.681  13.109  71.392  1.00  0.00    -0.357 OA 
BRANCH  12  14
HETATM   14  C   UNL     1     -11.660  13.583  69.227  1.00  0.00    -0.316 C  
HETATM   15  N   UNL     1     -10.544  14.474  69.649  1.00  0.00    -0.435 NA 
HETATM   16  H2  UNL     1      -9.752  13.954  70.028  1.00  0.00     0.000 HD 
HETATM   17  H1  UNL     1     -10.280  15.066  68.862  1.00  0.00     0.000 HD 
BRANCH  14  18
HETATM   18  C   UNL     1     -11.200  12.756  68.019  1.00  0.00    -0.310 C  
BRANCH  18  19
HETATM   19  C   UNL     1     -12.105  12.942  66.796  1.00  0.00    -0.335 C  
BRANCH  19  20
HETATM   20  C   UNL     1     -11.507  12.285  65.547  1.00  0.00    -0.408 C  
BRANCH  20  21
HETATM   21  C   UNL     1     -12.415  12.484  64.334  1.00  0.00    -0.446 C  
HETATM   22  N   UNL     1     -11.640  12.958  63.193  1.00  0.00    -0.816 NA 
HETATM   23  H1  UNL     1     -12.247  13.092  62.384  1.00  0.00     0.000 HD 
HETATM   24  H2  UNL     1     -10.857  12.340  62.983  1.00  0.00     0.000 HD 
ENDBRANCH  20  21
ENDBRANCH  19  20
ENDBRANCH  18  19
ENDBRANCH  14  18
ENDBRANCH  12  14
ENDBRANCH   2  10
TORSDOF 8
ENDMDL
MODEL      100
REMARK 921   NORMALIZED FREE ENERGY PREDICTED BY IDOCK:   -4.63 KCAL/MOL
REMARK 922        TOTAL FREE ENERGY PREDICTED BY IDOCK:   -7.59 KCAL/MOL
REMARK 923 INTER-LIGAND FREE ENERGY PREDICTED BY IDOCK:   -8.01 KCAL/MOL
REMARK 924 INTRA-LIGAND FREE ENERGY PREDICTED BY IDOCK:    0.43 KCAL/MOL
REMARK 927      BINDING AFFINITY PREDICTED BY RF-SCORE:    0.00 PKD
ROOT
HETATM    1  C   UNL     1     -10.120  13.795  68.637  1.00  0.00    -0.195 C  
HETATM    2  C   UNL     1     -11.637  13.965  68.699  1.00  0.00    -0.328 C  
ENDROOT
BRANCH   2   3
HETATM    3  C   UNL     1     -12.046  15.403  69.101  1.00  0.00    -0.270 C  
BRANCH   3   4
HETATM    4  C   UNL     1     -12.417  15.578  70.560  1.00  0.00    -0.472 A  
HETATM    5  C   UNL     1     -13.659  15.131  71.037  1.00  0.00    -0.473 A  
HETATM    6  C   UNL     1     -13.100  15.869  73.271  1.00  0.00    -0.694 A  
HETATM    7  C   UNL     1     -13.998  15.278  72.385  1.00  0.00    -0.642 A  
HETATM    8  C   UNL     1     -11.860  16.307  72.813  1.00  0.00    -0.565 A  
HETATM    9  C   UNL     1     -11.518  16.158  71.466  1.00  0.00    -0.412 A  
ENDBRANCH   3   4
ENDBRANCH   2   3
BRANCH   2  10
HETATM   10  N   UNL     1     -12.201  13.595  67.403  1.00  0.00    -0.374 N  
HETATM   11  H   UNL     1     -12.913  12.865  67.378  1.00  0.00     0.000 HD 
HETATM   12  C   UNL     1     -11.823  14.177  66.213  1.00  0.00    -0.411 C  
HETATM   13  O   UNL     1     -11.041  15.120  66.130  1.00  0.00    -0.339 OA 
BRANCH  12  14
HETATM   14  C   UNL     1     -12.520  13.558  64.978  1.00  0.00    -0.417 C  
HETATM   15  N   UNL     1     -12.419  14.512  63.840  1.00  0.00    -1.031 NA 
HETATM   16  H2  UNL     1     -11.456  14.787  63.646  1.00  0.00     0.000 HD 
HETATM   17  H1  UNL     1     -12.878  14.104  63.026  1.00  0.00     0.000 HD 
BRANCH  14  18
HETATM   18  C   UNL     1     -11.874  12.227  64.564  1.00  0.00    -0.441 C  
BRANCH  18  19
HETATM   19  C   UNL     1     -11.371  11.416  65.764  1.00  0.00    -0.077 C  
BRANCH  19  20
HETATM   20  C   UNL     1     -10.270  10.431  65.355  1.00  0.00    -0.329 C  
BRANCH  20  21
HETATM   21  C   UNL     1     -10.254   9.213  66.278  1.00  0.00    -0.187 C  
HETATM   22  N   UNL     1     -11.087   9.455  67.450  1.00  0.00    -0.357 NA 
HETATM   23  H1  UNL     1     -11.077   8.642  68.067  1.00  0.00     0.000 HD 
HETATM   24  H2  UNL     1     -12.037   9.725  67.193  1.00  0.00     0.000 HD 
ENDBRANCH  20  21
ENDBRANCH  19  20
ENDBRANCH  18  19
ENDBRANCH  14  18
ENDBRANCH  12  14
ENDBRANCH   2  10
TORSDOF 8
ENDMDL
MODEL      101
REMARK 921   NORMALIZED FREE ENERGY PREDICTED BY IDOCK:   -4.62 KCAL/MOL
REMARK 922        TOTAL FREE ENERGY PREDICTED BY IDOCK:   -7.57 KCAL/MOL
REMARK 923 INTER-LIGAND FREE ENERGY PREDICTED BY IDOCK:   -6.58 KCAL/MOL
REMARK 924 INTRA-LIGAND FREE ENERGY PREDICTED BY IDOCK:   -0.99 KCAL/MOL
REMARK 927      BINDING AFFINITY PREDICTED BY RF-SCORE:    0.00 PKD
ROOT
HETATM    1  C   UNL     1      -8.678  16.287  66.043  1.00  0.00    -0.285 C  
HETATM    2  C   UNL     1     -10.150  16.653  66.229  1.00  0.00    -0.328 C  
ENDROOT
BRANCH   2   3
HETATM    3  C   UNL     1     -11.017  16.210  65.026  1.00  0.00    -0.357 C  
BRANCH   3   4
HETATM    4  C   UNL     1     -11.246  14.716  64.918  1.00  0.00    -0.400 A  
HETATM    5  C   UNL     1     -12.530  14.179  65.093  1.00  0.00    -0.453 A  
HETATM    6  C   UNL     1     -11.686  11.950  64.686  1.00  0.00    -0.306 A  
HETATM    7  C   UNL     1     -12.747  12.802  64.979  1.00  0.00    -0.455 A  
HETATM    8  C   UNL     1     -10.407  12.472  64.499  1.00  0.00    -0.362 A  
HETATM    9  C   UNL     1     -10.190  13.848  64.609  1.00  0.00    -0.278 A  
ENDBRANCH   3   4
ENDBRANCH   2   3
BRANCH   2  10
HETATM   10  N   UNL     1     -10.624  16.057  67.475  1.00  0.00    -0.308 N  
HETATM   11  H   UNL     1     -10.902  15.075  67.465  1.00  0.00     0.000 HD 
HETATM   12  C   UNL     1     -10.717  16.747  68.664  1.00  0.00    -0.352 C  
HETATM   13  O   UNL     1     -10.332  17.902  68.817  1.00  0.00    -0.366 OA 
BRANCH  12  14
HETATM   14  C   UNL     1     -11.314  15.905  69.817  1.00  0.00    -0.347 C  
HETATM   15  N   UNL     1     -12.799  15.950  69.726  1.00  0.00    -0.555 NA 
HETATM   16  H2  UNL     1     -13.142  15.656  68.812  1.00  0.00     0.000 HD 
HETATM   17  H1  UNL     1     -13.193  15.396  70.486  1.00  0.00     0.000 HD 
BRANCH  14  18
HETATM   18  C   UNL     1     -10.860  14.439  69.750  1.00  0.00    -0.087 C  
BRANCH  18  19
HETATM   19  C   UNL     1     -12.034  13.462  69.621  1.00  0.00    -0.386 C  
BRANCH  19  20
HETATM   20  C   UNL     1     -11.826  12.484  68.459  1.00  0.00    -0.341 C  
BRANCH  20  21
HETATM   21  C   UNL     1     -10.353  12.098  68.325  1.00  0.00    -0.212 C  
HETATM   22  N   UNL     1     -10.024  11.021  69.251  1.00  0.00    -0.406 NA 
HETATM   23  H1  UNL     1      -9.041  10.764  69.161  1.00  0.00     0.000 HD 
HETATM   24  H2  UNL     1     -10.640  10.216  69.131  1.00  0.00     0.000 HD 
ENDBRANCH  20  21
ENDBRANCH  19  20
ENDBRANCH  18  19
ENDBRANCH  14  18
ENDBRANCH  12  14
ENDBRANCH   2  10
TORSDOF 8
ENDMDL
MODEL      102
REMARK 921   NORMALIZED FREE ENERGY PREDICTED BY IDOCK:   -4.62 KCAL/MOL
REMARK 922        TOTAL FREE ENERGY PREDICTED BY IDOCK:   -7.57 KCAL/MOL
REMARK 923 INTER-LIGAND FREE ENERGY PREDICTED BY IDOCK:   -7.32 KCAL/MOL
REMARK 924 INTRA-LIGAND FREE ENERGY PREDICTED BY IDOCK:   -0.25 KCAL/MOL
REMARK 927      BINDING AFFINITY PREDICTED BY RF-SCORE:    0.00 PKD
ROOT
HETATM    1  C   UNL     1     -10.468   8.983  71.803  1.00  0.00    -0.418 C  
HETATM    2  C   UNL     1     -11.697   8.224  71.304  1.00  0.00    -0.283 C  
ENDROOT
BRANCH   2   3
HETATM    3  C   UNL     1     -12.971   9.103  71.323  1.00  0.00    -0.307 C  
BRANCH   3   4
HETATM    4  C   UNL     1     -12.742  10.569  71.014  1.00  0.00    -0.504 A  
HETATM    5  C   UNL     1     -13.198  11.561  71.895  1.00  0.00    -0.479 A  
HETATM    6  C   UNL     1     -12.292  13.288  70.465  1.00  0.00    -0.389 A  
HETATM    7  C   UNL     1     -12.975  12.913  71.620  1.00  0.00    -0.410 A  
HETATM    8  C   UNL     1     -11.825  12.312  69.587  1.00  0.00    -0.393 A  
HETATM    9  C   UNL     1     -12.044  10.960  69.863  1.00  0.00    -0.428 A  
ENDBRANCH   3   4
ENDBRANCH   2   3
BRANCH   2  10
HETATM   10  N   UNL     1     -11.420   7.719  69.961  1.00  0.00    -0.470 N  
HETATM   11  H   UNL     1     -11.415   8.383  69.188  1.00  0.00     0.000 HD 
HETATM   12  C   UNL     1     -11.165   6.394  69.683  1.00  0.00    -0.418 C  
HETATM   13  O   UNL     1     -11.061   5.522  70.541  1.00  0.00    -0.202 OA 
BRANCH  12  14
HETATM   14  C   UNL     1     -10.971   6.110  68.174  1.00  0.00    -0.307 C  
HETATM   15  N   UNL     1     -10.997   7.402  67.435  1.00  0.00    -0.555 NA 
HETATM   16  H2  UNL     1     -10.316   8.071  67.796  1.00  0.00     0.000 HD 
HETATM   17  H1  UNL     1     -10.870   7.215  66.441  1.00  0.00     0.000 HD 
BRANCH  14  18
HETATM   18  C   UNL     1      -9.635   5.407  67.891  1.00  0.00    -0.152 C  
BRANCH  18  19
HETATM   19  C   UNL     1      -9.796   4.165  67.007  1.00  0.00    -0.190 C  
BRANCH  19  20
HETATM   20  C   UNL     1      -9.160   4.369  65.628  1.00  0.00    -0.137 C  
BRANCH  20  21
HETATM   21  C   UNL     1     -10.165   4.081  64.513  1.00  0.00    -0.210 C  
HETATM   22  N   UNL     1     -11.512   4.437  64.941  1.00  0.00    -1.068 NA 
HETATM   23  H1  UNL     1     -12.183   4.245  64.197  1.00  0.00     0.000 HD 
HETATM   24  H2  UNL     1     -11.567   5.404  65.261  1.00  0.00     0.000 HD 
ENDBRANCH  20  21
ENDBRANCH  19  20
ENDBRANCH  18  19
ENDBRANCH  14  18
ENDBRANCH  12  14
ENDBRANCH   2  10
TORSDOF 8
ENDMDL
MODEL      103
REMARK 921   NORMALIZED FREE ENERGY PREDICTED BY IDOCK:   -4.62 KCAL/MOL
REMARK 922        TOTAL FREE ENERGY PREDICTED BY IDOCK:   -7.57 KCAL/MOL
REMARK 923 INTER-LIGAND FREE ENERGY PREDICTED BY IDOCK:   -6.60 KCAL/MOL
REMARK 924 INTRA-LIGAND FREE ENERGY PREDICTED BY IDOCK:   -0.96 KCAL/MOL
REMARK 927      BINDING AFFINITY PREDICTED BY RF-SCORE:    0.00 PKD
ROOT
HETATM    1  C   UNL     1     -11.614  11.782  63.728  1.00  0.00    -0.508 C  
HETATM    2  C   UNL     1     -11.173  12.620  64.927  1.00  0.00    -0.297 C  
ENDROOT
BRANCH   2   3
HETATM    3  C   UNL     1     -11.994  13.925  65.059  1.00  0.00    -0.403 C  
BRANCH   3   4
HETATM    4  C   UNL     1     -11.404  14.961  65.995  1.00  0.00    -0.306 A  
HETATM    5  C   UNL     1     -10.593  15.991  65.495  1.00  0.00    -0.415 A  
HETATM    6  C   UNL     1     -10.333  16.906  67.719  1.00  0.00    -0.327 A  
HETATM    7  C   UNL     1     -10.060  16.957  66.354  1.00  0.00    -0.331 A  
HETATM    8  C   UNL     1     -11.145  15.894  68.226  1.00  0.00    -0.345 A  
HETATM    9  C   UNL     1     -11.682  14.930  67.368  1.00  0.00    -0.311 A  
ENDBRANCH   3   4
ENDBRANCH   2   3
BRANCH   2  10
HETATM   10  N   UNL     1     -11.279  11.801  66.132  1.00  0.00    -0.323 N  
HETATM   11  H   UNL     1     -12.170  11.345  66.328  1.00  0.00     0.000 HD 
HETATM   12  C   UNL     1     -10.241  11.610  67.018  1.00  0.00    -0.212 C  
HETATM   13  O   UNL     1      -9.104  12.037  66.842  1.00  0.00    -0.184 OA 
BRANCH  12  14
HETATM   14  C   UNL     1     -10.633  10.757  68.248  1.00  0.00    -0.200 C  
HETATM   15  N   UNL     1      -9.544  10.844  69.260  1.00  0.00    -0.407 NA 
HETATM   16  H2  UNL     1      -9.321  11.807  69.510  1.00  0.00     0.000 HD 
HETATM   17  H1  UNL     1      -9.802  10.281  70.070  1.00  0.00     0.000 HD 
BRANCH  14  18
HETATM   18  C   UNL     1     -11.941  11.243  68.888  1.00  0.00    -0.378 C  
BRANCH  18  19
HETATM   19  C   UNL     1     -11.904  11.193  70.420  1.00  0.00    -0.462 C  
BRANCH  19  20
HETATM   20  C   UNL     1     -12.863  10.132  70.971  1.00  0.00    -0.474 C  
BRANCH  20  21
HETATM   21  C   UNL     1     -12.128   9.150  71.883  1.00  0.00    -0.378 C  
HETATM   22  N   UNL     1     -10.708   9.115  71.549  1.00  0.00    -0.345 NA 
HETATM   23  H1  UNL     1     -10.218   8.459  72.156  1.00  0.00     0.000 HD 
HETATM   24  H2  UNL     1     -10.289  10.045  71.575  1.00  0.00     0.000 HD 
ENDBRANCH  20  21
ENDBRANCH  19  20
ENDBRANCH  18  19
ENDBRANCH  14  18
ENDBRANCH  12  14
ENDBRANCH   2  10
TORSDOF 8
ENDMDL
MODEL      104
REMARK 921   NORMALIZED FREE ENERGY PREDICTED BY IDOCK:   -4.62 KCAL/MOL
REMARK 922        TOTAL FREE ENERGY PREDICTED BY IDOCK:   -7.57 KCAL/MOL
REMARK 923 INTER-LIGAND FREE ENERGY PREDICTED BY IDOCK:   -6.66 KCAL/MOL
REMARK 924 INTRA-LIGAND FREE ENERGY PREDICTED BY IDOCK:   -0.90 KCAL/MOL
REMARK 927      BINDING AFFINITY PREDICTED BY RF-SCORE:    0.00 PKD
ROOT
HETATM    1  C   UNL     1      -9.445  10.520  69.066  1.00  0.00    -0.211 C  
HETATM    2  C   UNL     1     -10.725  10.458  69.900  1.00  0.00    -0.279 C  
ENDROOT
BRANCH   2   3
HETATM    3  C   UNL     1     -11.826  11.395  69.347  1.00  0.00    -0.419 C  
BRANCH   3   4
HETATM    4  C   UNL     1     -12.342  12.426  70.331  1.00  0.00    -0.307 A  
HETATM    5  C   UNL     1     -12.156  13.795  70.090  1.00  0.00    -0.429 A  
HETATM    6  C   UNL     1     -13.326  14.345  72.134  1.00  0.00    -0.486 A  
HETATM    7  C   UNL     1     -12.645  14.749  70.988  1.00  0.00    -0.401 A  
HETATM    8  C   UNL     1     -13.527  12.988  72.380  1.00  0.00    -0.615 A  
HETATM    9  C   UNL     1     -13.042  12.034  71.481  1.00  0.00    -0.362 A  
ENDBRANCH   3   4
ENDBRANCH   2   3
BRANCH   2  10
HETATM   10  N   UNL     1     -11.182   9.072  69.949  1.00  0.00    -0.411 N  
HETATM   11  H   UNL     1     -11.229   8.548  69.075  1.00  0.00     0.000 HD 
HETATM   12  C   UNL     1     -11.553   8.432  71.111  1.00  0.00    -0.279 C  
HETATM   13  O   UNL     1     -11.457   8.932  72.228  1.00  0.00    -0.348 OA 
BRANCH  12  14
HETATM   14  C   UNL     1     -12.064   6.989  70.881  1.00  0.00    -0.357 C  
HETATM   15  N   UNL     1     -11.774   6.595  69.475  1.00  0.00    -0.657 NA 
HETATM   16  H2  UNL     1     -10.788   6.701  69.236  1.00  0.00     0.000 HD 
HETATM   17  H1  UNL     1     -12.111   5.645  69.323  1.00  0.00     0.000 HD 
BRANCH  14  18
HETATM   18  C   UNL     1     -11.385   5.985  71.824  1.00  0.00    -0.324 C  
BRANCH  18  19
HETATM   19  C   UNL     1      -9.988   5.576  71.346  1.00  0.00    -0.241 C  
BRANCH  19  20
HETATM   20  C   UNL     1      -9.897   4.066  71.099  1.00  0.00    -0.236 C  
BRANCH  20  21
HETATM   21  C   UNL     1      -9.168   3.768  69.789  1.00  0.00    -0.143 C  
HETATM   22  N   UNL     1      -9.657   4.641  68.728  1.00  0.00    -0.154 NA 
HETATM   23  H1  UNL     1      -9.171   4.442  67.853  1.00  0.00     0.000 HD 
HETATM   24  H2  UNL     1      -9.590   5.626  68.985  1.00  0.00     0.000 HD 
ENDBRANCH  20  21
ENDBRANCH  19  20
ENDBRANCH  18  19
ENDBRANCH  14  18
ENDBRANCH  12  14
ENDBRANCH   2  10
TORSDOF 8
ENDMDL
MODEL      105
REMARK 921   NORMALIZED FREE ENERGY PREDICTED BY IDOCK:   -4.62 KCAL/MOL
REMARK 922        TOTAL FREE ENERGY PREDICTED BY IDOCK:   -7.56 KCAL/MOL
REMARK 923 INTER-LIGAND FREE ENERGY PREDICTED BY IDOCK:   -6.68 KCAL/MOL
REMARK 924 INTRA-LIGAND FREE ENERGY PREDICTED BY IDOCK:   -0.89 KCAL/MOL
REMARK 927      BINDING AFFINITY PREDICTED BY RF-SCORE:    0.00 PKD
ROOT
HETATM    1  C   UNL     1      -7.741  11.892  67.908  1.00  0.00    -0.131 C  
HETATM    2  C   UNL     1      -8.741  12.870  67.292  1.00  0.00    -0.204 C  
ENDROOT
BRANCH   2   3
HETATM    3  C   UNL     1     -10.185  12.315  67.312  1.00  0.00    -0.222 C  
BRANCH   3   4
HETATM    4  C   UNL     1     -10.867  12.253  65.960  1.00  0.00    -0.310 A  
HETATM    5  C   UNL     1     -10.264  11.576  64.890  1.00  0.00    -0.324 A  
HETATM    6  C   UNL     1     -12.139  12.105  63.458  1.00  0.00    -0.649 A  
HETATM    7  C   UNL     1     -10.897  11.504  63.645  1.00  0.00    -0.488 A  
HETATM    8  C   UNL     1     -12.754  12.772  64.516  1.00  0.00    -0.405 A  
HETATM    9  C   UNL     1     -12.124  12.841  65.761  1.00  0.00    -0.505 A  
ENDBRANCH   3   4
ENDBRANCH   2   3
BRANCH   2  10
HETATM   10  N   UNL     1      -8.649  14.141  68.004  1.00  0.00    -0.162 N  
HETATM   11  H   UNL     1      -8.474  14.119  69.009  1.00  0.00     0.000 HD 
HETATM   12  C   UNL     1      -8.786  15.369  67.394  1.00  0.00    -0.179 C  
HETATM   13  O   UNL     1      -8.913  15.521  66.183  1.00  0.00    -0.316 OA 
BRANCH  12  14
HETATM   14  C   UNL     1      -8.716  16.557  68.383  1.00  0.00    -0.218 C  
HETATM   15  N   UNL     1      -7.622  17.474  67.957  1.00  0.00    -0.213 NA 
HETATM   16  H2  UNL     1      -7.725  17.779  66.989  1.00  0.00     0.000 HD 
HETATM   17  H1  UNL     1      -7.576  18.256  68.609  1.00  0.00     0.000 HD 
BRANCH  14  18
HETATM   18  C   UNL     1     -10.032  17.346  68.424  1.00  0.00    -0.329 C  
BRANCH  18  19
HETATM   19  C   UNL     1      -9.814  18.863  68.414  1.00  0.00    -0.435 C  
BRANCH  19  20
HETATM   20  C   UNL     1     -10.774  19.564  67.445  1.00  0.00    -0.589 C  
BRANCH  20  21
HETATM   21  C   UNL     1     -10.090  19.850  66.108  1.00  0.00    -0.504 C  
HETATM   22  N   UNL     1      -8.655  20.021  66.299  1.00  0.00    -0.495 NA 
HETATM   23  H1  UNL     1      -8.199  20.213  65.407  1.00  0.00     0.000 HD 
HETATM   24  H2  UNL     1      -8.237  19.223  66.776  1.00  0.00     0.000 HD 
ENDBRANCH  20  21
ENDBRANCH  19  20
ENDBRANCH  18  19
ENDBRANCH  14  18
ENDBRANCH  12  14
ENDBRANCH   2  10
TORSDOF 8
ENDMDL
MODEL      106
REMARK 921   NORMALIZED FREE ENERGY PREDICTED BY IDOCK:   -4.61 KCAL/MOL
REMARK 922        TOTAL FREE ENERGY PREDICTED BY IDOCK:   -7.56 KCAL/MOL
REMARK 923 INTER-LIGAND FREE ENERGY PREDICTED BY IDOCK:   -6.54 KCAL/MOL
REMARK 924 INTRA-LIGAND FREE ENERGY PREDICTED BY IDOCK:   -1.02 KCAL/MOL
REMARK 927      BINDING AFFINITY PREDICTED BY RF-SCORE:    0.00 PKD
ROOT
HETATM    1  C   UNL     1     -12.012  15.042  64.219  1.00  0.00    -0.310 C  
HETATM    2  C   UNL     1     -12.249  14.207  65.476  1.00  0.00    -0.432 C  
ENDROOT
BRANCH   2   3
HETATM    3  C   UNL     1     -12.523  12.720  65.145  1.00  0.00    -0.565 C  
BRANCH   3   4
HETATM    4  C   UNL     1     -11.297  11.911  64.772  1.00  0.00    -0.344 A  
HETATM    5  C   UNL     1     -10.738  12.016  63.490  1.00  0.00    -0.513 A  
HETATM    6  C   UNL     1      -9.003  10.440  64.084  1.00  0.00    -0.251 A  
HETATM    7  C   UNL     1      -9.598  11.283  63.148  1.00  0.00    -0.391 A  
HETATM    8  C   UNL     1      -9.542  10.335  65.364  1.00  0.00    -0.310 A  
HETATM    9  C   UNL     1     -10.679  11.071  65.708  1.00  0.00    -0.216 A  
ENDBRANCH   3   4
ENDBRANCH   2   3
BRANCH   2  10
HETATM   10  N   UNL     1     -11.092  14.352  66.356  1.00  0.00    -0.320 N  
HETATM   11  H   UNL     1     -10.186  14.552  65.932  1.00  0.00     0.000 HD 
HETATM   12  C   UNL     1     -11.157  14.232  67.727  1.00  0.00    -0.280 C  
HETATM   13  O   UNL     1     -12.202  14.078  68.352  1.00  0.00    -0.332 OA 
BRANCH  12  14
HETATM   14  C   UNL     1      -9.779  14.360  68.420  1.00  0.00    -0.226 C  
HETATM   15  N   UNL     1      -8.714  14.324  67.382  1.00  0.00    -0.197 NA 
HETATM   16  H2  UNL     1      -8.852  15.029  66.657  1.00  0.00     0.000 HD 
HETATM   17  H1  UNL     1      -7.806  14.408  67.838  1.00  0.00     0.000 HD 
BRANCH  14  18
HETATM   18  C   UNL     1      -9.655  15.672  69.209  1.00  0.00    -0.268 C  
BRANCH  18  19
HETATM   19  C   UNL     1     -10.650  16.740  68.741  1.00  0.00    -0.348 C  
BRANCH  19  20
HETATM   20  C   UNL     1      -9.943  17.882  68.002  1.00  0.00    -0.333 C  
BRANCH  20  21
HETATM   21  C   UNL     1     -10.267  17.851  66.508  1.00  0.00    -0.379 C  
HETATM   22  N   UNL     1      -9.369  16.935  65.814  1.00  0.00    -0.528 NA 
HETATM   23  H1  UNL     1      -9.585  16.915  64.817  1.00  0.00     0.000 HD 
HETATM   24  H2  UNL     1      -9.384  16.003  66.226  1.00  0.00     0.000 HD 
ENDBRANCH  20  21
ENDBRANCH  19  20
ENDBRANCH  18  19
ENDBRANCH  14  18
ENDBRANCH  12  14
ENDBRANCH   2  10
TORSDOF 8
ENDMDL
MODEL      107
REMARK 921   NORMALIZED FREE ENERGY PREDICTED BY IDOCK:   -4.61 KCAL/MOL
REMARK 922        TOTAL FREE ENERGY PREDICTED BY IDOCK:   -7.56 KCAL/MOL
REMARK 923 INTER-LIGAND FREE ENERGY PREDICTED BY IDOCK:   -6.92 KCAL/MOL
REMARK 924 INTRA-LIGAND FREE ENERGY PREDICTED BY IDOCK:   -0.63 KCAL/MOL
REMARK 927      BINDING AFFINITY PREDICTED BY RF-SCORE:    0.00 PKD
ROOT
HETATM    1  C   UNL     1     -12.866  13.842  65.315  1.00  0.00    -0.430 C  
HETATM    2  C   UNL     1     -11.783  13.575  66.360  1.00  0.00    -0.369 C  
ENDROOT
BRANCH   2   3
HETATM    3  C   UNL     1     -10.517  12.939  65.737  1.00  0.00    -0.293 C  
BRANCH   3   4
HETATM    4  C   UNL     1     -10.312  11.473  66.060  1.00  0.00    -0.290 A  
HETATM    5  C   UNL     1     -10.803  10.933  67.258  1.00  0.00    -0.342 A  
HETATM    6  C   UNL     1      -9.964   8.747  66.652  1.00  0.00    -0.355 A  
HETATM    7  C   UNL     1     -10.628   9.577  67.552  1.00  0.00    -0.338 A  
HETATM    8  C   UNL     1      -9.481   9.269  65.454  1.00  0.00    -0.281 A  
HETATM    9  C   UNL     1      -9.658  10.623  65.157  1.00  0.00    -0.304 A  
ENDBRANCH   3   4
ENDBRANCH   2   3
BRANCH   2  10
HETATM   10  N   UNL     1     -11.470  14.831  67.037  1.00  0.00    -0.359 N  
HETATM   11  H   UNL     1     -11.132  15.611  66.474  1.00  0.00     0.000 HD 
HETATM   12  C   UNL     1     -11.605  15.019  68.395  1.00  0.00    -0.331 C  
HETATM   13  O   UNL     1     -12.081  14.183  69.158  1.00  0.00    -0.341 OA 
BRANCH  12  14
HETATM   14  C   UNL     1     -11.141  16.417  68.870  1.00  0.00    -0.328 C  
HETATM   15  N   UNL     1     -11.311  16.504  70.346  1.00  0.00    -0.484 NA 
HETATM   16  H2  UNL     1     -10.835  15.748  70.839  1.00  0.00     0.000 HD 
HETATM   17  H1  UNL     1     -11.006  17.425  70.660  1.00  0.00     0.000 HD 
BRANCH  14  18
HETATM   18  C   UNL     1      -9.667  16.677  68.528  1.00  0.00    -0.244 C  
BRANCH  18  19
HETATM   19  C   UNL     1      -9.485  17.825  67.530  1.00  0.00    -0.257 C  
BRANCH  19  20
HETATM   20  C   UNL     1     -10.556  18.907  67.714  1.00  0.00    -0.471 C  
BRANCH  20  21
HETATM   21  C   UNL     1     -10.483  19.946  66.595  1.00  0.00    -0.460 C  
HETATM   22  N   UNL     1      -9.334  20.822  66.792  1.00  0.00    -0.647 NA 
HETATM   23  H1  UNL     1      -9.286  21.516  66.046  1.00  0.00     0.000 HD 
HETATM   24  H2  UNL     1      -8.465  20.296  66.879  1.00  0.00     0.000 HD 
ENDBRANCH  20  21
ENDBRANCH  19  20
ENDBRANCH  18  19
ENDBRANCH  14  18
ENDBRANCH  12  14
ENDBRANCH   2  10
TORSDOF 8
ENDMDL
MODEL      108
REMARK 921   NORMALIZED FREE ENERGY PREDICTED BY IDOCK:   -4.61 KCAL/MOL
REMARK 922        TOTAL FREE ENERGY PREDICTED BY IDOCK:   -7.55 KCAL/MOL
REMARK 923 INTER-LIGAND FREE ENERGY PREDICTED BY IDOCK:   -6.99 KCAL/MOL
REMARK 924 INTRA-LIGAND FREE ENERGY PREDICTED BY IDOCK:   -0.56 KCAL/MOL
REMARK 927      BINDING AFFINITY PREDICTED BY RF-SCORE:    0.00 PKD
ROOT
HETATM    1  C   UNL     1     -10.472  12.790  64.299  1.00  0.00    -0.423 C  
HETATM    2  C   UNL     1     -10.774  14.072  65.074  1.00  0.00    -0.396 C  
ENDROOT
BRANCH   2   3
HETATM    3  C   UNL     1     -12.088  13.966  65.886  1.00  0.00    -0.459 C  
BRANCH   3   4
HETATM    4  C   UNL     1     -11.946  13.320  67.250  1.00  0.00    -0.393 A  
HETATM    5  C   UNL     1     -12.094  14.083  68.417  1.00  0.00    -0.318 A  
HETATM    6  C   UNL     1     -11.720  12.123  69.783  1.00  0.00    -0.381 A  
HETATM    7  C   UNL     1     -11.980  13.487  69.677  1.00  0.00    -0.397 A  
HETATM    8  C   UNL     1     -11.581  11.351  68.631  1.00  0.00    -0.384 A  
HETATM    9  C   UNL     1     -11.700  11.945  67.372  1.00  0.00    -0.326 A  
ENDBRANCH   3   4
ENDBRANCH   2   3
BRANCH   2  10
HETATM   10  N   UNL     1      -9.637  14.372  65.940  1.00  0.00    -0.481 N  
HETATM   11  H   UNL     1      -9.142  13.593  66.374  1.00  0.00     0.000 HD 
HETATM   12  C   UNL     1      -9.195  15.651  66.202  1.00  0.00    -0.343 C  
HETATM   13  O   UNL     1      -9.656  16.657  65.671  1.00  0.00    -0.519 OA 
BRANCH  12  14
HETATM   14  C   UNL     1      -8.017  15.699  67.205  1.00  0.00    -0.219 C  
HETATM   15  N   UNL     1      -7.136  14.523  66.968  1.00  0.00    -0.339 NA 
HETATM   16  H2  UNL     1      -6.820  14.461  65.999  1.00  0.00     0.000 HD 
HETATM   17  H1  UNL     1      -6.360  14.554  67.628  1.00  0.00     0.000 HD 
BRANCH  14  18
HETATM   18  C   UNL     1      -7.184  16.979  67.047  1.00  0.00    -0.224 C  
BRANCH  18  19
HETATM   19  C   UNL     1      -7.268  17.895  68.273  1.00  0.00    -0.236 C  
BRANCH  19  20
HETATM   20  C   UNL     1      -7.134  19.371  67.884  1.00  0.00    -0.290 C  
BRANCH  20  21
HETATM   21  C   UNL     1      -8.456  19.918  67.344  1.00  0.00    -0.327 C  
HETATM   22  N   UNL     1      -8.359  20.151  65.908  1.00  0.00    -0.541 NA 
HETATM   23  H1  UNL     1      -9.241  20.516  65.548  1.00  0.00     0.000 HD 
HETATM   24  H2  UNL     1      -8.060  19.315  65.406  1.00  0.00     0.000 HD 
ENDBRANCH  20  21
ENDBRANCH  19  20
ENDBRANCH  18  19
ENDBRANCH  14  18
ENDBRANCH  12  14
ENDBRANCH   2  10
TORSDOF 8
ENDMDL
MODEL      109
REMARK 921   NORMALIZED FREE ENERGY PREDICTED BY IDOCK:   -4.60 KCAL/MOL
REMARK 922        TOTAL FREE ENERGY PREDICTED BY IDOCK:   -7.54 KCAL/MOL
REMARK 923 INTER-LIGAND FREE ENERGY PREDICTED BY IDOCK:   -6.93 KCAL/MOL
REMARK 924 INTRA-LIGAND FREE ENERGY PREDICTED BY IDOCK:   -0.61 KCAL/MOL
REMARK 927      BINDING AFFINITY PREDICTED BY RF-SCORE:    0.00 PKD
ROOT
HETATM    1  C   UNL     1     -12.157  15.030  70.330  1.00  0.00    -0.378 C  
HETATM    2  C   UNL     1     -11.833  13.813  69.464  1.00  0.00    -0.339 C  
ENDROOT
BRANCH   2   3
HETATM    3  C   UNL     1     -10.451  13.939  68.778  1.00  0.00    -0.229 C  
BRANCH   3   4
HETATM    4  C   UNL     1     -10.091  15.336  68.313  1.00  0.00    -0.225 A  
HETATM    5  C   UNL     1      -9.096  16.071  68.974  1.00  0.00    -0.242 A  
HETATM    6  C   UNL     1      -9.394  17.914  67.436  1.00  0.00    -0.257 A  
HETATM    7  C   UNL     1      -8.752  17.354  68.538  1.00  0.00    -0.277 A  
HETATM    8  C   UNL     1     -10.377  17.189  66.764  1.00  0.00    -0.302 A  
HETATM    9  C   UNL     1     -10.719  15.905  67.197  1.00  0.00    -0.301 A  
ENDBRANCH   3   4
ENDBRANCH   2   3
BRANCH   2  10
HETATM   10  N   UNL     1     -11.906  12.616  70.297  1.00  0.00    -0.537 N  
HETATM   11  H   UNL     1     -11.829  12.727  71.308  1.00  0.00     0.000 HD 
HETATM   12  C   UNL     1     -12.073  11.345  69.793  1.00  0.00    -0.320 C  
HETATM   13  O   UNL     1     -12.261  11.099  68.605  1.00  0.00    -0.582 OA 
BRANCH  12  14
HETATM   14  C   UNL     1     -12.048  10.245  70.881  1.00  0.00    -0.368 C  
HETATM   15  N   UNL     1     -13.393   9.609  70.952  1.00  0.00    -0.596 NA 
HETATM   16  H2  UNL     1     -13.705   9.255  70.047  1.00  0.00     0.000 HD 
HETATM   17  H1  UNL     1     -13.377   8.885  71.669  1.00  0.00     0.000 HD 
BRANCH  14  18
HETATM   18  C   UNL     1     -11.006   9.160  70.574  1.00  0.00    -0.307 C  
BRANCH  18  19
HETATM   19  C   UNL     1     -10.182   8.766  71.805  1.00  0.00    -0.408 C  
BRANCH  19  20
HETATM   20  C   UNL     1     -10.919   7.736  72.670  1.00  0.00    -0.422 C  
BRANCH  20  21
HETATM   21  C   UNL     1     -11.650   6.714  71.800  1.00  0.00    -0.304 C  
HETATM   22  N   UNL     1     -13.056   6.639  72.179  1.00  0.00    -0.534 NA 
HETATM   23  H1  UNL     1     -13.544   5.956  71.599  1.00  0.00     0.000 HD 
HETATM   24  H2  UNL     1     -13.507   7.553  72.151  1.00  0.00     0.000 HD 
ENDBRANCH  20  21
ENDBRANCH  19  20
ENDBRANCH  18  19
ENDBRANCH  14  18
ENDBRANCH  12  14
ENDBRANCH   2  10
TORSDOF 8
ENDMDL
MODEL      110
REMARK 921   NORMALIZED FREE ENERGY PREDICTED BY IDOCK:   -4.59 KCAL/MOL
REMARK 922        TOTAL FREE ENERGY PREDICTED BY IDOCK:   -7.53 KCAL/MOL
REMARK 923 INTER-LIGAND FREE ENERGY PREDICTED BY IDOCK:   -6.88 KCAL/MOL
REMARK 924 INTRA-LIGAND FREE ENERGY PREDICTED BY IDOCK:   -0.65 KCAL/MOL
REMARK 927      BINDING AFFINITY PREDICTED BY RF-SCORE:    0.00 PKD
ROOT
HETATM    1  C   UNL     1     -10.918  13.468  68.451  1.00  0.00    -0.289 C  
HETATM    2  C   UNL     1     -10.834  11.950  68.609  1.00  0.00    -0.235 C  
ENDROOT
BRANCH   2   3
HETATM    3  C   UNL     1     -12.148  11.349  69.163  1.00  0.00    -0.331 C  
BRANCH   3   4
HETATM    4  C   UNL     1     -11.971  10.353  70.291  1.00  0.00    -0.387 A  
HETATM    5  C   UNL     1     -10.721   9.764  70.530  1.00  0.00    -0.381 A  
HETATM    6  C   UNL     1     -11.626   8.530  72.402  1.00  0.00    -0.425 A  
HETATM    7  C   UNL     1     -10.550   8.856  71.580  1.00  0.00    -0.399 A  
HETATM    8  C   UNL     1     -12.871   9.115  72.182  1.00  0.00    -0.486 A  
HETATM    9  C   UNL     1     -13.041  10.026  71.136  1.00  0.00    -0.472 A  
ENDBRANCH   3   4
ENDBRANCH   2   3
BRANCH   2  10
HETATM   10  N   UNL     1     -10.485  11.366  67.317  1.00  0.00    -0.198 N  
HETATM   11  H   UNL     1     -11.239  11.010  66.729  1.00  0.00     0.000 HD 
HETATM   12  C   UNL     1      -9.193  11.270  66.848  1.00  0.00    -0.175 C  
HETATM   13  O   UNL     1      -8.218  11.739  67.427  1.00  0.00    -0.145 OA 
BRANCH  12  14
HETATM   14  C   UNL     1      -9.088  10.549  65.483  1.00  0.00    -0.186 C  
HETATM   15  N   UNL     1     -10.025   9.392  65.477  1.00  0.00    -0.421 NA 
HETATM   16  H2  UNL     1     -10.982   9.665  65.700  1.00  0.00     0.000 HD 
HETATM   17  H1  UNL     1      -9.956   8.916  64.578  1.00  0.00     0.000 HD 
BRANCH  14  18
HETATM   18  C   UNL     1      -9.446  11.479  64.315  1.00  0.00    -0.106 C  
BRANCH  18  19
HETATM   19  C   UNL     1     -10.856  11.229  63.770  1.00  0.00    -0.424 C  
BRANCH  19  20
HETATM   20  C   UNL     1     -11.687  12.517  63.744  1.00  0.00    -0.564 C  
BRANCH  20  21
HETATM   21  C   UNL     1     -12.532  12.649  65.012  1.00  0.00    -0.487 C  
HETATM   22  N   UNL     1     -13.036  14.011  65.145  1.00  0.00    -0.771 NA 
HETATM   23  H1  UNL     1     -13.599  14.100  65.990  1.00  0.00     0.000 HD 
HETATM   24  H2  UNL     1     -13.547  14.310  64.314  1.00  0.00     0.000 HD 
ENDBRANCH  20  21
ENDBRANCH  19  20
ENDBRANCH  18  19
ENDBRANCH  14  18
ENDBRANCH  12  14
ENDBRANCH   2  10
TORSDOF 8
ENDMDL
MODEL      111
REMARK 921   NORMALIZED FREE ENERGY PREDICTED BY IDOCK:   -4.58 KCAL/MOL
REMARK 922        TOTAL FREE ENERGY PREDICTED BY IDOCK:   -7.51 KCAL/MOL
REMARK 923 INTER-LIGAND FREE ENERGY PREDICTED BY IDOCK:   -6.20 KCAL/MOL
REMARK 924 INTRA-LIGAND FREE ENERGY PREDICTED BY IDOCK:   -1.32 KCAL/MOL
REMARK 927      BINDING AFFINITY PREDICTED BY RF-SCORE:    0.00 PKD
ROOT
HETATM    1  C   UNL     1      -9.953  16.178  68.151  1.00  0.00    -0.230 C  
HETATM    2  C   UNL     1      -9.391  15.955  66.747  1.00  0.00    -0.240 C  
ENDROOT
BRANCH   2   3
HETATM    3  C   UNL     1     -10.505  15.912  65.674  1.00  0.00    -0.411 C  
BRANCH   3   4
HETATM    4  C   UNL     1     -10.831  14.530  65.145  1.00  0.00    -0.407 A  
HETATM    5  C   UNL     1     -11.949  14.329  64.322  1.00  0.00    -0.449 A  
HETATM    6  C   UNL     1     -11.423  11.976  64.131  1.00  0.00    -0.460 A  
HETATM    7  C   UNL     1     -12.243  13.057  63.820  1.00  0.00    -0.536 A  
HETATM    8  C   UNL     1     -10.303  12.164  64.938  1.00  0.00    -0.321 A  
HETATM    9  C   UNL     1     -10.005  13.435  65.438  1.00  0.00    -0.211 A  
ENDBRANCH   3   4
ENDBRANCH   2   3
BRANCH   2  10
HETATM   10  N   UNL     1      -8.419  17.008  66.463  1.00  0.00    -0.248 N  
HETATM   11  H   UNL     1      -8.767  17.916  66.157  1.00  0.00     0.000 HD 
HETATM   12  C   UNL     1      -7.056  16.840  66.584  1.00  0.00    -0.240 C  
HETATM   13  O   UNL     1      -6.528  15.823  67.023  1.00  0.00    -0.299 OA 
BRANCH  12  14
HETATM   14  C   UNL     1      -6.244  18.086  66.156  1.00  0.00    -0.227 C  
HETATM   15  N   UNL     1      -7.120  18.975  65.344  1.00  0.00    -0.490 NA 
HETATM   16  H2  UNL     1      -7.983  19.221  65.829  1.00  0.00     0.000 HD 
HETATM   17  H1  UNL     1      -6.586  19.796  65.061  1.00  0.00     0.000 HD 
BRANCH  14  18
HETATM   18  C   UNL     1      -5.728  18.876  67.367  1.00  0.00    -0.160 C  
BRANCH  18  19
HETATM   19  C   UNL     1      -6.705  19.967  67.822  1.00  0.00    -0.280 C  
BRANCH  19  20
HETATM   20  C   UNL     1      -7.565  19.496  69.000  1.00  0.00    -0.356 C  
BRANCH  20  21
HETATM   21  C   UNL     1      -9.054  19.607  68.670  1.00  0.00    -0.285 C  
HETATM   22  N   UNL     1      -9.236  19.990  67.274  1.00  0.00    -0.349 NA 
HETATM   23  H1  UNL     1     -10.229  20.065  67.054  1.00  0.00     0.000 HD 
HETATM   24  H2  UNL     1      -8.752  19.355  66.640  1.00  0.00     0.000 HD 
ENDBRANCH  20  21
ENDBRANCH  19  20
ENDBRANCH  18  19
ENDBRANCH  14  18
ENDBRANCH  12  14
ENDBRANCH   2  10
TORSDOF 8
ENDMDL
MODEL      112
REMARK 921   NORMALIZED FREE ENERGY PREDICTED BY IDOCK:   -4.58 KCAL/MOL
REMARK 922        TOTAL FREE ENERGY PREDICTED BY IDOCK:   -7.51 KCAL/MOL
REMARK 923 INTER-LIGAND FREE ENERGY PREDICTED BY IDOCK:   -6.96 KCAL/MOL
REMARK 924 INTRA-LIGAND FREE ENERGY PREDICTED BY IDOCK:   -0.55 KCAL/MOL
REMARK 927      BINDING AFFINITY PREDICTED BY RF-SCORE:    0.00 PKD
ROOT
HETATM    1  C   UNL     1      -7.994   8.117  69.399  1.00  0.00    -0.114 C  
HETATM    2  C   UNL     1      -9.319   8.878  69.430  1.00  0.00    -0.153 C  
ENDROOT
BRANCH   2   3
HETATM    3  C   UNL     1      -9.736   9.264  70.869  1.00  0.00    -0.346 C  
BRANCH   3   4
HETATM    4  C   UNL     1     -11.181   8.970  71.218  1.00  0.00    -0.385 A  
HETATM    5  C   UNL     1     -12.064  10.015  71.529  1.00  0.00    -0.475 A  
HETATM    6  C   UNL     1     -13.871   8.437  71.833  1.00  0.00    -0.459 A  
HETATM    7  C   UNL     1     -13.402   9.748  71.837  1.00  0.00    -0.530 A  
HETATM    8  C   UNL     1     -13.007   7.391  71.515  1.00  0.00    -0.421 A  
HETATM    9  C   UNL     1     -11.670   7.657  71.204  1.00  0.00    -0.311 A  
ENDBRANCH   3   4
ENDBRANCH   2   3
BRANCH   2  10
HETATM   10  N   UNL     1      -9.198  10.057  68.576  1.00  0.00    -0.137 N  
HETATM   11  H   UNL     1      -8.628  10.835  68.907  1.00  0.00     0.000 HD 
HETATM   12  C   UNL     1      -9.812  10.176  67.348  1.00  0.00    -0.187 C  
HETATM   13  O   UNL     1     -10.450   9.274  66.812  1.00  0.00    -0.244 OA 
BRANCH  12  14
HETATM   14  C   UNL     1      -9.582  11.551  66.677  1.00  0.00    -0.197 C  
HETATM   15  N   UNL     1      -9.372  11.344  65.218  1.00  0.00    -0.309 NA 
HETATM   16  H2  UNL     1     -10.134  10.823  64.785  1.00  0.00     0.000 HD 
HETATM   17  H1  UNL     1      -9.219  12.250  64.775  1.00  0.00     0.000 HD 
BRANCH  14  18
HETATM   18  C   UNL     1     -10.778  12.492  66.875  1.00  0.00    -0.268 C  
BRANCH  18  19
HETATM   19  C   UNL     1     -11.841  12.335  65.781  1.00  0.00    -0.417 C  
BRANCH  19  20
HETATM   20  C   UNL     1     -12.684  13.607  65.629  1.00  0.00    -0.505 C  
BRANCH  20  21
HETATM   21  C   UNL     1     -12.013  14.598  64.679  1.00  0.00    -0.462 C  
HETATM   22  N   UNL     1     -12.214  14.188  63.294  1.00  0.00    -1.043 NA 
HETATM   23  H1  UNL     1     -11.765  14.849  62.660  1.00  0.00     0.000 HD 
HETATM   24  H2  UNL     1     -13.201  14.059  63.075  1.00  0.00     0.000 HD 
ENDBRANCH  20  21
ENDBRANCH  19  20
ENDBRANCH  18  19
ENDBRANCH  14  18
ENDBRANCH  12  14
ENDBRANCH   2  10
TORSDOF 8
ENDMDL
MODEL      113
REMARK 921   NORMALIZED FREE ENERGY PREDICTED BY IDOCK:   -4.58 KCAL/MOL
REMARK 922        TOTAL FREE ENERGY PREDICTED BY IDOCK:   -7.51 KCAL/MOL
REMARK 923 INTER-LIGAND FREE ENERGY PREDICTED BY IDOCK:   -6.50 KCAL/MOL
REMARK 924 INTRA-LIGAND FREE ENERGY PREDICTED BY IDOCK:   -1.00 KCAL/MOL
REMARK 927      BINDING AFFINITY PREDICTED BY RF-SCORE:    0.00 PKD
ROOT
HETATM    1  C   UNL     1      -7.570   9.553  65.054  1.00  0.00    -0.113 C  
HETATM    2  C   UNL     1      -9.040   9.754  65.420  1.00  0.00    -0.204 C  
ENDROOT
BRANCH   2   3
HETATM    3  C   UNL     1      -9.864  10.314  64.235  1.00  0.00    -0.357 C  
BRANCH   3   4
HETATM    4  C   UNL     1     -10.750  11.496  64.574  1.00  0.00    -0.390 A  
HETATM    5  C   UNL     1     -10.965  11.864  65.910  1.00  0.00    -0.354 A  
HETATM    6  C   UNL     1     -12.364  13.708  65.209  1.00  0.00    -0.498 A  
HETATM    7  C   UNL     1     -11.769  12.963  66.225  1.00  0.00    -0.457 A  
HETATM    8  C   UNL     1     -12.149  13.359  63.877  1.00  0.00    -0.514 A  
HETATM    9  C   UNL     1     -11.342  12.263  63.561  1.00  0.00    -0.549 A  
ENDBRANCH   3   4
ENDBRANCH   2   3
BRANCH   2  10
HETATM   10  N   UNL     1      -9.581   8.480  65.888  1.00  0.00    -0.445 N  
HETATM   11  H   UNL     1      -9.884   7.799  65.192  1.00  0.00     0.000 HD 
HETATM   12  C   UNL     1      -9.704   8.148  67.220  1.00  0.00    -0.178 C  
HETATM   13  O   UNL     1      -9.296   8.850  68.141  1.00  0.00    -0.142 OA 
BRANCH  12  14
HETATM   14  C   UNL     1     -10.370   6.770  67.450  1.00  0.00    -0.223 C  
HETATM   15  N   UNL     1     -10.442   6.049  66.150  1.00  0.00    -0.451 NA 
HETATM   16  H2  UNL     1      -9.532   5.970  65.697  1.00  0.00     0.000 HD 
HETATM   17  H1  UNL     1     -10.881   5.141  66.301  1.00  0.00     0.000 HD 
BRANCH  14  18
HETATM   18  C   UNL     1      -9.578   5.912  68.447  1.00  0.00    -0.138 C  
BRANCH  18  19
HETATM   19  C   UNL     1     -10.324   5.702  69.769  1.00  0.00    -0.352 C  
BRANCH  19  20
HETATM   20  C   UNL     1     -11.532   6.638  69.889  1.00  0.00    -0.414 C  
BRANCH  20  21
HETATM   21  C   UNL     1     -11.261   7.756  70.895  1.00  0.00    -0.271 C  
HETATM   22  N   UNL     1     -11.577   9.053  70.308  1.00  0.00    -0.455 NA 
HETATM   23  H1  UNL     1     -11.395   9.800  70.979  1.00  0.00     0.000 HD 
HETATM   24  H2  UNL     1     -12.532   9.086  69.952  1.00  0.00     0.000 HD 
ENDBRANCH  20  21
ENDBRANCH  19  20
ENDBRANCH  18  19
ENDBRANCH  14  18
ENDBRANCH  12  14
ENDBRANCH   2  10
TORSDOF 8
ENDMDL
MODEL      114
REMARK 921   NORMALIZED FREE ENERGY PREDICTED BY IDOCK:   -4.58 KCAL/MOL
REMARK 922        TOTAL FREE ENERGY PREDICTED BY IDOCK:   -7.50 KCAL/MOL
REMARK 923 INTER-LIGAND FREE ENERGY PREDICTED BY IDOCK:   -6.59 KCAL/MOL
REMARK 924 INTRA-LIGAND FREE ENERGY PREDICTED BY IDOCK:   -0.92 KCAL/MOL
REMARK 927      BINDING AFFINITY PREDICTED BY RF-SCORE:    0.00 PKD
ROOT
HETATM    1  C   UNL     1     -12.942  11.913  71.853  1.00  0.00    -0.434 C  
HETATM    2  C   UNL     1     -12.089  10.887  71.107  1.00  0.00    -0.281 C  
ENDROOT
BRANCH   2   3
HETATM    3  C   UNL     1     -12.792   9.512  71.003  1.00  0.00    -0.295 C  
BRANCH   3   4
HETATM    4  C   UNL     1     -11.951   8.329  71.438  1.00  0.00    -0.333 A  
HETATM    5  C   UNL     1     -11.047   8.452  72.504  1.00  0.00    -0.397 A  
HETATM    6  C   UNL     1     -10.412   6.130  72.274  1.00  0.00    -0.229 A  
HETATM    7  C   UNL     1     -10.281   7.358  72.918  1.00  0.00    -0.310 A  
HETATM    8  C   UNL     1     -11.315   5.991  71.222  1.00  0.00    -0.296 A  
HETATM    9  C   UNL     1     -12.084   7.083  70.810  1.00  0.00    -0.374 A  
ENDBRANCH   3   4
ENDBRANCH   2   3
BRANCH   2  10
HETATM   10  N   UNL     1     -11.767  11.421  69.787  1.00  0.00    -0.315 N  
HETATM   11  H   UNL     1     -12.433  12.057  69.348  1.00  0.00     0.000 HD 
HETATM   12  C   UNL     1     -10.612  11.114  69.101  1.00  0.00    -0.204 C  
HETATM   13  O   UNL     1      -9.703  10.431  69.563  1.00  0.00    -0.219 OA 
BRANCH  12  14
HETATM   14  C   UNL     1     -10.544  11.755  67.694  1.00  0.00    -0.205 C  
HETATM   15  N   UNL     1     -11.613  11.164  66.844  1.00  0.00    -0.382 NA 
HETATM   16  H2  UNL     1     -12.538  11.248  67.266  1.00  0.00     0.000 HD 
HETATM   17  H1  UNL     1     -11.569  11.586  65.917  1.00  0.00     0.000 HD 
BRANCH  14  18
HETATM   18  C   UNL     1     -10.744  13.277  67.750  1.00  0.00    -0.256 C  
BRANCH  18  19
HETATM   19  C   UNL     1     -11.928  13.749  66.899  1.00  0.00    -0.460 C  
BRANCH  19  20
HETATM   20  C   UNL     1     -11.459  14.474  65.633  1.00  0.00    -0.341 C  
BRANCH  20  21
HETATM   21  C   UNL     1     -12.197  13.955  64.399  1.00  0.00    -0.413 C  
HETATM   22  N   UNL     1     -12.948  12.749  64.729  1.00  0.00    -0.844 NA 
HETATM   23  H1  UNL     1     -13.441  12.402  63.905  1.00  0.00     0.000 HD 
HETATM   24  H2  UNL     1     -13.580  12.898  65.515  1.00  0.00     0.000 HD 
ENDBRANCH  20  21
ENDBRANCH  19  20
ENDBRANCH  18  19
ENDBRANCH  14  18
ENDBRANCH  12  14
ENDBRANCH   2  10
TORSDOF 8
ENDMDL
MODEL      115
REMARK 921   NORMALIZED FREE ENERGY PREDICTED BY IDOCK:   -4.55 KCAL/MOL
REMARK 922        TOTAL FREE ENERGY PREDICTED BY IDOCK:   -7.46 KCAL/MOL
REMARK 923 INTER-LIGAND FREE ENERGY PREDICTED BY IDOCK:   -6.51 KCAL/MOL
REMARK 924 INTRA-LIGAND FREE ENERGY PREDICTED BY IDOCK:   -0.95 KCAL/MOL
REMARK 927      BINDING AFFINITY PREDICTED BY RF-SCORE:    0.00 PKD
ROOT
HETATM    1  C   UNL     1     -11.384  11.147  67.002  1.00  0.00    -0.216 C  
HETATM    2  C   UNL     1     -10.443  10.350  67.905  1.00  0.00    -0.209 C  
ENDROOT
BRANCH   2   3
HETATM    3  C   UNL     1     -10.336  10.966  69.321  1.00  0.00    -0.211 C  
BRANCH   3   4
HETATM    4  C   UNL     1     -11.117  10.238  70.396  1.00  0.00    -0.391 A  
HETATM    5  C   UNL     1     -10.480   9.309  71.233  1.00  0.00    -0.408 A  
HETATM    6  C   UNL     1     -12.551   8.909  72.415  1.00  0.00    -0.423 A  
HETATM    7  C   UNL     1     -11.195   8.648  72.236  1.00  0.00    -0.399 A  
HETATM    8  C   UNL     1     -13.194   9.837  71.598  1.00  0.00    -0.514 A  
HETATM    9  C   UNL     1     -12.479  10.502  70.598  1.00  0.00    -0.456 A  
ENDBRANCH   3   4
ENDBRANCH   2   3
BRANCH   2  10
HETATM   10  N   UNL     1     -10.911   8.968  67.960  1.00  0.00    -0.492 N  
HETATM   11  H   UNL     1     -11.598   8.719  68.672  1.00  0.00     0.000 HD 
HETATM   12  C   UNL     1     -10.475   7.980  67.103  1.00  0.00    -0.338 C  
HETATM   13  O   UNL     1      -9.718   8.180  66.158  1.00  0.00    -0.187 OA 
BRANCH  12  14
HETATM   14  C   UNL     1     -11.072   6.588  67.417  1.00  0.00    -0.327 C  
HETATM   15  N   UNL     1     -11.034   5.759  66.181  1.00  0.00    -0.703 NA 
HETATM   16  H2  UNL     1     -10.098   5.700  65.780  1.00  0.00     0.000 HD 
HETATM   17  H1  UNL     1     -11.428   4.841  66.387  1.00  0.00     0.000 HD 
BRANCH  14  18
HETATM   18  C   UNL     1     -10.287   5.864  68.520  1.00  0.00    -0.268 C  
BRANCH  18  19
HETATM   19  C   UNL     1     -11.014   5.879  69.870  1.00  0.00    -0.444 C  
BRANCH  19  20
HETATM   20  C   UNL     1     -10.128   5.326  70.992  1.00  0.00    -0.289 C  
BRANCH  20  21
HETATM   21  C   UNL     1      -9.425   4.041  70.552  1.00  0.00    -0.178 C  
HETATM   22  N   UNL     1      -8.006   4.102  70.881  1.00  0.00    -0.062 NA 
HETATM   23  H1  UNL     1      -7.537   3.245  70.587  1.00  0.00     0.000 HD 
HETATM   24  H2  UNL     1      -7.853   4.299  71.870  1.00  0.00     0.000 HD 
ENDBRANCH  20  21
ENDBRANCH  19  20
ENDBRANCH  18  19
ENDBRANCH  14  18
ENDBRANCH  12  14
ENDBRANCH   2  10
TORSDOF 8
ENDMDL
MODEL      116
REMARK 921   NORMALIZED FREE ENERGY PREDICTED BY IDOCK:   -4.54 KCAL/MOL
REMARK 922        TOTAL FREE ENERGY PREDICTED BY IDOCK:   -7.45 KCAL/MOL
REMARK 923 INTER-LIGAND FREE ENERGY PREDICTED BY IDOCK:   -7.52 KCAL/MOL
REMARK 924 INTRA-LIGAND FREE ENERGY PREDICTED BY IDOCK:    0.07 KCAL/MOL
REMARK 927      BINDING AFFINITY PREDICTED BY RF-SCORE:    0.00 PKD
ROOT
HETATM    1  C   UNL     1      -8.542  15.590  66.569  1.00  0.00    -0.320 C  
HETATM    2  C   UNL     1      -9.967  16.136  66.479  1.00  0.00    -0.280 C  
ENDROOT
BRANCH   2   3
HETATM    3  C   UNL     1     -10.636  15.798  65.125  1.00  0.00    -0.436 C  
BRANCH   3   4
HETATM    4  C   UNL     1     -10.964  14.333  64.921  1.00  0.00    -0.413 A  
HETATM    5  C   UNL     1     -10.146  13.337  65.477  1.00  0.00    -0.274 A  
HETATM    6  C   UNL     1     -11.584  11.613  64.578  1.00  0.00    -0.231 A  
HETATM    7  C   UNL     1     -10.455  11.984  65.304  1.00  0.00    -0.323 A  
HETATM    8  C   UNL     1     -12.411  12.592  64.030  1.00  0.00    -0.557 A  
HETATM    9  C   UNL     1     -12.105  13.944  64.206  1.00  0.00    -0.477 A  
ENDBRANCH   3   4
ENDBRANCH   2   3
BRANCH   2  10
HETATM   10  N   UNL     1     -10.740  15.608  67.600  1.00  0.00    -0.296 N  
HETATM   11  H   UNL     1     -10.982  14.618  67.595  1.00  0.00     0.000 HD 
HETATM   12  C   UNL     1     -11.160  16.376  68.665  1.00  0.00    -0.352 C  
HETATM   13  O   UNL     1     -10.857  17.555  68.820  1.00  0.00    -0.225 OA 
BRANCH  12  14
HETATM   14  C   UNL     1     -12.021  15.592  69.684  1.00  0.00    -0.359 C  
HETATM   15  N   UNL     1     -12.369  14.267  69.101  1.00  0.00    -0.539 NA 
HETATM   16  H2  UNL     1     -11.546  13.744  68.803  1.00  0.00     0.000 HD 
HETATM   17  H1  UNL     1     -12.937  13.751  69.772  1.00  0.00     0.000 HD 
BRANCH  14  18
HETATM   18  C   UNL     1     -11.277  15.367  71.008  1.00  0.00    -0.408 C  
BRANCH  18  19
HETATM   19  C   UNL     1     -11.796  16.264  72.138  1.00  0.00    -0.585 C  
BRANCH  19  20
HETATM   20  C   UNL     1     -12.994  15.630  72.855  1.00  0.00    -0.600 C  
BRANCH  20  21
HETATM   21  C   UNL     1     -12.939  14.105  72.769  1.00  0.00    -0.422 C  
HETATM   22  N   UNL     1     -14.098  13.597  72.043  1.00  0.00    -0.426 NA 
HETATM   23  H1  UNL     1     -14.061  12.579  71.986  1.00  0.00     0.000 HD 
HETATM   24  H2  UNL     1     -14.188  14.027  71.122  1.00  0.00     0.000 HD 
ENDBRANCH  20  21
ENDBRANCH  19  20
ENDBRANCH  18  19
ENDBRANCH  14  18
ENDBRANCH  12  14
ENDBRANCH   2  10
TORSDOF 8
ENDMDL
MODEL      117
REMARK 921   NORMALIZED FREE ENERGY PREDICTED BY IDOCK:   -4.54 KCAL/MOL
REMARK 922        TOTAL FREE ENERGY PREDICTED BY IDOCK:   -7.45 KCAL/MOL
REMARK 923 INTER-LIGAND FREE ENERGY PREDICTED BY IDOCK:   -6.49 KCAL/MOL
REMARK 924 INTRA-LIGAND FREE ENERGY PREDICTED BY IDOCK:   -0.96 KCAL/MOL
REMARK 927      BINDING AFFINITY PREDICTED BY RF-SCORE:    0.00 PKD
ROOT
HETATM    1  C   UNL     1     -12.536  13.505  70.970  1.00  0.00    -0.451 C  
HETATM    2  C   UNL     1     -12.087  12.594  69.828  1.00  0.00    -0.233 C  
ENDROOT
BRANCH   2   3
HETATM    3  C   UNL     1     -11.129  13.316  68.850  1.00  0.00    -0.304 C  
BRANCH   3   4
HETATM    4  C   UNL     1     -11.472  13.155  67.383  1.00  0.00    -0.375 A  
HETATM    5  C   UNL     1     -12.178  14.159  66.703  1.00  0.00    -0.450 A  
HETATM    6  C   UNL     1     -12.082  12.880  64.653  1.00  0.00    -0.474 A  
HETATM    7  C   UNL     1     -12.482  14.020  65.346  1.00  0.00    -0.520 A  
HETATM    8  C   UNL     1     -11.370  11.881  65.313  1.00  0.00    -0.333 A  
HETATM    9  C   UNL     1     -11.062  12.020  66.669  1.00  0.00    -0.358 A  
ENDBRANCH   3   4
ENDBRANCH   2   3
BRANCH   2  10
HETATM   10  N   UNL     1     -11.465  11.402  70.400  1.00  0.00    -0.486 N  
HETATM   11  H   UNL     1     -10.450  11.386  70.493  1.00  0.00     0.000 HD 
HETATM   12  C   UNL     1     -12.176  10.298  70.819  1.00  0.00    -0.350 C  
HETATM   13  O   UNL     1     -13.401  10.239  70.834  1.00  0.00    -0.370 OA 
BRANCH  12  14
HETATM   14  C   UNL     1     -11.275   9.144  71.321  1.00  0.00    -0.337 C  
HETATM   15  N   UNL     1     -11.945   8.478  72.472  1.00  0.00    -0.373 NA 
HETATM   16  H2  UNL     1     -12.889   8.165  72.245  1.00  0.00     0.000 HD 
HETATM   17  H1  UNL     1     -11.352   7.718  72.803  1.00  0.00     0.000 HD 
BRANCH  14  18
HETATM   18  C   UNL     1     -11.022   8.099  70.225  1.00  0.00    -0.240 C  
BRANCH  18  19
HETATM   19  C   UNL     1     -10.046   8.592  69.152  1.00  0.00    -0.207 C  
BRANCH  19  20
HETATM   20  C   UNL     1      -8.588   8.410  69.589  1.00  0.00    -0.132 C  
BRANCH  20  21
HETATM   21  C   UNL     1      -7.923   9.762  69.851  1.00  0.00    -0.175 C  
HETATM   22  N   UNL     1      -8.668  10.829  69.194  1.00  0.00    -0.319 NA 
HETATM   23  H1  UNL     1      -8.224  11.730  69.368  1.00  0.00     0.000 HD 
HETATM   24  H2  UNL     1      -9.651  10.830  69.467  1.00  0.00     0.000 HD 
ENDBRANCH  20  21
ENDBRANCH  19  20
ENDBRANCH  18  19
ENDBRANCH  14  18
ENDBRANCH  12  14
ENDBRANCH   2  10
TORSDOF 8
ENDMDL
MODEL      118
REMARK 921   NORMALIZED FREE ENERGY PREDICTED BY IDOCK:   -4.54 KCAL/MOL
REMARK 922        TOTAL FREE ENERGY PREDICTED BY IDOCK:   -7.45 KCAL/MOL
REMARK 923 INTER-LIGAND FREE ENERGY PREDICTED BY IDOCK:   -7.02 KCAL/MOL
REMARK 924 INTRA-LIGAND FREE ENERGY PREDICTED BY IDOCK:   -0.43 KCAL/MOL
REMARK 927      BINDING AFFINITY PREDICTED BY RF-SCORE:    0.00 PKD
ROOT
HETATM    1  C   UNL     1     -11.282  15.134  64.807  1.00  0.00    -0.396 C  
HETATM    2  C   UNL     1     -11.035  14.875  66.292  1.00  0.00    -0.338 C  
ENDROOT
BRANCH   2   3
HETATM    3  C   UNL     1     -10.039  13.713  66.523  1.00  0.00    -0.286 C  
BRANCH   3   4
HETATM    4  C   UNL     1     -10.549  12.601  67.417  1.00  0.00    -0.240 A  
HETATM    5  C   UNL     1     -11.075  12.891  68.684  1.00  0.00    -0.307 A  
HETATM    6  C   UNL     1     -11.528  10.546  69.067  1.00  0.00    -0.304 A  
HETATM    7  C   UNL     1     -11.560  11.868  69.505  1.00  0.00    -0.394 A  
HETATM    8  C   UNL     1     -11.018  10.246  67.806  1.00  0.00    -0.360 A  
HETATM    9  C   UNL     1     -10.536  11.268  66.983  1.00  0.00    -0.287 A  
ENDBRANCH   3   4
ENDBRANCH   2   3
BRANCH   2  10
HETATM   10  N   UNL     1     -10.562  16.112  66.908  1.00  0.00    -0.306 N  
HETATM   11  H   UNL     1      -9.865  16.663  66.409  1.00  0.00     0.000 HD 
HETATM   12  C   UNL     1     -11.005  16.574  68.129  1.00  0.00    -0.336 C  
HETATM   13  O   UNL     1     -11.900  16.041  68.778  1.00  0.00    -0.375 OA 
BRANCH  12  14
HETATM   14  C   UNL     1     -10.296  17.870  68.588  1.00  0.00    -0.337 C  
HETATM   15  N   UNL     1      -8.827  17.628  68.622  1.00  0.00    -0.283 NA 
HETATM   16  H2  UNL     1      -8.469  17.283  67.731  1.00  0.00     0.000 HD 
HETATM   17  H1  UNL     1      -8.359  18.482  68.925  1.00  0.00     0.000 HD 
BRANCH  14  18
HETATM   18  C   UNL     1     -10.580  19.045  67.641  1.00  0.00    -0.526 C  
BRANCH  18  19
HETATM   19  C   UNL     1      -9.363  19.955  67.446  1.00  0.00    -0.468 C  
BRANCH  19  20
HETATM   20  C   UNL     1      -8.691  19.714  66.089  1.00  0.00    -0.361 C  
BRANCH  20  21
HETATM   21  C   UNL     1      -7.238  20.188  66.105  1.00  0.00    -0.286 C  
HETATM   22  N   UNL     1      -7.100  21.369  66.950  1.00  0.00    -0.829 NA 
HETATM   23  H1  UNL     1      -6.130  21.685  66.960  1.00  0.00     0.000 HD 
HETATM   24  H2  UNL     1      -7.457  21.206  67.891  1.00  0.00     0.000 HD 
ENDBRANCH  20  21
ENDBRANCH  19  20
ENDBRANCH  18  19
ENDBRANCH  14  18
ENDBRANCH  12  14
ENDBRANCH   2  10
TORSDOF 8
ENDMDL
MODEL      119
REMARK 921   NORMALIZED FREE ENERGY PREDICTED BY IDOCK:   -4.53 KCAL/MOL
REMARK 922        TOTAL FREE ENERGY PREDICTED BY IDOCK:   -7.44 KCAL/MOL
REMARK 923 INTER-LIGAND FREE ENERGY PREDICTED BY IDOCK:   -6.74 KCAL/MOL
REMARK 924 INTRA-LIGAND FREE ENERGY PREDICTED BY IDOCK:   -0.70 KCAL/MOL
REMARK 927      BINDING AFFINITY PREDICTED BY RF-SCORE:    0.00 PKD
ROOT
HETATM    1  C   UNL     1     -11.657  14.510  69.565  1.00  0.00    -0.350 C  
HETATM    2  C   UNL     1     -11.724  13.624  68.322  1.00  0.00    -0.363 C  
ENDROOT
BRANCH   2   3
HETATM    3  C   UNL     1     -11.423  14.416  67.026  1.00  0.00    -0.376 C  
BRANCH   3   4
HETATM    4  C   UNL     1     -11.510  13.607  65.747  1.00  0.00    -0.326 A  
HETATM    5  C   UNL     1     -10.356  13.328  65.002  1.00  0.00    -0.355 A  
HETATM    6  C   UNL     1     -11.660  12.080  63.392  1.00  0.00    -0.495 A  
HETATM    7  C   UNL     1     -10.431  12.570  63.829  1.00  0.00    -0.451 A  
HETATM    8  C   UNL     1     -12.813  12.341  64.129  1.00  0.00    -0.371 A  
HETATM    9  C   UNL     1     -12.738  13.096  65.303  1.00  0.00    -0.457 A  
ENDBRANCH   3   4
ENDBRANCH   2   3
BRANCH   2  10
HETATM   10  N   UNL     1     -10.795  12.510  68.493  1.00  0.00    -0.235 N  
HETATM   11  H   UNL     1      -9.795  12.712  68.493  1.00  0.00     0.000 HD 
HETATM   12  C   UNL     1     -11.194  11.201  68.654  1.00  0.00    -0.255 C  
HETATM   13  O   UNL     1     -12.367  10.852  68.755  1.00  0.00    -0.495 OA 
BRANCH  12  14
HETATM   14  C   UNL     1     -10.013  10.206  68.745  1.00  0.00    -0.179 C  
HETATM   15  N   UNL     1      -8.878  10.870  69.442  1.00  0.00    -0.390 NA 
HETATM   16  H2  UNL     1      -9.144  11.242  70.354  1.00  0.00     0.000 HD 
HETATM   17  H1  UNL     1      -8.099  10.214  69.502  1.00  0.00     0.000 HD 
BRANCH  14  18
HETATM   18  C   UNL     1     -10.394   8.937  69.521  1.00  0.00    -0.213 C  
BRANCH  18  19
HETATM   19  C   UNL     1      -9.614   7.702  69.054  1.00  0.00    -0.151 C  
BRANCH  19  20
HETATM   20  C   UNL     1      -9.864   7.406  67.571  1.00  0.00    -0.203 C  
BRANCH  20  21
HETATM   21  C   UNL     1     -11.127   6.565  67.386  1.00  0.00    -0.327 C  
HETATM   22  N   UNL     1     -10.942   5.604  66.305  1.00  0.00    -0.748 NA 
HETATM   23  H1  UNL     1     -11.785   5.043  66.181  1.00  0.00     0.000 HD 
HETATM   24  H2  UNL     1     -10.117   5.022  66.451  1.00  0.00     0.000 HD 
ENDBRANCH  20  21
ENDBRANCH  19  20
ENDBRANCH  18  19
ENDBRANCH  14  18
ENDBRANCH  12  14
ENDBRANCH   2  10
TORSDOF 8
ENDMDL
MODEL      120
REMARK 921   NORMALIZED FREE ENERGY PREDICTED BY IDOCK:   -4.53 KCAL/MOL
REMARK 922        TOTAL FREE ENERGY PREDICTED BY IDOCK:   -7.43 KCAL/MOL
REMARK 923 INTER-LIGAND FREE ENERGY PREDICTED BY IDOCK:   -6.85 KCAL/MOL
REMARK 924 INTRA-LIGAND FREE ENERGY PREDICTED BY IDOCK:   -0.58 KCAL/MOL
REMARK 927      BINDING AFFINITY PREDICTED BY RF-SCORE:    0.00 PKD
ROOT
HETATM    1  C   UNL     1     -10.594  17.064  68.114  1.00  0.00    -0.369 C  
HETATM    2  C   UNL     1     -10.797  15.612  68.546  1.00  0.00    -0.282 C  
ENDROOT
BRANCH   2   3
HETATM    3  C   UNL     1     -12.251  15.338  69.001  1.00  0.00    -0.158 C  
BRANCH   3   4
HETATM    4  C   UNL     1     -12.434  15.177  70.497  1.00  0.00    -0.429 A  
HETATM    5  C   UNL     1     -13.077  14.045  71.017  1.00  0.00    -0.342 A  
HETATM    6  C   UNL     1     -12.747  14.856  73.272  1.00  0.00    -0.624 A  
HETATM    7  C   UNL     1     -13.234  13.887  72.398  1.00  0.00    -0.587 A  
HETATM    8  C   UNL     1     -12.096  15.980  72.768  1.00  0.00    -0.635 A  
HETATM    9  C   UNL     1     -11.936  16.137  71.389  1.00  0.00    -0.451 A  
ENDBRANCH   3   4
ENDBRANCH   2   3
BRANCH   2  10
HETATM   10  N   UNL     1     -10.412  14.739  67.440  1.00  0.00    -0.254 N  
HETATM   11  H   UNL     1     -10.762  14.959  66.508  1.00  0.00     0.000 HD 
HETATM   12  C   UNL     1      -9.602  13.635  67.587  1.00  0.00    -0.221 C  
HETATM   13  O   UNL     1      -9.055  13.322  68.641  1.00  0.00    -0.109 OA 
BRANCH  12  14
HETATM   14  C   UNL     1      -9.403  12.840  66.274  1.00  0.00    -0.152 C  
HETATM   15  N   UNL     1      -8.208  11.964  66.418  1.00  0.00    -0.381 NA 
HETATM   16  H2  UNL     1      -8.267  11.356  67.236  1.00  0.00     0.000 HD 
HETATM   17  H1  UNL     1      -8.077  11.441  65.553  1.00  0.00     0.000 HD 
BRANCH  14  18
HETATM   18  C   UNL     1     -10.620  11.963  65.946  1.00  0.00    -0.306 C  
BRANCH  18  19
HETATM   19  C   UNL     1     -11.536  11.746  67.156  1.00  0.00    -0.366 C  
BRANCH  19  20
HETATM   20  C   UNL     1     -11.243  10.411  67.851  1.00  0.00    -0.332 C  
BRANCH  20  21
HETATM   21  C   UNL     1     -11.401  10.537  69.367  1.00  0.00    -0.269 C  
HETATM   22  N   UNL     1     -12.807  10.425  69.740  1.00  0.00    -0.586 NA 
HETATM   23  H1  UNL     1     -12.912  10.509  70.751  1.00  0.00     0.000 HD 
HETATM   24  H2  UNL     1     -13.227   9.567  69.384  1.00  0.00     0.000 HD 
ENDBRANCH  20  21
ENDBRANCH  19  20
ENDBRANCH  18  19
ENDBRANCH  14  18
ENDBRANCH  12  14
ENDBRANCH   2  10
TORSDOF 8
ENDMDL
MODEL      121
REMARK 921   NORMALIZED FREE ENERGY PREDICTED BY IDOCK:   -4.52 KCAL/MOL
REMARK 922        TOTAL FREE ENERGY PREDICTED BY IDOCK:   -7.42 KCAL/MOL
REMARK 923 INTER-LIGAND FREE ENERGY PREDICTED BY IDOCK:   -6.70 KCAL/MOL
REMARK 924 INTRA-LIGAND FREE ENERGY PREDICTED BY IDOCK:   -0.72 KCAL/MOL
REMARK 927      BINDING AFFINITY PREDICTED BY RF-SCORE:    0.00 PKD
ROOT
HETATM    1  C   UNL     1     -11.398  12.306  64.968  1.00  0.00    -0.376 C  
HETATM    2  C   UNL     1     -11.121  12.805  66.385  1.00  0.00    -0.285 C  
ENDROOT
BRANCH   2   3
HETATM    3  C   UNL     1     -12.147  13.872  66.837  1.00  0.00    -0.467 C  
BRANCH   3   4
HETATM    4  C   UNL     1     -11.773  14.626  68.097  1.00  0.00    -0.360 A  
HETATM    5  C   UNL     1     -12.157  14.142  69.357  1.00  0.00    -0.372 A  
HETATM    6  C   UNL     1     -11.055  16.001  70.442  1.00  0.00    -0.376 A  
HETATM    7  C   UNL     1     -11.801  14.827  70.522  1.00  0.00    -0.362 A  
HETATM    8  C   UNL     1     -10.658  16.487  69.198  1.00  0.00    -0.319 A  
HETATM    9  C   UNL     1     -11.011  15.800  68.032  1.00  0.00    -0.330 A  
ENDBRANCH   3   4
ENDBRANCH   2   3
BRANCH   2  10
HETATM   10  N   UNL     1     -11.113  11.658  67.290  1.00  0.00    -0.273 N  
HETATM   11  H   UNL     1     -11.894  11.004  67.246  1.00  0.00     0.000 HD 
HETATM   12  C   UNL     1     -10.107  11.412  68.199  1.00  0.00    -0.189 C  
HETATM   13  O   UNL     1      -9.081  12.080  68.282  1.00  0.00    -0.188 OA 
BRANCH  12  14
HETATM   14  C   UNL     1     -10.372  10.171  69.085  1.00  0.00    -0.219 C  
HETATM   15  N   UNL     1      -9.326  10.104  70.143  1.00  0.00    -0.375 NA 
HETATM   16  H2  UNL     1      -9.266  10.965  70.686  1.00  0.00     0.000 HD 
HETATM   17  H1  UNL     1      -9.500   9.286  70.726  1.00  0.00     0.000 HD 
BRANCH  14  18
HETATM   18  C   UNL     1     -11.751  10.233  69.759  1.00  0.00    -0.261 C  
BRANCH  18  19
HETATM   19  C   UNL     1     -11.729   9.709  71.199  1.00  0.00    -0.450 C  
BRANCH  19  20
HETATM   20  C   UNL     1     -12.939  10.208  71.998  1.00  0.00    -0.508 C  
BRANCH  20  21
HETATM   21  C   UNL     1     -13.898   9.061  72.313  1.00  0.00    -0.484 C  
HETATM   22  N   UNL     1     -13.220   7.778  72.165  1.00  0.00    -0.508 NA 
HETATM   23  H1  UNL     1     -13.861   7.012  72.375  1.00  0.00     0.000 HD 
HETATM   24  H2  UNL     1     -12.372   7.730  72.730  1.00  0.00     0.000 HD 
ENDBRANCH  20  21
ENDBRANCH  19  20
ENDBRANCH  18  19
ENDBRANCH  14  18
ENDBRANCH  12  14
ENDBRANCH   2  10
TORSDOF 8
ENDMDL
MODEL      122
REMARK 921   NORMALIZED FREE ENERGY PREDICTED BY IDOCK:   -4.51 KCAL/MOL
REMARK 922        TOTAL FREE ENERGY PREDICTED BY IDOCK:   -7.41 KCAL/MOL
REMARK 923 INTER-LIGAND FREE ENERGY PREDICTED BY IDOCK:   -6.58 KCAL/MOL
REMARK 924 INTRA-LIGAND FREE ENERGY PREDICTED BY IDOCK:   -0.83 KCAL/MOL
REMARK 927      BINDING AFFINITY PREDICTED BY RF-SCORE:    0.00 PKD
ROOT
HETATM    1  C   UNL     1     -12.276  14.159  70.784  1.00  0.00    -0.435 C  
HETATM    2  C   UNL     1     -11.943  13.202  69.639  1.00  0.00    -0.306 C  
ENDROOT
BRANCH   2   3
HETATM    3  C   UNL     1     -10.711  13.671  68.828  1.00  0.00    -0.265 C  
BRANCH   3   4
HETATM    4  C   UNL     1     -10.994  14.026  67.382  1.00  0.00    -0.302 A  
HETATM    5  C   UNL     1     -12.248  13.754  66.815  1.00  0.00    -0.440 A  
HETATM    6  C   UNL     1     -11.538  14.713  64.711  1.00  0.00    -0.418 A  
HETATM    7  C   UNL     1     -12.517  14.094  65.486  1.00  0.00    -0.495 A  
HETATM    8  C   UNL     1     -10.293  14.999  65.266  1.00  0.00    -0.424 A  
HETATM    9  C   UNL     1     -10.024  14.662  66.596  1.00  0.00    -0.281 A  
ENDBRANCH   3   4
ENDBRANCH   2   3
BRANCH   2  10
HETATM   10  N   UNL     1     -11.738  11.867  70.194  1.00  0.00    -0.497 N  
HETATM   11  H   UNL     1     -11.570  11.781  71.196  1.00  0.00     0.000 HD 
HETATM   12  C   UNL     1     -11.759  10.715  69.437  1.00  0.00    -0.273 C  
HETATM   13  O   UNL     1     -12.035  10.688  68.241  1.00  0.00    -0.462 OA 
BRANCH  12  14
HETATM   14  C   UNL     1     -11.446   9.438  70.253  1.00  0.00    -0.180 C  
HETATM   15  N   UNL     1     -11.004   8.367  69.318  1.00  0.00    -0.428 NA 
HETATM   16  H2  UNL     1     -10.220   8.658  68.734  1.00  0.00     0.000 HD 
HETATM   17  H1  UNL     1     -10.798   7.526  69.855  1.00  0.00     0.000 HD 
BRANCH  14  18
HETATM   18  C   UNL     1     -10.336   9.678  71.287  1.00  0.00    -0.154 C  
BRANCH  18  19
HETATM   19  C   UNL     1      -9.629   8.385  71.706  1.00  0.00    -0.303 C  
BRANCH  19  20
HETATM   20  C   UNL     1     -10.180   7.846  73.031  1.00  0.00    -0.394 C  
BRANCH  20  21
HETATM   21  C   UNL     1     -10.690   6.414  72.870  1.00  0.00    -0.249 C  
HETATM   22  N   UNL     1     -11.066   6.163  71.484  1.00  0.00    -0.276 NA 
HETATM   23  H1  UNL     1     -11.407   5.208  71.376  1.00  0.00     0.000 HD 
HETATM   24  H2  UNL     1     -10.303   6.370  70.839  1.00  0.00     0.000 HD 
ENDBRANCH  20  21
ENDBRANCH  19  20
ENDBRANCH  18  19
ENDBRANCH  14  18
ENDBRANCH  12  14
ENDBRANCH   2  10
TORSDOF 8
ENDMDL
MODEL      123
REMARK 921   NORMALIZED FREE ENERGY PREDICTED BY IDOCK:   -4.51 KCAL/MOL
REMARK 922        TOTAL FREE ENERGY PREDICTED BY IDOCK:   -7.40 KCAL/MOL
REMARK 923 INTER-LIGAND FREE ENERGY PREDICTED BY IDOCK:   -6.98 KCAL/MOL
REMARK 924 INTRA-LIGAND FREE ENERGY PREDICTED BY IDOCK:   -0.42 KCAL/MOL
REMARK 927      BINDING AFFINITY PREDICTED BY RF-SCORE:    0.00 PKD
ROOT
HETATM    1  C   UNL     1     -11.156  16.757  68.045  1.00  0.00    -0.220 C  
HETATM    2  C   UNL     1     -10.073  16.867  66.972  1.00  0.00    -0.289 C  
ENDROOT
BRANCH   2   3
HETATM    3  C   UNL     1     -10.573  16.389  65.588  1.00  0.00    -0.337 C  
BRANCH   3   4
HETATM    4  C   UNL     1     -10.996  14.935  65.527  1.00  0.00    -0.355 A  
HETATM    5  C   UNL     1     -12.147  14.558  64.820  1.00  0.00    -0.454 A  
HETATM    6  C   UNL     1     -11.767  12.237  65.380  1.00  0.00    -0.424 A  
HETATM    7  C   UNL     1     -12.531  13.216  64.749  1.00  0.00    -0.460 A  
HETATM    8  C   UNL     1     -10.615  12.596  66.076  1.00  0.00    -0.294 A  
HETATM    9  C   UNL     1     -10.229  13.938  66.144  1.00  0.00    -0.307 A  
ENDBRANCH   3   4
ENDBRANCH   2   3
BRANCH   2  10
HETATM   10  N   UNL     1      -9.607  18.251  66.921  1.00  0.00    -0.285 N  
HETATM   11  H   UNL     1     -10.178  18.968  67.368  1.00  0.00     0.000 HD 
HETATM   12  C   UNL     1      -8.439  18.640  66.302  1.00  0.00    -0.224 C  
HETATM   13  O   UNL     1      -7.634  17.857  65.807  1.00  0.00    -0.531 OA 
BRANCH  12  14
HETATM   14  C   UNL     1      -8.210  20.170  66.330  1.00  0.00    -0.225 C  
HETATM   15  N   UNL     1      -9.386  20.820  66.971  1.00  0.00    -0.654 NA 
HETATM   16  H2  UNL     1      -9.585  20.440  67.897  1.00  0.00     0.000 HD 
HETATM   17  H1  UNL     1      -9.236  21.828  66.989  1.00  0.00     0.000 HD 
BRANCH  14  18
HETATM   18  C   UNL     1      -6.948  20.545  67.119  1.00  0.00    -0.343 C  
BRANCH  18  19
HETATM   19  C   UNL     1      -7.001  20.076  68.577  1.00  0.00    -0.324 C  
BRANCH  19  20
HETATM   20  C   UNL     1      -5.851  20.668  69.401  1.00  0.00    -0.382 C  
BRANCH  20  21
HETATM   21  C   UNL     1      -5.613  19.853  70.673  1.00  0.00    -0.274 C  
HETATM   22  N   UNL     1      -5.461  20.740  71.820  1.00  0.00    -0.604 NA 
HETATM   23  H1  UNL     1      -5.302  20.197  72.669  1.00  0.00     0.000 HD 
HETATM   24  H2  UNL     1      -6.253  21.375  71.918  1.00  0.00     0.000 HD 
ENDBRANCH  20  21
ENDBRANCH  19  20
ENDBRANCH  18  19
ENDBRANCH  14  18
ENDBRANCH  12  14
ENDBRANCH   2  10
TORSDOF 8
ENDMDL
MODEL      124
REMARK 921   NORMALIZED FREE ENERGY PREDICTED BY IDOCK:   -4.49 KCAL/MOL
REMARK 922        TOTAL FREE ENERGY PREDICTED BY IDOCK:   -7.39 KCAL/MOL
REMARK 923 INTER-LIGAND FREE ENERGY PREDICTED BY IDOCK:   -7.30 KCAL/MOL
REMARK 924 INTRA-LIGAND FREE ENERGY PREDICTED BY IDOCK:   -0.08 KCAL/MOL
REMARK 927      BINDING AFFINITY PREDICTED BY RF-SCORE:    0.00 PKD
ROOT
HETATM    1  C   UNL     1     -13.054  11.713  71.729  1.00  0.00    -0.487 C  
HETATM    2  C   UNL     1     -12.775  10.964  70.427  1.00  0.00    -0.248 C  
ENDROOT
BRANCH   2   3
HETATM    3  C   UNL     1     -11.435  11.393  69.784  1.00  0.00    -0.376 C  
BRANCH   3   4
HETATM    4  C   UNL     1     -11.551  12.459  68.713  1.00  0.00    -0.373 A  
HETATM    5  C   UNL     1     -11.693  12.099  67.364  1.00  0.00    -0.374 A  
HETATM    6  C   UNL     1     -11.801  14.429  66.723  1.00  0.00    -0.431 A  
HETATM    7  C   UNL     1     -11.816  13.080  66.375  1.00  0.00    -0.465 A  
HETATM    8  C   UNL     1     -11.671  14.799  68.060  1.00  0.00    -0.360 A  
HETATM    9  C   UNL     1     -11.552  13.819  69.050  1.00  0.00    -0.356 A  
ENDBRANCH   3   4
ENDBRANCH   2   3
BRANCH   2  10
HETATM   10  N   UNL     1     -12.798   9.529  70.701  1.00  0.00    -0.527 N  
HETATM   11  H   UNL     1     -13.601   8.989  70.377  1.00  0.00     0.000 HD 
HETATM   12  C   UNL     1     -11.795   8.865  71.373  1.00  0.00    -0.317 C  
HETATM   13  O   UNL     1     -10.747   9.393  71.733  1.00  0.00    -0.334 OA 
BRANCH  12  14
HETATM   14  C   UNL     1     -12.094   7.363  71.594  1.00  0.00    -0.317 C  
HETATM   15  N   UNL     1     -13.448   7.058  71.054  1.00  0.00    -0.437 NA 
HETATM   16  H2  UNL     1     -13.549   7.336  70.077  1.00  0.00     0.000 HD 
HETATM   17  H1  UNL     1     -13.645   6.069  71.199  1.00  0.00     0.000 HD 
BRANCH  14  18
HETATM   18  C   UNL     1     -11.068   6.466  70.887  1.00  0.00    -0.354 C  
BRANCH  18  19
HETATM   19  C   UNL     1     -11.202   6.502  69.361  1.00  0.00    -0.418 C  
BRANCH  19  20
HETATM   20  C   UNL     1     -10.510   5.301  68.706  1.00  0.00    -0.166 C  
BRANCH  20  21
HETATM   21  C   UNL     1     -10.599   5.382  67.182  1.00  0.00    -0.201 C  
HETATM   22  N   UNL     1     -11.448   6.499  66.782  1.00  0.00    -0.760 NA 
HETATM   23  H1  UNL     1     -11.508   6.552  65.766  1.00  0.00     0.000 HD 
HETATM   24  H2  UNL     1     -11.136   7.379  67.192  1.00  0.00     0.000 HD 
ENDBRANCH  20  21
ENDBRANCH  19  20
ENDBRANCH  18  19
ENDBRANCH  14  18
ENDBRANCH  12  14
ENDBRANCH   2  10
TORSDOF 8
ENDMDL
MODEL      125
REMARK 921   NORMALIZED FREE ENERGY PREDICTED BY IDOCK:   -4.49 KCAL/MOL
REMARK 922        TOTAL FREE ENERGY PREDICTED BY IDOCK:   -7.38 KCAL/MOL
REMARK 923 INTER-LIGAND FREE ENERGY PREDICTED BY IDOCK:   -6.29 KCAL/MOL
REMARK 924 INTRA-LIGAND FREE ENERGY PREDICTED BY IDOCK:   -1.09 KCAL/MOL
REMARK 927      BINDING AFFINITY PREDICTED BY RF-SCORE:    0.00 PKD
ROOT
HETATM    1  C   UNL     1     -12.853  11.488  71.111  1.00  0.00    -0.414 C  
HETATM    2  C   UNL     1     -11.989  10.235  70.974  1.00  0.00    -0.385 C  
ENDROOT
BRANCH   2   3
HETATM    3  C   UNL     1     -12.587   9.028  71.737  1.00  0.00    -0.434 C  
BRANCH   3   4
HETATM    4  C   UNL     1     -11.636   7.868  71.947  1.00  0.00    -0.338 A  
HETATM    5  C   UNL     1     -11.851   6.645  71.294  1.00  0.00    -0.403 A  
HETATM    6  C   UNL     1      -9.857   5.721  72.303  1.00  0.00    -0.185 A  
HETATM    7  C   UNL     1     -10.966   5.577  71.473  1.00  0.00    -0.220 A  
HETATM    8  C   UNL     1      -9.626   6.934  72.949  1.00  0.00    -0.170 A  
HETATM    9  C   UNL     1     -10.507   8.003  72.767  1.00  0.00    -0.415 A  
ENDBRANCH   3   4
ENDBRANCH   2   3
BRANCH   2  10
HETATM   10  N   UNL     1     -11.825   9.936  69.554  1.00  0.00    -0.458 N  
HETATM   11  H   UNL     1     -12.652   9.955  68.958  1.00  0.00     0.000 HD 
HETATM   12  C   UNL     1     -10.612   9.631  68.974  1.00  0.00    -0.218 C  
HETATM   13  O   UNL     1      -9.541   9.663  69.572  1.00  0.00    -0.174 OA 
BRANCH  12  14
HETATM   14  C   UNL     1     -10.720   9.288  67.469  1.00  0.00    -0.203 C  
HETATM   15  N   UNL     1      -9.939  10.288  66.691  1.00  0.00    -0.207 NA 
HETATM   16  H2  UNL     1      -8.971  10.356  67.005  1.00  0.00     0.000 HD 
HETATM   17  H1  UNL     1     -10.010  10.062  65.699  1.00  0.00     0.000 HD 
BRANCH  14  18
HETATM   18  C   UNL     1     -10.173   7.887  67.161  1.00  0.00    -0.360 C  
BRANCH  18  19
HETATM   19  C   UNL     1     -11.076   6.769  67.695  1.00  0.00    -0.309 C  
BRANCH  19  20
HETATM   20  C   UNL     1     -10.429   5.390  67.521  1.00  0.00    -0.235 C  
BRANCH  20  21
HETATM   21  C   UNL     1     -10.062   5.138  66.059  1.00  0.00    -0.168 C  
HETATM   22  N   UNL     1     -11.229   4.678  65.316  1.00  0.00    -0.991 NA 
HETATM   23  H1  UNL     1     -10.984   4.509  64.340  1.00  0.00     0.000 HD 
HETATM   24  H2  UNL     1     -12.015   5.322  65.405  1.00  0.00     0.000 HD 
ENDBRANCH  20  21
ENDBRANCH  19  20
ENDBRANCH  18  19
ENDBRANCH  14  18
ENDBRANCH  12  14
ENDBRANCH   2  10
TORSDOF 8
ENDMDL
MODEL      126
REMARK 921   NORMALIZED FREE ENERGY PREDICTED BY IDOCK:   -4.49 KCAL/MOL
REMARK 922        TOTAL FREE ENERGY PREDICTED BY IDOCK:   -7.38 KCAL/MOL
REMARK 923 INTER-LIGAND FREE ENERGY PREDICTED BY IDOCK:   -6.35 KCAL/MOL
REMARK 924 INTRA-LIGAND FREE ENERGY PREDICTED BY IDOCK:   -1.02 KCAL/MOL
REMARK 927      BINDING AFFINITY PREDICTED BY RF-SCORE:    0.00 PKD
ROOT
HETATM    1  C   UNL     1     -10.584  15.146  69.837  1.00  0.00    -0.253 C  
HETATM    2  C   UNL     1     -11.076  14.318  68.651  1.00  0.00    -0.253 C  
ENDROOT
BRANCH   2   3
HETATM    3  C   UNL     1     -10.976  15.095  67.316  1.00  0.00    -0.327 C  
BRANCH   3   4
HETATM    4  C   UNL     1     -11.292  14.282  66.077  1.00  0.00    -0.335 A  
HETATM    5  C   UNL     1     -10.290  14.000  65.136  1.00  0.00    -0.422 A  
HETATM    6  C   UNL     1     -11.863  12.746  63.793  1.00  0.00    -0.572 A  
HETATM    7  C   UNL     1     -10.576  13.237  64.000  1.00  0.00    -0.217 A  
HETATM    8  C   UNL     1     -12.864  13.010  64.725  1.00  0.00    -0.336 A  
HETATM    9  C   UNL     1     -12.579  13.769  65.864  1.00  0.00    -0.494 A  
ENDBRANCH   3   4
ENDBRANCH   2   3
BRANCH   2  10
HETATM   10  N   UNL     1     -10.310  13.075  68.602  1.00  0.00    -0.350 N  
HETATM   11  H   UNL     1      -9.296  13.136  68.523  1.00  0.00     0.000 HD 
HETATM   12  C   UNL     1     -10.884  11.823  68.657  1.00  0.00    -0.220 C  
HETATM   13  O   UNL     1     -12.083  11.627  68.837  1.00  0.00    -0.342 OA 
BRANCH  12  14
HETATM   14  C   UNL     1      -9.860  10.672  68.516  1.00  0.00    -0.168 C  
HETATM   15  N   UNL     1      -9.239  10.416  69.845  1.00  0.00    -0.396 NA 
HETATM   16  H2  UNL     1      -9.932  10.233  70.570  1.00  0.00     0.000 HD 
HETATM   17  H1  UNL     1      -8.563   9.658  69.752  1.00  0.00     0.000 HD 
BRANCH  14  18
HETATM   18  C   UNL     1     -10.520   9.376  68.023  1.00  0.00    -0.278 C  
BRANCH  18  19
HETATM   19  C   UNL     1     -10.035   8.958  66.630  1.00  0.00    -0.346 C  
BRANCH  19  20
HETATM   20  C   UNL     1     -10.056  10.136  65.649  1.00  0.00    -0.324 C  
BRANCH  20  21
HETATM   21  C   UNL     1      -9.046   9.928  64.521  1.00  0.00    -0.250 C  
HETATM   22  N   UNL     1      -9.735   9.775  63.246  1.00  0.00    -0.471 NA 
HETATM   23  H1  UNL     1      -9.061   9.636  62.493  1.00  0.00     0.000 HD 
HETATM   24  H2  UNL     1     -10.361  10.557  63.056  1.00  0.00     0.000 HD 
ENDBRANCH  20  21
ENDBRANCH  19  20
ENDBRANCH  18  19
ENDBRANCH  14  18
ENDBRANCH  12  14
ENDBRANCH   2  10
TORSDOF 8
ENDMDL
MODEL      127
REMARK 921   NORMALIZED FREE ENERGY PREDICTED BY IDOCK:   -4.48 KCAL/MOL
REMARK 922        TOTAL FREE ENERGY PREDICTED BY IDOCK:   -7.36 KCAL/MOL
REMARK 923 INTER-LIGAND FREE ENERGY PREDICTED BY IDOCK:   -7.04 KCAL/MOL
REMARK 924 INTRA-LIGAND FREE ENERGY PREDICTED BY IDOCK:   -0.32 KCAL/MOL
REMARK 927      BINDING AFFINITY PREDICTED BY RF-SCORE:    0.00 PKD
ROOT
HETATM    1  C   UNL     1     -10.552   8.674  72.131  1.00  0.00    -0.411 C  
HETATM    2  C   UNL     1     -11.701   8.175  71.256  1.00  0.00    -0.279 C  
ENDROOT
BRANCH   2   3
HETATM    3  C   UNL     1     -12.990   9.008  71.455  1.00  0.00    -0.343 C  
BRANCH   3   4
HETATM    4  C   UNL     1     -12.829  10.499  71.235  1.00  0.00    -0.532 A  
HETATM    5  C   UNL     1     -13.400  11.415  72.130  1.00  0.00    -0.271 A  
HETATM    6  C   UNL     1     -12.506  13.265  70.855  1.00  0.00    -0.424 A  
HETATM    7  C   UNL     1     -13.240  12.791  71.939  1.00  0.00    -0.511 A  
HETATM    8  C   UNL     1     -11.924  12.365  69.965  1.00  0.00    -0.372 A  
HETATM    9  C   UNL     1     -12.080  10.989  70.157  1.00  0.00    -0.438 A  
ENDBRANCH   3   4
ENDBRANCH   2   3
BRANCH   2  10
HETATM   10  N   UNL     1     -11.265   8.193  69.861  1.00  0.00    -0.446 N  
HETATM   11  H   UNL     1     -11.340   9.069  69.345  1.00  0.00     0.000 HD 
HETATM   12  C   UNL     1     -10.760   7.092  69.206  1.00  0.00    -0.225 C  
HETATM   13  O   UNL     1     -10.546   6.011  69.748  1.00  0.00    -0.230 OA 
BRANCH  12  14
HETATM   14  C   UNL     1     -10.438   7.359  67.716  1.00  0.00    -0.232 C  
HETATM   15  N   UNL     1     -11.490   6.723  66.876  1.00  0.00    -0.717 NA 
HETATM   16  H2  UNL     1     -12.430   7.028  67.131  1.00  0.00     0.000 HD 
HETATM   17  H1  UNL     1     -11.278   6.899  65.894  1.00  0.00     0.000 HD 
BRANCH  14  18
HETATM   18  C   UNL     1     -10.395   8.861  67.400  1.00  0.00    -0.337 C  
BRANCH  18  19
HETATM   19  C   UNL     1      -9.753   9.161  66.041  1.00  0.00    -0.358 C  
BRANCH  19  20
HETATM   20  C   UNL     1     -10.135  10.557  65.535  1.00  0.00    -0.349 C  
BRANCH  20  21
HETATM   21  C   UNL     1     -10.913  11.332  66.598  1.00  0.00    -0.268 C  
HETATM   22  N   UNL     1     -11.190  12.687  66.136  1.00  0.00    -0.295 NA 
HETATM   23  H1  UNL     1     -11.709  13.204  66.846  1.00  0.00     0.000 HD 
HETATM   24  H2  UNL     1     -11.669  12.691  65.236  1.00  0.00     0.000 HD 
ENDBRANCH  20  21
ENDBRANCH  19  20
ENDBRANCH  18  19
ENDBRANCH  14  18
ENDBRANCH  12  14
ENDBRANCH   2  10
TORSDOF 8
ENDMDL
MODEL      128
REMARK 921   NORMALIZED FREE ENERGY PREDICTED BY IDOCK:   -4.48 KCAL/MOL
REMARK 922        TOTAL FREE ENERGY PREDICTED BY IDOCK:   -7.36 KCAL/MOL
REMARK 923 INTER-LIGAND FREE ENERGY PREDICTED BY IDOCK:   -6.34 KCAL/MOL
REMARK 924 INTRA-LIGAND FREE ENERGY PREDICTED BY IDOCK:   -1.02 KCAL/MOL
REMARK 927      BINDING AFFINITY PREDICTED BY RF-SCORE:    0.00 PKD
ROOT
HETATM    1  C   UNL     1     -14.152   7.535  71.344  1.00  0.00    -0.496 C  
HETATM    2  C   UNL     1     -13.001   8.473  71.710  1.00  0.00    -0.352 C  
ENDROOT
BRANCH   2   3
HETATM    3  C   UNL     1     -13.505   9.799  72.327  1.00  0.00    -0.443 C  
BRANCH   3   4
HETATM    4  C   UNL     1     -13.036  11.054  71.618  1.00  0.00    -0.543 A  
HETATM    5  C   UNL     1     -13.352  12.321  72.131  1.00  0.00    -0.473 A  
HETATM    6  C   UNL     1     -12.142  13.385  70.328  1.00  0.00    -0.419 A  
HETATM    7  C   UNL     1     -12.908  13.480  71.488  1.00  0.00    -0.440 A  
HETATM    8  C   UNL     1     -11.813  12.133  69.814  1.00  0.00    -0.397 A  
HETATM    9  C   UNL     1     -12.253  10.974  70.459  1.00  0.00    -0.472 A  
ENDBRANCH   3   4
ENDBRANCH   2   3
BRANCH   2  10
HETATM   10  N   UNL     1     -12.101   7.770  72.621  1.00  0.00    -0.588 N  
HETATM   11  H   UNL     1     -12.499   7.076  73.252  1.00  0.00     0.000 HD 
HETATM   12  C   UNL     1     -10.742   7.995  72.674  1.00  0.00    -0.358 C  
HETATM   13  O   UNL     1     -10.142   8.742  71.907  1.00  0.00    -0.295 OA 
BRANCH  12  14
HETATM   14  C   UNL     1     -10.027   7.173  73.772  1.00  0.00    -0.331 C  
HETATM   15  N   UNL     1      -9.564   5.886  73.184  1.00  0.00    -0.147 NA 
HETATM   16  H2  UNL     1      -8.981   6.022  72.358  1.00  0.00     0.000 HD 
HETATM   17  H1  UNL     1      -9.093   5.344  73.907  1.00  0.00     0.000 HD 
BRANCH  14  18
HETATM   18  C   UNL     1      -8.812   7.918  74.345  1.00  0.00     0.006 C  
BRANCH  18  19
HETATM   19  C   UNL     1      -7.479   7.327  73.872  1.00  0.00    -0.122 C  
BRANCH  19  20
HETATM   20  C   UNL     1      -6.635   8.368  73.126  1.00  0.00    -0.113 C  
BRANCH  20  21
HETATM   21  C   UNL     1      -6.785   8.211  71.613  1.00  0.00    -0.060 C  
HETATM   22  N   UNL     1      -7.100   9.495  70.999  1.00  0.00    -0.298 NA 
HETATM   23  H1  UNL     1      -7.200   9.390  69.990  1.00  0.00     0.000 HD 
HETATM   24  H2  UNL     1      -6.415  10.211  71.241  1.00  0.00     0.000 HD 
ENDBRANCH  20  21
ENDBRANCH  19  20
ENDBRANCH  18  19
ENDBRANCH  14  18
ENDBRANCH  12  14
ENDBRANCH   2  10
TORSDOF 8
ENDMDL
MODEL      129
REMARK 921   NORMALIZED FREE ENERGY PREDICTED BY IDOCK:   -4.45 KCAL/MOL
REMARK 922        TOTAL FREE ENERGY PREDICTED BY IDOCK:   -7.33 KCAL/MOL
REMARK 923 INTER-LIGAND FREE ENERGY PREDICTED BY IDOCK:   -6.80 KCAL/MOL
REMARK 924 INTRA-LIGAND FREE ENERGY PREDICTED BY IDOCK:   -0.52 KCAL/MOL
REMARK 927      BINDING AFFINITY PREDICTED BY RF-SCORE:    0.00 PKD
ROOT
HETATM    1  C   UNL     1      -9.850   9.078  66.263  1.00  0.00    -0.361 C  
HETATM    2  C   UNL     1     -10.070  10.590  66.253  1.00  0.00    -0.232 C  
ENDROOT
BRANCH   2   3
HETATM    3  C   UNL     1     -10.640  11.086  64.902  1.00  0.00    -0.328 C  
BRANCH   3   4
HETATM    4  C   UNL     1     -10.939  12.571  64.840  1.00  0.00    -0.335 A  
HETATM    5  C   UNL     1      -9.955  13.510  65.182  1.00  0.00    -0.201 A  
HETATM    6  C   UNL     1     -11.476  15.326  64.696  1.00  0.00    -0.356 A  
HETATM    7  C   UNL     1     -10.224  14.880  65.112  1.00  0.00    -0.409 A  
HETATM    8  C   UNL     1     -12.459  14.403  64.343  1.00  0.00    -0.339 A  
HETATM    9  C   UNL     1     -12.190  13.034  64.409  1.00  0.00    -0.471 A  
ENDBRANCH   3   4
ENDBRANCH   2   3
BRANCH   2  10
HETATM   10  N   UNL     1     -10.953  10.940  67.363  1.00  0.00    -0.278 N  
HETATM   11  H   UNL     1     -11.860  10.476  67.422  1.00  0.00     0.000 HD 
HETATM   12  C   UNL     1     -10.629  11.862  68.334  1.00  0.00    -0.218 C  
HETATM   13  O   UNL     1      -9.537  12.418  68.412  1.00  0.00    -0.216 OA 
BRANCH  12  14
HETATM   14  C   UNL     1     -11.765  12.101  69.357  1.00  0.00    -0.329 C  
HETATM   15  N   UNL     1     -11.594  11.155  70.494  1.00  0.00    -0.446 NA 
HETATM   16  H2  UNL     1     -10.669  11.219  70.918  1.00  0.00     0.000 HD 
HETATM   17  H1  UNL     1     -12.343  11.312  71.168  1.00  0.00     0.000 HD 
BRANCH  14  18
HETATM   18  C   UNL     1     -11.751  13.536  69.904  1.00  0.00    -0.341 C  
BRANCH  18  19
HETATM   19  C   UNL     1     -13.005  13.872  70.717  1.00  0.00    -0.265 C  
BRANCH  19  20
HETATM   20  C   UNL     1     -13.080  15.367  71.046  1.00  0.00    -0.565 C  
BRANCH  20  21
HETATM   21  C   UNL     1     -13.606  15.591  72.463  1.00  0.00    -0.551 C  
HETATM   22  N   UNL     1     -12.984  14.651  73.389  1.00  0.00    -0.563 NA 
HETATM   23  H1  UNL     1     -13.336  14.800  74.335  1.00  0.00     0.000 HD 
HETATM   24  H2  UNL     1     -11.966  14.696  73.350  1.00  0.00     0.000 HD 
ENDBRANCH  20  21
ENDBRANCH  19  20
ENDBRANCH  18  19
ENDBRANCH  14  18
ENDBRANCH  12  14
ENDBRANCH   2  10
TORSDOF 8
ENDMDL
MODEL      130
REMARK 921   NORMALIZED FREE ENERGY PREDICTED BY IDOCK:   -4.44 KCAL/MOL
REMARK 922        TOTAL FREE ENERGY PREDICTED BY IDOCK:   -7.31 KCAL/MOL
REMARK 923 INTER-LIGAND FREE ENERGY PREDICTED BY IDOCK:   -6.07 KCAL/MOL
REMARK 924 INTRA-LIGAND FREE ENERGY PREDICTED BY IDOCK:   -1.24 KCAL/MOL
REMARK 927      BINDING AFFINITY PREDICTED BY RF-SCORE:    0.00 PKD
ROOT
HETATM    1  C   UNL     1      -8.559  15.215  68.497  1.00  0.00    -0.163 C  
HETATM    2  C   UNL     1      -9.500  15.395  67.307  1.00  0.00    -0.210 C  
ENDROOT
BRANCH   2   3
HETATM    3  C   UNL     1      -8.907  16.340  66.234  1.00  0.00    -0.367 C  
BRANCH   3   4
HETATM    4  C   UNL     1      -9.096  17.819  66.509  1.00  0.00    -0.281 A  
HETATM    5  C   UNL     1     -10.383  18.358  66.648  1.00  0.00    -0.422 A  
HETATM    6  C   UNL     1      -9.454  20.553  67.053  1.00  0.00    -0.516 A  
HETATM    7  C   UNL     1     -10.560  19.718  66.917  1.00  0.00    -0.588 A  
HETATM    8  C   UNL     1      -8.169  20.028  66.928  1.00  0.00    -0.368 A  
HETATM    9  C   UNL     1      -7.991  18.668  66.663  1.00  0.00    -0.280 A  
ENDBRANCH   3   4
ENDBRANCH   2   3
BRANCH   2  10
HETATM   10  N   UNL     1      -9.801  14.079  66.748  1.00  0.00    -0.265 N  
HETATM   11  H   UNL     1      -9.059  13.379  66.737  1.00  0.00     0.000 HD 
HETATM   12  C   UNL     1     -11.032  13.732  66.235  1.00  0.00    -0.297 C  
HETATM   13  O   UNL     1     -12.019  14.461  66.273  1.00  0.00    -0.396 OA 
BRANCH  12  14
HETATM   14  C   UNL     1     -11.069  12.304  65.642  1.00  0.00    -0.317 C  
HETATM   15  N   UNL     1      -9.909  12.134  64.725  1.00  0.00    -0.426 NA 
HETATM   16  H2  UNL     1      -9.019  12.344  65.179  1.00  0.00     0.000 HD 
HETATM   17  H1  UNL     1      -9.933  11.192  64.334  1.00  0.00     0.000 HD 
BRANCH  14  18
HETATM   18  C   UNL     1     -10.995  11.228  66.736  1.00  0.00    -0.339 C  
BRANCH  18  19
HETATM   19  C   UNL     1      -9.763  10.327  66.596  1.00  0.00    -0.233 C  
BRANCH  19  20
HETATM   20  C   UNL     1      -8.845  10.436  67.820  1.00  0.00    -0.128 C  
BRANCH  20  21
HETATM   21  C   UNL     1      -7.436  10.864  67.410  1.00  0.00    -0.100 C  
HETATM   22  N   UNL     1      -7.446  12.238  66.922  1.00  0.00    -0.372 NA 
HETATM   23  H1  UNL     1      -6.505  12.524  66.648  1.00  0.00     0.000 HD 
HETATM   24  H2  UNL     1      -7.856  12.880  67.601  1.00  0.00     0.000 HD 
ENDBRANCH  20  21
ENDBRANCH  19  20
ENDBRANCH  18  19
ENDBRANCH  14  18
ENDBRANCH  12  14
ENDBRANCH   2  10
TORSDOF 8
ENDMDL
MODEL      131
REMARK 921   NORMALIZED FREE ENERGY PREDICTED BY IDOCK:   -4.44 KCAL/MOL
REMARK 922        TOTAL FREE ENERGY PREDICTED BY IDOCK:   -7.31 KCAL/MOL
REMARK 923 INTER-LIGAND FREE ENERGY PREDICTED BY IDOCK:   -6.67 KCAL/MOL
REMARK 924 INTRA-LIGAND FREE ENERGY PREDICTED BY IDOCK:   -0.63 KCAL/MOL
REMARK 927      BINDING AFFINITY PREDICTED BY RF-SCORE:    0.00 PKD
ROOT
HETATM    1  C   UNL     1     -11.999  14.339  66.463  1.00  0.00    -0.448 C  
HETATM    2  C   UNL     1     -10.855  14.483  65.461  1.00  0.00    -0.336 C  
ENDROOT
BRANCH   2   3
HETATM    3  C   UNL     1      -9.626  15.192  66.078  1.00  0.00    -0.365 C  
BRANCH   3   4
HETATM    4  C   UNL     1      -9.913  16.541  66.706  1.00  0.00    -0.281 A  
HETATM    5  C   UNL     1     -10.337  17.619  65.914  1.00  0.00    -0.261 A  
HETATM    6  C   UNL     1     -10.480  19.037  67.867  1.00  0.00    -0.474 A  
HETATM    7  C   UNL     1     -10.617  18.860  66.492  1.00  0.00    -0.462 A  
HETATM    8  C   UNL     1     -10.070  17.972  68.667  1.00  0.00    -0.401 A  
HETATM    9  C   UNL     1      -9.794  16.730  68.090  1.00  0.00    -0.264 A  
ENDBRANCH   3   4
ENDBRANCH   2   3
BRANCH   2  10
HETATM   10  N   UNL     1     -10.507  13.157  64.958  1.00  0.00    -0.327 N  
HETATM   11  H   UNL     1      -9.797  12.623  65.458  1.00  0.00     0.000 HD 
HETATM   12  C   UNL     1     -11.085  12.588  63.844  1.00  0.00    -0.423 C  
HETATM   13  O   UNL     1     -12.007  13.100  63.214  1.00  0.00    -0.545 OA 
BRANCH  12  14
HETATM   14  C   UNL     1     -10.491  11.206  63.482  1.00  0.00    -0.358 C  
HETATM   15  N   UNL     1      -9.459  11.388  62.425  1.00  0.00    -0.454 NA 
HETATM   16  H2  UNL     1      -8.742  12.061  62.693  1.00  0.00     0.000 HD 
HETATM   17  H1  UNL     1      -9.068  10.477  62.186  1.00  0.00     0.000 HD 
BRANCH  14  18
HETATM   18  C   UNL     1      -9.840  10.528  64.696  1.00  0.00    -0.404 C  
BRANCH  18  19
HETATM   19  C   UNL     1      -8.364  10.188  64.462  1.00  0.00    -0.168 C  
BRANCH  19  20
HETATM   20  C   UNL     1      -7.996   8.829  65.067  1.00  0.00    -0.132 C  
BRANCH  20  21
HETATM   21  C   UNL     1      -9.031   8.392  66.104  1.00  0.00    -0.177 C  
HETATM   22  N   UNL     1      -9.440   7.013  65.863  1.00  0.00    -0.394 NA 
HETATM   23  H1  UNL     1     -10.131   6.723  66.554  1.00  0.00     0.000 HD 
HETATM   24  H2  UNL     1      -8.641   6.380  65.834  1.00  0.00     0.000 HD 
ENDBRANCH  20  21
ENDBRANCH  19  20
ENDBRANCH  18  19
ENDBRANCH  14  18
ENDBRANCH  12  14
ENDBRANCH   2  10
TORSDOF 8
ENDMDL
MODEL      132
REMARK 921   NORMALIZED FREE ENERGY PREDICTED BY IDOCK:   -4.43 KCAL/MOL
REMARK 922        TOTAL FREE ENERGY PREDICTED BY IDOCK:   -7.29 KCAL/MOL
REMARK 923 INTER-LIGAND FREE ENERGY PREDICTED BY IDOCK:   -6.65 KCAL/MOL
REMARK 924 INTRA-LIGAND FREE ENERGY PREDICTED BY IDOCK:   -0.65 KCAL/MOL
REMARK 927      BINDING AFFINITY PREDICTED BY RF-SCORE:    0.00 PKD
ROOT
HETATM    1  C   UNL     1     -12.021  12.693  66.045  1.00  0.00    -0.478 C  
HETATM    2  C   UNL     1     -11.612  12.648  67.517  1.00  0.00    -0.359 C  
ENDROOT
BRANCH   2   3
HETATM    3  C   UNL     1     -10.999  11.282  67.909  1.00  0.00    -0.302 C  
BRANCH   3   4
HETATM    4  C   UNL     1     -11.426  10.754  69.264  1.00  0.00    -0.369 A  
HETATM    5  C   UNL     1     -12.334  11.474  70.054  1.00  0.00    -0.287 A  
HETATM    6  C   UNL     1     -12.248   9.765  71.763  1.00  0.00    -0.449 A  
HETATM    7  C   UNL     1     -12.741  10.982  71.298  1.00  0.00    -0.537 A  
HETATM    8  C   UNL     1     -11.354   9.034  70.983  1.00  0.00    -0.362 A  
HETATM    9  C   UNL     1     -10.950   9.523  69.738  1.00  0.00    -0.245 A  
ENDBRANCH   3   4
ENDBRANCH   2   3
BRANCH   2  10
HETATM   10  N   UNL     1     -10.680  13.742  67.775  1.00  0.00    -0.244 N  
HETATM   11  H   UNL     1      -9.807  13.766  67.250  1.00  0.00     0.000 HD 
HETATM   12  C   UNL     1     -10.917  14.745  68.690  1.00  0.00    -0.255 C  
HETATM   13  O   UNL     1     -11.966  14.867  69.316  1.00  0.00    -0.306 OA 
BRANCH  12  14
HETATM   14  C   UNL     1      -9.742  15.744  68.823  1.00  0.00    -0.213 C  
HETATM   15  N   UNL     1      -8.620  15.074  69.535  1.00  0.00    -0.426 NA 
HETATM   16  H2  UNL     1      -8.340  14.201  69.087  1.00  0.00     0.000 HD 
HETATM   17  H1  UNL     1      -7.846  15.732  69.623  1.00  0.00     0.000 HD 
BRANCH  14  18
HETATM   18  C   UNL     1      -9.241  16.223  67.454  1.00  0.00    -0.217 C  
BRANCH  18  19
HETATM   19  C   UNL     1      -9.003  17.737  67.407  1.00  0.00    -0.240 C  
BRANCH  19  20
HETATM   20  C   UNL     1      -9.977  18.431  66.449  1.00  0.00    -0.399 C  
BRANCH  20  21
HETATM   21  C   UNL     1     -10.905  19.382  67.206  1.00  0.00    -0.448 C  
HETATM   22  N   UNL     1     -10.376  19.652  68.538  1.00  0.00    -0.510 NA 
HETATM   23  H1  UNL     1     -10.996  20.286  69.043  1.00  0.00     0.000 HD 
HETATM   24  H2  UNL     1      -9.419  20.003  68.503  1.00  0.00     0.000 HD 
ENDBRANCH  20  21
ENDBRANCH  19  20
ENDBRANCH  18  19
ENDBRANCH  14  18
ENDBRANCH  12  14
ENDBRANCH   2  10
TORSDOF 8
ENDMDL
MODEL      133
REMARK 921   NORMALIZED FREE ENERGY PREDICTED BY IDOCK:   -4.43 KCAL/MOL
REMARK 922        TOTAL FREE ENERGY PREDICTED BY IDOCK:   -7.29 KCAL/MOL
REMARK 923 INTER-LIGAND FREE ENERGY PREDICTED BY IDOCK:   -6.73 KCAL/MOL
REMARK 924 INTRA-LIGAND FREE ENERGY PREDICTED BY IDOCK:   -0.56 KCAL/MOL
REMARK 927      BINDING AFFINITY PREDICTED BY RF-SCORE:    0.00 PKD
ROOT
HETATM    1  C   UNL     1     -11.151   5.977  71.855  1.00  0.00    -0.331 C  
HETATM    2  C   UNL     1     -11.045   7.006  70.730  1.00  0.00    -0.273 C  
ENDROOT
BRANCH   2   3
HETATM    3  C   UNL     1     -11.177   6.356  69.332  1.00  0.00    -0.459 C  
BRANCH   3   4
HETATM    4  C   UNL     1     -10.116   6.769  68.331  1.00  0.00    -0.168 A  
HETATM    5  C   UNL     1      -8.907   7.330  68.767  1.00  0.00    -0.127 A  
HETATM    6  C   UNL     1      -8.130   7.506  66.484  1.00  0.00    -0.120 A  
HETATM    7  C   UNL     1      -7.920   7.698  67.848  1.00  0.00    -0.118 A  
HETATM    8  C   UNL     1      -9.322   6.940  66.038  1.00  0.00    -0.026 A  
HETATM    9  C   UNL     1     -10.307   6.568  66.957  1.00  0.00    -0.319 A  
ENDBRANCH   3   4
ENDBRANCH   2   3
BRANCH   2  10
HETATM   10  N   UNL     1     -12.066   8.030  70.939  1.00  0.00    -0.469 N  
HETATM   11  H   UNL     1     -13.039   7.733  71.011  1.00  0.00     0.000 HD 
HETATM   12  C   UNL     1     -11.786   9.375  71.043  1.00  0.00    -0.322 C  
HETATM   13  O   UNL     1     -10.650   9.839  71.056  1.00  0.00    -0.314 OA 
BRANCH  12  14
HETATM   14  C   UNL     1     -13.050  10.255  71.192  1.00  0.00    -0.390 C  
HETATM   15  N   UNL     1     -13.743   9.890  72.458  1.00  0.00    -0.610 NA 
HETATM   16  H2  UNL     1     -13.129   9.952  73.270  1.00  0.00     0.000 HD 
HETATM   17  H1  UNL     1     -14.577  10.470  72.556  1.00  0.00     0.000 HD 
BRANCH  14  18
HETATM   18  C   UNL     1     -12.705  11.751  71.232  1.00  0.00    -0.420 C  
BRANCH  18  19
HETATM   19  C   UNL     1     -13.649  12.551  72.136  1.00  0.00    -0.458 C  
BRANCH  19  20
HETATM   20  C   UNL     1     -13.173  13.999  72.304  1.00  0.00    -0.558 C  
BRANCH  20  21
HETATM   21  C   UNL     1     -14.025  14.956  71.470  1.00  0.00    -0.486 C  
HETATM   22  N   UNL     1     -13.206  15.611  70.457  1.00  0.00    -0.762 NA 
HETATM   23  H1  UNL     1     -13.774  16.250  69.901  1.00  0.00     0.000 HD 
HETATM   24  H2  UNL     1     -12.711  14.937  69.874  1.00  0.00     0.000 HD 
ENDBRANCH  20  21
ENDBRANCH  19  20
ENDBRANCH  18  19
ENDBRANCH  14  18
ENDBRANCH  12  14
ENDBRANCH   2  10
TORSDOF 8
ENDMDL
MODEL      134
REMARK 921   NORMALIZED FREE ENERGY PREDICTED BY IDOCK:   -4.42 KCAL/MOL
REMARK 922        TOTAL FREE ENERGY PREDICTED BY IDOCK:   -7.28 KCAL/MOL
REMARK 923 INTER-LIGAND FREE ENERGY PREDICTED BY IDOCK:   -6.87 KCAL/MOL
REMARK 924 INTRA-LIGAND FREE ENERGY PREDICTED BY IDOCK:   -0.41 KCAL/MOL
REMARK 927      BINDING AFFINITY PREDICTED BY RF-SCORE:    0.00 PKD
ROOT
HETATM    1  C   UNL     1     -12.062  12.419  70.539  1.00  0.00    -0.363 C  
HETATM    2  C   UNL     1     -11.182  12.014  69.357  1.00  0.00    -0.196 C  
ENDROOT
BRANCH   2   3
HETATM    3  C   UNL     1     -12.016  11.486  68.164  1.00  0.00    -0.206 C  
BRANCH   3   4
HETATM    4  C   UNL     1     -11.213  11.141  66.925  1.00  0.00    -0.258 A  
HETATM    5  C   UNL     1     -11.384  11.873  65.741  1.00  0.00    -0.354 A  
HETATM    6  C   UNL     1      -9.705  10.530  64.634  1.00  0.00    -0.369 A  
HETATM    7  C   UNL     1     -10.634  11.567  64.601  1.00  0.00    -0.369 A  
HETATM    8  C   UNL     1      -9.518   9.802  65.807  1.00  0.00    -0.300 A  
HETATM    9  C   UNL     1     -10.264  10.110  66.948  1.00  0.00    -0.295 A  
ENDBRANCH   3   4
ENDBRANCH   2   3
BRANCH   2  10
HETATM   10  N   UNL     1     -10.366  13.162  68.969  1.00  0.00    -0.436 N  
HETATM   11  H   UNL     1      -9.367  13.018  68.830  1.00  0.00     0.000 HD 
HETATM   12  C   UNL     1     -10.874  14.429  68.782  1.00  0.00    -0.251 C  
HETATM   13  O   UNL     1     -12.069  14.703  68.838  1.00  0.00    -0.286 OA 
BRANCH  12  14
HETATM   14  C   UNL     1      -9.790  15.480  68.443  1.00  0.00    -0.210 C  
HETATM   15  N   UNL     1      -9.115  15.898  69.702  1.00  0.00    -0.156 NA 
HETATM   16  H2  UNL     1      -8.739  15.106  70.224  1.00  0.00     0.000 HD 
HETATM   17  H1  UNL     1      -8.401  16.591  69.479  1.00  0.00     0.000 HD 
BRANCH  14  18
HETATM   18  C   UNL     1      -8.733  14.922  67.479  1.00  0.00    -0.197 C  
BRANCH  18  19
HETATM   19  C   UNL     1      -8.807  15.559  66.087  1.00  0.00    -0.273 C  
BRANCH  19  20
HETATM   20  C   UNL     1     -10.138  16.289  65.871  1.00  0.00    -0.381 C  
BRANCH  20  21
HETATM   21  C   UNL     1     -10.984  15.584  64.811  1.00  0.00    -0.399 C  
HETATM   22  N   UNL     1     -11.596  16.561  63.919  1.00  0.00    -1.578 NA 
HETATM   23  H1  UNL     1     -12.161  16.091  63.212  1.00  0.00     0.000 HD 
HETATM   24  H2  UNL     1     -10.903  17.182  63.502  1.00  0.00     0.000 HD 
ENDBRANCH  20  21
ENDBRANCH  19  20
ENDBRANCH  18  19
ENDBRANCH  14  18
ENDBRANCH  12  14
ENDBRANCH   2  10
TORSDOF 8
ENDMDL
MODEL      135
REMARK 921   NORMALIZED FREE ENERGY PREDICTED BY IDOCK:   -4.41 KCAL/MOL
REMARK 922        TOTAL FREE ENERGY PREDICTED BY IDOCK:   -7.27 KCAL/MOL
REMARK 923 INTER-LIGAND FREE ENERGY PREDICTED BY IDOCK:   -6.69 KCAL/MOL
REMARK 924 INTRA-LIGAND FREE ENERGY PREDICTED BY IDOCK:   -0.58 KCAL/MOL
REMARK 927      BINDING AFFINITY PREDICTED BY RF-SCORE:    0.00 PKD
ROOT
HETATM    1  C   UNL     1     -10.830  14.984  66.061  1.00  0.00    -0.334 C  
HETATM    2  C   UNL     1     -11.005  15.694  67.403  1.00  0.00    -0.293 C  
ENDROOT
BRANCH   2   3
HETATM    3  C   UNL     1     -10.678  14.768  68.599  1.00  0.00    -0.253 C  
BRANCH   3   4
HETATM    4  C   UNL     1     -11.445  15.070  69.871  1.00  0.00    -0.320 A  
HETATM    5  C   UNL     1     -12.522  14.260  70.261  1.00  0.00    -0.422 A  
HETATM    6  C   UNL     1     -12.851  15.602  72.246  1.00  0.00    -0.523 A  
HETATM    7  C   UNL     1     -13.222  14.526  71.442  1.00  0.00    -0.424 A  
HETATM    8  C   UNL     1     -11.777  16.408  71.875  1.00  0.00    -0.419 A  
HETATM    9  C   UNL     1     -11.074  16.140  70.697  1.00  0.00    -0.318 A  
ENDBRANCH   3   4
ENDBRANCH   2   3
BRANCH   2  10
HETATM   10  N   UNL     1     -10.165  16.889  67.410  1.00  0.00    -0.291 N  
HETATM   11  H   UNL     1      -9.518  17.019  68.188  1.00  0.00     0.000 HD 
HETATM   12  C   UNL     1     -10.198  17.851  66.424  1.00  0.00    -0.372 C  
HETATM   13  O   UNL     1     -10.872  17.760  65.402  1.00  0.00    -0.550 OA 
BRANCH  12  14
HETATM   14  C   UNL     1      -9.260  19.050  66.703  1.00  0.00    -0.329 C  
HETATM   15  N   UNL     1      -9.933  20.300  66.257  1.00  0.00    -0.592 NA 
HETATM   16  H2  UNL     1     -10.854  20.420  66.680  1.00  0.00     0.000 HD 
HETATM   17  H1  UNL     1      -9.315  21.090  66.440  1.00  0.00     0.000 HD 
BRANCH  14  18
HETATM   18  C   UNL     1      -8.924  19.177  68.196  1.00  0.00    -0.365 C  
BRANCH  18  19
HETATM   19  C   UNL     1      -7.422  19.344  68.452  1.00  0.00    -0.355 C  
BRANCH  19  20
HETATM   20  C   UNL     1      -6.791  18.047  68.970  1.00  0.00    -0.250 C  
BRANCH  20  21
HETATM   21  C   UNL     1      -6.348  17.153  67.812  1.00  0.00    -0.145 C  
HETATM   22  N   UNL     1      -7.251  16.016  67.674  1.00  0.00    -0.138 NA 
HETATM   23  H1  UNL     1      -6.955  15.419  66.902  1.00  0.00     0.000 HD 
HETATM   24  H2  UNL     1      -8.222  16.312  67.576  1.00  0.00     0.000 HD 
ENDBRANCH  20  21
ENDBRANCH  19  20
ENDBRANCH  18  19
ENDBRANCH  14  18
ENDBRANCH  12  14
ENDBRANCH   2  10
TORSDOF 8
ENDMDL
MODEL      136
REMARK 921   NORMALIZED FREE ENERGY PREDICTED BY IDOCK:   -4.40 KCAL/MOL
REMARK 922        TOTAL FREE ENERGY PREDICTED BY IDOCK:   -7.24 KCAL/MOL
REMARK 923 INTER-LIGAND FREE ENERGY PREDICTED BY IDOCK:   -6.52 KCAL/MOL
REMARK 924 INTRA-LIGAND FREE ENERGY PREDICTED BY IDOCK:   -0.73 KCAL/MOL
REMARK 927      BINDING AFFINITY PREDICTED BY RF-SCORE:    0.00 PKD
ROOT
HETATM    1  C   UNL     1     -11.837  11.422  69.586  1.00  0.00    -0.431 C  
HETATM    2  C   UNL     1     -11.251  10.784  68.327  1.00  0.00    -0.297 C  
ENDROOT
BRANCH   2   3
HETATM    3  C   UNL     1     -10.427  11.794  67.492  1.00  0.00    -0.228 C  
BRANCH   3   4
HETATM    4  C   UNL     1     -10.966  12.067  66.103  1.00  0.00    -0.343 A  
HETATM    5  C   UNL     1     -12.082  12.899  65.924  1.00  0.00    -0.503 A  
HETATM    6  C   UNL     1     -11.953  12.606  63.527  1.00  0.00    -0.630 A  
HETATM    7  C   UNL     1     -12.573  13.165  64.642  1.00  0.00    -0.384 A  
HETATM    8  C   UNL     1     -10.838  11.787  63.690  1.00  0.00    -0.508 A  
HETATM    9  C   UNL     1     -10.344  11.524  64.971  1.00  0.00    -0.333 A  
ENDBRANCH   3   4
ENDBRANCH   2   3
BRANCH   2  10
HETATM   10  N   UNL     1     -10.442   9.634  68.721  1.00  0.00    -0.209 N  
HETATM   11  H   UNL     1      -9.989   9.654  69.634  1.00  0.00     0.000 HD 
HETATM   12  C   UNL     1     -10.257   8.523  67.926  1.00  0.00    -0.218 C  
HETATM   13  O   UNL     1     -10.820   8.352  66.849  1.00  0.00    -0.211 OA 
BRANCH  12  14
HETATM   14  C   UNL     1      -9.301   7.477  68.547  1.00  0.00    -0.142 C  
HETATM   15  N   UNL     1      -7.984   8.122  68.803  1.00  0.00    -0.113 NA 
HETATM   16  H2  UNL     1      -8.066   8.962  69.376  1.00  0.00     0.000 HD 
HETATM   17  H1  UNL     1      -7.353   7.433  69.211  1.00  0.00     0.000 HD 
BRANCH  14  18
HETATM   18  C   UNL     1      -9.843   6.920  69.871  1.00  0.00    -0.172 C  
BRANCH  18  19
HETATM   19  C   UNL     1     -11.251   6.330  69.732  1.00  0.00    -0.499 C  
BRANCH  19  20
HETATM   20  C   UNL     1     -12.177   6.811  70.855  1.00  0.00    -0.386 C  
BRANCH  20  21
HETATM   21  C   UNL     1     -11.550   6.562  72.226  1.00  0.00    -0.292 C  
HETATM   22  N   UNL     1     -11.670   7.751  73.062  1.00  0.00    -0.616 NA 
HETATM   23  H1  UNL     1     -11.251   7.584  73.977  1.00  0.00     0.000 HD 
HETATM   24  H2  UNL     1     -12.637   8.066  73.138  1.00  0.00     0.000 HD 
ENDBRANCH  20  21
ENDBRANCH  19  20
ENDBRANCH  18  19
ENDBRANCH  14  18
ENDBRANCH  12  14
ENDBRANCH   2  10
TORSDOF 8
ENDMDL
MODEL      137
REMARK 921   NORMALIZED FREE ENERGY PREDICTED BY IDOCK:   -4.39 KCAL/MOL
REMARK 922        TOTAL FREE ENERGY PREDICTED BY IDOCK:   -7.23 KCAL/MOL
REMARK 923 INTER-LIGAND FREE ENERGY PREDICTED BY IDOCK:   -6.76 KCAL/MOL
REMARK 924 INTRA-LIGAND FREE ENERGY PREDICTED BY IDOCK:   -0.47 KCAL/MOL
REMARK 927      BINDING AFFINITY PREDICTED BY RF-SCORE:    0.00 PKD
ROOT
HETATM    1  C   UNL     1     -13.051  10.806  71.768  1.00  0.00    -0.573 C  
HETATM    2  C   UNL     1     -12.092   9.900  70.997  1.00  0.00    -0.358 C  
ENDROOT
BRANCH   2   3
HETATM    3  C   UNL     1     -12.469   8.405  71.130  1.00  0.00    -0.189 C  
BRANCH   3   4
HETATM    4  C   UNL     1     -11.567   7.596  72.040  1.00  0.00    -0.334 A  
HETATM    5  C   UNL     1     -11.738   6.209  72.161  1.00  0.00    -0.361 A  
HETATM    6  C   UNL     1      -9.878   6.083  73.701  1.00  0.00    -0.180 A  
HETATM    7  C   UNL     1     -10.898   5.458  72.988  1.00  0.00    -0.323 A  
HETATM    8  C   UNL     1      -9.690   7.459  73.581  1.00  0.00    -0.349 A  
HETATM    9  C   UNL     1     -10.527   8.210  72.752  1.00  0.00    -0.385 A  
ENDBRANCH   3   4
ENDBRANCH   2   3
BRANCH   2  10
HETATM   10  N   UNL     1     -12.076  10.322  69.599  1.00  0.00    -0.505 N  
HETATM   11  H   UNL     1     -12.964  10.553  69.154  1.00  0.00     0.000 HD 
HETATM   12  C   UNL     1     -10.926  10.426  68.847  1.00  0.00    -0.245 C  
HETATM   13  O   UNL     1      -9.796  10.257  69.297  1.00  0.00    -0.206 OA 
BRANCH  12  14
HETATM   14  C   UNL     1     -11.188  10.826  67.375  1.00  0.00    -0.241 C  
HETATM   15  N   UNL     1     -11.925  12.119  67.353  1.00  0.00    -0.570 NA 
HETATM   16  H2  UNL     1     -11.443  12.851  67.875  1.00  0.00     0.000 HD 
HETATM   17  H1  UNL     1     -12.099  12.383  66.384  1.00  0.00     0.000 HD 
BRANCH  14  18
HETATM   18  C   UNL     1      -9.882  10.989  66.585  1.00  0.00    -0.235 C  
BRANCH  18  19
HETATM   19  C   UNL     1      -9.985  12.053  65.486  1.00  0.00    -0.267 C  
BRANCH  19  20
HETATM   20  C   UNL     1     -10.594  11.478  64.202  1.00  0.00    -0.420 C  
BRANCH  20  21
HETATM   21  C   UNL     1      -9.518  11.255  63.138  1.00  0.00    -0.353 C  
HETATM   22  N   UNL     1      -9.828  10.072  62.345  1.00  0.00    -0.670 NA 
HETATM   23  H1  UNL     1      -9.110   9.923  61.636  1.00  0.00     0.000 HD 
HETATM   24  H2  UNL     1     -10.762  10.122  61.937  1.00  0.00     0.000 HD 
ENDBRANCH  20  21
ENDBRANCH  19  20
ENDBRANCH  18  19
ENDBRANCH  14  18
ENDBRANCH  12  14
ENDBRANCH   2  10
TORSDOF 8
ENDMDL
MODEL      138
REMARK 921   NORMALIZED FREE ENERGY PREDICTED BY IDOCK:   -4.38 KCAL/MOL
REMARK 922        TOTAL FREE ENERGY PREDICTED BY IDOCK:   -7.22 KCAL/MOL
REMARK 923 INTER-LIGAND FREE ENERGY PREDICTED BY IDOCK:   -7.36 KCAL/MOL
REMARK 924 INTRA-LIGAND FREE ENERGY PREDICTED BY IDOCK:    0.14 KCAL/MOL
REMARK 927      BINDING AFFINITY PREDICTED BY RF-SCORE:    0.00 PKD
ROOT
HETATM    1  C   UNL     1     -10.649  14.395  68.920  1.00  0.00    -0.250 C  
HETATM    2  C   UNL     1     -10.903  12.888  68.898  1.00  0.00    -0.200 C  
ENDROOT
BRANCH   2   3
HETATM    3  C   UNL     1     -12.156  12.498  69.719  1.00  0.00    -0.293 C  
BRANCH   3   4
HETATM    4  C   UNL     1     -12.031  11.207  70.502  1.00  0.00    -0.475 A  
HETATM    5  C   UNL     1     -10.979  10.316  70.243  1.00  0.00    -0.375 A  
HETATM    6  C   UNL     1     -11.773   8.826  71.975  1.00  0.00    -0.442 A  
HETATM    7  C   UNL     1     -10.852   9.132  70.975  1.00  0.00    -0.362 A  
HETATM    8  C   UNL     1     -12.817   9.707  72.249  1.00  0.00    -0.407 A  
HETATM    9  C   UNL     1     -12.942  10.894  71.521  1.00  0.00    -0.556 A  
ENDBRANCH   3   4
ENDBRANCH   2   3
BRANCH   2  10
HETATM   10  N   UNL     1     -11.022  12.457  67.508  1.00  0.00    -0.242 N  
HETATM   11  H   UNL     1     -10.407  11.712  67.180  1.00  0.00     0.000 HD 
HETATM   12  C   UNL     1     -11.919  13.001  66.615  1.00  0.00    -0.387 C  
HETATM   13  O   UNL     1     -12.763  13.839  66.917  1.00  0.00    -0.118 OA 
BRANCH  12  14
HETATM   14  C   UNL     1     -11.796  12.415  65.188  1.00  0.00    -0.388 C  
HETATM   15  N   UNL     1     -13.146  12.388  64.560  1.00  0.00    -0.815 NA 
HETATM   16  H2  UNL     1     -13.597  13.303  64.568  1.00  0.00     0.000 HD 
HETATM   17  H1  UNL     1     -13.064  12.002  63.620  1.00  0.00     0.000 HD 
BRANCH  14  18
HETATM   18  C   UNL     1     -10.858  13.252  64.305  1.00  0.00    -0.414 C  
BRANCH  18  19
HETATM   19  C   UNL     1     -10.064  14.291  65.105  1.00  0.00    -0.353 C  
BRANCH  19  20
HETATM   20  C   UNL     1     -10.573  15.713  64.843  1.00  0.00    -0.344 C  
BRANCH  20  21
HETATM   21  C   UNL     1     -10.254  16.634  66.020  1.00  0.00    -0.351 C  
HETATM   22  N   UNL     1     -10.590  18.014  65.689  1.00  0.00    -0.591 NA 
HETATM   23  H1  UNL     1     -10.377  18.629  66.474  1.00  0.00     0.000 HD 
HETATM   24  H2  UNL     1     -11.560  18.107  65.386  1.00  0.00     0.000 HD 
ENDBRANCH  20  21
ENDBRANCH  19  20
ENDBRANCH  18  19
ENDBRANCH  14  18
ENDBRANCH  12  14
ENDBRANCH   2  10
TORSDOF 8
ENDMDL
MODEL      139
REMARK 921   NORMALIZED FREE ENERGY PREDICTED BY IDOCK:   -4.38 KCAL/MOL
REMARK 922        TOTAL FREE ENERGY PREDICTED BY IDOCK:   -7.21 KCAL/MOL
REMARK 923 INTER-LIGAND FREE ENERGY PREDICTED BY IDOCK:   -6.86 KCAL/MOL
REMARK 924 INTRA-LIGAND FREE ENERGY PREDICTED BY IDOCK:   -0.35 KCAL/MOL
REMARK 927      BINDING AFFINITY PREDICTED BY RF-SCORE:    0.00 PKD
ROOT
HETATM    1  C   UNL     1     -12.070  11.196  69.326  1.00  0.00    -0.377 C  
HETATM    2  C   UNL     1     -12.107  11.290  70.850  1.00  0.00    -0.301 C  
ENDROOT
BRANCH   2   3
HETATM    3  C   UNL     1     -13.242  12.217  71.349  1.00  0.00    -0.168 C  
BRANCH   3   4
HETATM    4  C   UNL     1     -12.809  13.625  71.703  1.00  0.00    -0.427 A  
HETATM    5  C   UNL     1     -11.981  14.354  70.836  1.00  0.00    -0.393 A  
HETATM    6  C   UNL     1     -12.029  16.251  72.336  1.00  0.00    -0.630 A  
HETATM    7  C   UNL     1     -11.592  15.659  71.153  1.00  0.00    -0.462 A  
HETATM    8  C   UNL     1     -12.861  15.542  73.200  1.00  0.00    -0.610 A  
HETATM    9  C   UNL     1     -13.253  14.238  72.883  1.00  0.00    -0.593 A  
ENDBRANCH   3   4
ENDBRANCH   2   3
BRANCH   2  10
HETATM   10  N   UNL     1     -12.243   9.942  71.397  1.00  0.00    -0.380 N  
HETATM   11  H   UNL     1     -13.182   9.578  71.554  1.00  0.00     0.000 HD 
HETATM   12  C   UNL     1     -11.170   9.136  71.712  1.00  0.00    -0.381 C  
HETATM   13  O   UNL     1     -10.001   9.434  71.487  1.00  0.00    -0.266 OA 
BRANCH  12  14
HETATM   14  C   UNL     1     -11.584   7.783  72.340  1.00  0.00    -0.356 C  
HETATM   15  N   UNL     1     -13.058   7.622  72.208  1.00  0.00    -0.503 NA 
HETATM   16  H2  UNL     1     -13.376   7.717  71.244  1.00  0.00     0.000 HD 
HETATM   17  H1  UNL     1     -13.330   6.731  72.622  1.00  0.00     0.000 HD 
BRANCH  14  18
HETATM   18  C   UNL     1     -10.895   6.597  71.648  1.00  0.00    -0.269 C  
BRANCH  18  19
HETATM   19  C   UNL     1     -10.413   5.533  72.639  1.00  0.00    -0.257 C  
BRANCH  19  20
HETATM   20  C   UNL     1     -10.202   4.178  71.953  1.00  0.00    -0.180 C  
BRANCH  20  21
HETATM   21  C   UNL     1     -10.122   3.050  72.982  1.00  0.00    -0.139 C  
HETATM   22  N   UNL     1     -11.356   2.982  73.756  1.00  0.00    -0.171 NA 
HETATM   23  H1  UNL     1     -11.302   2.229  74.443  1.00  0.00     0.000 HD 
HETATM   24  H2  UNL     1     -12.176   2.892  73.157  1.00  0.00     0.000 HD 
ENDBRANCH  20  21
ENDBRANCH  19  20
ENDBRANCH  18  19
ENDBRANCH  14  18
ENDBRANCH  12  14
ENDBRANCH   2  10
TORSDOF 8
ENDMDL
MODEL      140
REMARK 921   NORMALIZED FREE ENERGY PREDICTED BY IDOCK:   -4.36 KCAL/MOL
REMARK 922        TOTAL FREE ENERGY PREDICTED BY IDOCK:   -7.18 KCAL/MOL
REMARK 923 INTER-LIGAND FREE ENERGY PREDICTED BY IDOCK:   -6.43 KCAL/MOL
REMARK 924 INTRA-LIGAND FREE ENERGY PREDICTED BY IDOCK:   -0.75 KCAL/MOL
REMARK 927      BINDING AFFINITY PREDICTED BY RF-SCORE:    0.00 PKD
ROOT
HETATM    1  C   UNL     1      -8.761  11.660  68.328  1.00  0.00    -0.163 C  
HETATM    2  C   UNL     1      -9.918  10.815  68.860  1.00  0.00    -0.202 C  
ENDROOT
BRANCH   2   3
HETATM    3  C   UNL     1     -11.291  11.479  68.604  1.00  0.00    -0.330 C  
BRANCH   3   4
HETATM    4  C   UNL     1     -11.932  12.116  69.821  1.00  0.00    -0.372 A  
HETATM    5  C   UNL     1     -12.510  11.319  70.819  1.00  0.00    -0.471 A  
HETATM    6  C   UNL     1     -13.091  13.288  72.097  1.00  0.00    -0.486 A  
HETATM    7  C   UNL     1     -13.088  11.903  71.951  1.00  0.00    -0.474 A  
HETATM    8  C   UNL     1     -12.511  14.091  71.117  1.00  0.00    -0.447 A  
HETATM    9  C   UNL     1     -11.929  13.508  69.988  1.00  0.00    -0.410 A  
ENDBRANCH   3   4
ENDBRANCH   2   3
BRANCH   2  10
HETATM   10  N   UNL     1      -9.845   9.490  68.249  1.00  0.00    -0.151 N  
HETATM   11  H   UNL     1      -9.433   9.409  67.320  1.00  0.00     0.000 HD 
HETATM   12  C   UNL     1     -10.304   8.343  68.860  1.00  0.00    -0.215 C  
HETATM   13  O   UNL     1     -10.739   8.305  70.007  1.00  0.00    -0.237 OA 
BRANCH  12  14
HETATM   14  C   UNL     1     -10.173   7.081  67.973  1.00  0.00    -0.182 C  
HETATM   15  N   UNL     1     -11.517   6.459  67.821  1.00  0.00    -0.632 NA 
HETATM   16  H2  UNL     1     -12.213   7.116  67.465  1.00  0.00     0.000 HD 
HETATM   17  H1  UNL     1     -11.432   5.628  67.237  1.00  0.00     0.000 HD 
BRANCH  14  18
HETATM   18  C   UNL     1      -9.626   7.417  66.578  1.00  0.00    -0.228 C  
BRANCH  18  19
HETATM   19  C   UNL     1      -8.596   6.394  66.085  1.00  0.00    -0.144 C  
BRANCH  19  20
HETATM   20  C   UNL     1      -9.051   4.958  66.366  1.00  0.00    -0.127 C  
BRANCH  20  21
HETATM   21  C   UNL     1      -9.766   4.362  65.153  1.00  0.00    -0.178 C  
HETATM   22  N   UNL     1     -11.212   4.462  65.318  1.00  0.00    -0.983 NA 
HETATM   23  H1  UNL     1     -11.689   4.064  64.509  1.00  0.00     0.000 HD 
HETATM   24  H2  UNL     1     -11.508   5.420  65.502  1.00  0.00     0.000 HD 
ENDBRANCH  20  21
ENDBRANCH  19  20
ENDBRANCH  18  19
ENDBRANCH  14  18
ENDBRANCH  12  14
ENDBRANCH   2  10
TORSDOF 8
ENDMDL
MODEL      141
REMARK 921   NORMALIZED FREE ENERGY PREDICTED BY IDOCK:   -4.34 KCAL/MOL
REMARK 922        TOTAL FREE ENERGY PREDICTED BY IDOCK:   -7.16 KCAL/MOL
REMARK 923 INTER-LIGAND FREE ENERGY PREDICTED BY IDOCK:   -6.44 KCAL/MOL
REMARK 924 INTRA-LIGAND FREE ENERGY PREDICTED BY IDOCK:   -0.72 KCAL/MOL
REMARK 927      BINDING AFFINITY PREDICTED BY RF-SCORE:    0.00 PKD
ROOT
HETATM    1  C   UNL     1      -9.558  10.741  69.044  1.00  0.00    -0.193 C  
HETATM    2  C   UNL     1      -9.949  11.797  68.010  1.00  0.00    -0.188 C  
ENDROOT
BRANCH   2   3
HETATM    3  C   UNL     1     -11.368  11.558  67.441  1.00  0.00    -0.367 C  
BRANCH   3   4
HETATM    4  C   UNL     1     -11.659  12.260  66.131  1.00  0.00    -0.450 A  
HETATM    5  C   UNL     1     -12.366  13.472  66.115  1.00  0.00    -0.463 A  
HETATM    6  C   UNL     1     -12.173  13.588  63.707  1.00  0.00    -0.449 A  
HETATM    7  C   UNL     1     -12.623  14.130  64.908  1.00  0.00    -0.362 A  
HETATM    8  C   UNL     1     -11.460  12.391  63.710  1.00  0.00    -0.544 A  
HETATM    9  C   UNL     1     -11.200  11.734  64.916  1.00  0.00    -0.328 A  
ENDBRANCH   3   4
ENDBRANCH   2   3
BRANCH   2  10
HETATM   10  N   UNL     1      -9.839  13.116  68.629  1.00  0.00    -0.400 N  
HETATM   11  H   UNL     1     -10.205  13.238  69.573  1.00  0.00     0.000 HD 
HETATM   12  C   UNL     1      -9.268  14.205  68.006  1.00  0.00    -0.195 C  
HETATM   13  O   UNL     1      -8.721  14.156  66.909  1.00  0.00    -0.215 OA 
BRANCH  12  14
HETATM   14  C   UNL     1      -9.340  15.501  68.849  1.00  0.00    -0.222 C  
HETATM   15  N   UNL     1      -9.976  15.188  70.158  1.00  0.00    -0.498 NA 
HETATM   16  H2  UNL     1      -9.503  14.430  70.650  1.00  0.00     0.000 HD 
HETATM   17  H1  UNL     1     -10.024  16.042  70.713  1.00  0.00     0.000 HD 
BRANCH  14  18
HETATM   18  C   UNL     1      -7.947  16.093  69.107  1.00  0.00    -0.233 C  
BRANCH  18  19
HETATM   19  C   UNL     1      -7.803  17.521  68.569  1.00  0.00    -0.274 C  
BRANCH  19  20
HETATM   20  C   UNL     1      -9.147  18.258  68.561  1.00  0.00    -0.328 C  
BRANCH  20  21
HETATM   21  C   UNL     1      -9.160  19.361  67.503  1.00  0.00    -0.302 C  
HETATM   22  N   UNL     1     -10.425  19.352  66.777  1.00  0.00    -0.435 NA 
HETATM   23  H1  UNL     1     -10.433  20.088  66.070  1.00  0.00     0.000 HD 
HETATM   24  H2  UNL     1     -11.225  19.419  67.406  1.00  0.00     0.000 HD 
ENDBRANCH  20  21
ENDBRANCH  19  20
ENDBRANCH  18  19
ENDBRANCH  14  18
ENDBRANCH  12  14
ENDBRANCH   2  10
TORSDOF 8
ENDMDL
MODEL      142
REMARK 921   NORMALIZED FREE ENERGY PREDICTED BY IDOCK:   -4.33 KCAL/MOL
REMARK 922        TOTAL FREE ENERGY PREDICTED BY IDOCK:   -7.14 KCAL/MOL
REMARK 923 INTER-LIGAND FREE ENERGY PREDICTED BY IDOCK:   -6.46 KCAL/MOL
REMARK 924 INTRA-LIGAND FREE ENERGY PREDICTED BY IDOCK:   -0.68 KCAL/MOL
REMARK 927      BINDING AFFINITY PREDICTED BY RF-SCORE:    0.00 PKD
ROOT
HETATM    1  C   UNL     1     -11.580   8.849  71.878  1.00  0.00    -0.442 C  
HETATM    2  C   UNL     1     -11.134   8.195  70.571  1.00  0.00    -0.253 C  
ENDROOT
BRANCH   2   3
HETATM    3  C   UNL     1     -11.834   6.836  70.331  1.00  0.00    -0.395 C  
BRANCH   3   4
HETATM    4  C   UNL     1     -10.921   5.719  69.865  1.00  0.00    -0.389 A  
HETATM    5  C   UNL     1     -10.604   5.579  68.506  1.00  0.00    -0.208 A  
HETATM    6  C   UNL     1      -9.202   3.672  68.998  1.00  0.00    -0.225 A  
HETATM    7  C   UNL     1      -9.751   4.560  68.075  1.00  0.00    -0.192 A  
HETATM    8  C   UNL     1      -9.500   3.806  70.352  1.00  0.00    -0.254 A  
HETATM    9  C   UNL     1     -10.350   4.827  70.784  1.00  0.00    -0.184 A  
ENDBRANCH   3   4
ENDBRANCH   2   3
BRANCH   2  10
HETATM   10  N   UNL     1     -11.389   9.126  69.474  1.00  0.00    -0.435 N  
HETATM   11  H   UNL     1     -12.288   9.607  69.450  1.00  0.00     0.000 HD 
HETATM   12  C   UNL     1     -10.483   9.388  68.470  1.00  0.00    -0.208 C  
HETATM   13  O   UNL     1      -9.343   8.934  68.442  1.00  0.00    -0.137 OA 
BRANCH  12  14
HETATM   14  C   UNL     1     -11.024  10.358  67.393  1.00  0.00    -0.270 C  
HETATM   15  N   UNL     1     -12.096  11.196  67.996  1.00  0.00    -0.711 NA 
HETATM   16  H2  UNL     1     -11.783  11.684  68.836  1.00  0.00     0.000 HD 
HETATM   17  H1  UNL     1     -12.453  11.835  67.286  1.00  0.00     0.000 HD 
BRANCH  14  18
HETATM   18  C   UNL     1      -9.924  11.280  66.849  1.00  0.00    -0.238 C  
BRANCH  18  19
HETATM   19  C   UNL     1     -10.486  12.496  66.103  1.00  0.00    -0.272 C  
BRANCH  19  20
HETATM   20  C   UNL     1     -10.626  12.220  64.602  1.00  0.00    -0.338 C  
BRANCH  20  21
HETATM   21  C   UNL     1     -11.833  12.957  64.020  1.00  0.00    -0.443 C  
HETATM   22  N   UNL     1     -13.035  12.643  64.784  1.00  0.00    -0.867 NA 
HETATM   23  H1  UNL     1     -13.840  13.134  64.396  1.00  0.00     0.000 HD 
HETATM   24  H2  UNL     1     -12.915  12.836  65.778  1.00  0.00     0.000 HD 
ENDBRANCH  20  21
ENDBRANCH  19  20
ENDBRANCH  18  19
ENDBRANCH  14  18
ENDBRANCH  12  14
ENDBRANCH   2  10
TORSDOF 8
ENDMDL
MODEL      143
REMARK 921   NORMALIZED FREE ENERGY PREDICTED BY IDOCK:   -4.33 KCAL/MOL
REMARK 922        TOTAL FREE ENERGY PREDICTED BY IDOCK:   -7.14 KCAL/MOL
REMARK 923 INTER-LIGAND FREE ENERGY PREDICTED BY IDOCK:   -5.72 KCAL/MOL
REMARK 924 INTRA-LIGAND FREE ENERGY PREDICTED BY IDOCK:   -1.42 KCAL/MOL
REMARK 927      BINDING AFFINITY PREDICTED BY RF-SCORE:    0.00 PKD
ROOT
HETATM    1  C   UNL     1      -7.666   6.477  71.316  1.00  0.00    -0.095 C  
HETATM    2  C   UNL     1      -9.053   7.029  70.989  1.00  0.00    -0.151 C  
ENDROOT
BRANCH   2   3
HETATM    3  C   UNL     1      -9.300   8.409  71.644  1.00  0.00    -0.280 C  
BRANCH   3   4
HETATM    4  C   UNL     1     -10.727   8.912  71.558  1.00  0.00    -0.398 A  
HETATM    5  C   UNL     1     -11.735   8.331  72.343  1.00  0.00    -0.463 A  
HETATM    6  C   UNL     1     -13.370   9.862  71.430  1.00  0.00    -0.447 A  
HETATM    7  C   UNL     1     -13.049   8.804  72.277  1.00  0.00    -0.458 A  
HETATM    8  C   UNL     1     -12.376  10.454  70.654  1.00  0.00    -0.438 A  
HETATM    9  C   UNL     1     -11.061   9.986  70.722  1.00  0.00    -0.407 A  
ENDBRANCH   3   4
ENDBRANCH   2   3
BRANCH   2  10
HETATM   10  N   UNL     1      -9.198   7.096  69.537  1.00  0.00    -0.149 N  
HETATM   11  H   UNL     1      -8.442   7.516  68.997  1.00  0.00     0.000 HD 
HETATM   12  C   UNL     1     -10.299   6.622  68.858  1.00  0.00    -0.193 C  
HETATM   13  O   UNL     1     -11.227   6.022  69.392  1.00  0.00    -0.395 OA 
BRANCH  12  14
HETATM   14  C   UNL     1     -10.235   6.876  67.333  1.00  0.00    -0.203 C  
HETATM   15  N   UNL     1     -11.234   6.003  66.658  1.00  0.00    -0.742 NA 
HETATM   16  H2  UNL     1     -12.175   6.125  67.033  1.00  0.00     0.000 HD 
HETATM   17  H1  UNL     1     -11.192   6.170  65.653  1.00  0.00     0.000 HD 
BRANCH  14  18
HETATM   18  C   UNL     1     -10.543   8.339  66.983  1.00  0.00    -0.328 C  
BRANCH  18  19
HETATM   19  C   UNL     1      -9.300   9.115  66.534  1.00  0.00    -0.244 C  
BRANCH  19  20
HETATM   20  C   UNL     1      -9.140  10.424  67.316  1.00  0.00    -0.146 C  
BRANCH  20  21
HETATM   21  C   UNL     1      -8.116  10.268  68.440  1.00  0.00    -0.109 C  
HETATM   22  N   UNL     1      -7.233   9.139  68.169  1.00  0.00    -0.078 NA 
HETATM   23  H1  UNL     1      -6.550   9.035  68.920  1.00  0.00     0.000 HD 
HETATM   24  H2  UNL     1      -6.786   9.218  67.256  1.00  0.00     0.000 HD 
ENDBRANCH  20  21
ENDBRANCH  19  20
ENDBRANCH  18  19
ENDBRANCH  14  18
ENDBRANCH  12  14
ENDBRANCH   2  10
TORSDOF 8
ENDMDL
MODEL      144
REMARK 921   NORMALIZED FREE ENERGY PREDICTED BY IDOCK:   -4.33 KCAL/MOL
REMARK 922        TOTAL FREE ENERGY PREDICTED BY IDOCK:   -7.14 KCAL/MOL
REMARK 923 INTER-LIGAND FREE ENERGY PREDICTED BY IDOCK:   -6.36 KCAL/MOL
REMARK 924 INTRA-LIGAND FREE ENERGY PREDICTED BY IDOCK:   -0.77 KCAL/MOL
REMARK 927      BINDING AFFINITY PREDICTED BY RF-SCORE:    0.00 PKD
ROOT
HETATM    1  C   UNL     1      -7.333  11.756  68.933  1.00  0.00    -0.093 C  
HETATM    2  C   UNL     1      -8.601  12.027  68.124  1.00  0.00    -0.173 C  
ENDROOT
BRANCH   2   3
HETATM    3  C   UNL     1      -9.472  10.758  67.965  1.00  0.00    -0.166 C  
BRANCH   3   4
HETATM    4  C   UNL     1     -10.424  10.488  69.113  1.00  0.00    -0.250 A  
HETATM    5  C   UNL     1     -11.726  11.010  69.095  1.00  0.00    -0.403 A  
HETATM    6  C   UNL     1     -12.207   9.964  71.222  1.00  0.00    -0.480 A  
HETATM    7  C   UNL     1     -12.612  10.750  70.146  1.00  0.00    -0.309 A  
HETATM    8  C   UNL     1     -10.920   9.430  71.247  1.00  0.00    -0.440 A  
HETATM    9  C   UNL     1     -10.036   9.686  70.195  1.00  0.00    -0.309 A  
ENDBRANCH   3   4
ENDBRANCH   2   3
BRANCH   2  10
HETATM   10  N   UNL     1      -9.344  13.106  68.769  1.00  0.00    -0.401 N  
HETATM   11  H   UNL     1      -9.630  12.980  69.740  1.00  0.00     0.000 HD 
HETATM   12  C   UNL     1      -9.682  14.283  68.138  1.00  0.00    -0.226 C  
HETATM   13  O   UNL     1      -9.320  14.579  67.003  1.00  0.00    -0.218 OA 
BRANCH  12  14
HETATM   14  C   UNL     1     -10.529  15.231  69.020  1.00  0.00    -0.248 C  
HETATM   15  N   UNL     1     -11.300  16.148  68.137  1.00  0.00    -0.315 NA 
HETATM   16  H2  UNL     1     -11.865  15.646  67.452  1.00  0.00     0.000 HD 
HETATM   17  H1  UNL     1     -11.858  16.773  68.718  1.00  0.00     0.000 HD 
BRANCH  14  18
HETATM   18  C   UNL     1     -11.514  14.458  69.909  1.00  0.00    -0.314 C  
BRANCH  18  19
HETATM   19  C   UNL     1     -12.575  15.364  70.543  1.00  0.00    -0.471 C  
BRANCH  19  20
HETATM   20  C   UNL     1     -13.419  14.606  71.575  1.00  0.00    -0.464 C  
BRANCH  20  21
HETATM   21  C   UNL     1     -13.946  15.553  72.653  1.00  0.00    -0.528 C  
HETATM   22  N   UNL     1     -12.845  16.059  73.465  1.00  0.00    -0.555 NA 
HETATM   23  H1  UNL     1     -13.196  16.690  74.185  1.00  0.00     0.000 HD 
HETATM   24  H2  UNL     1     -12.122  16.497  72.894  1.00  0.00     0.000 HD 
ENDBRANCH  20  21
ENDBRANCH  19  20
ENDBRANCH  18  19
ENDBRANCH  14  18
ENDBRANCH  12  14
ENDBRANCH   2  10
TORSDOF 8
ENDMDL
MODEL      145
REMARK 921   NORMALIZED FREE ENERGY PREDICTED BY IDOCK:   -4.31 KCAL/MOL
REMARK 922        TOTAL FREE ENERGY PREDICTED BY IDOCK:   -7.12 KCAL/MOL
REMARK 923 INTER-LIGAND FREE ENERGY PREDICTED BY IDOCK:   -6.32 KCAL/MOL
REMARK 924 INTRA-LIGAND FREE ENERGY PREDICTED BY IDOCK:   -0.80 KCAL/MOL
REMARK 927      BINDING AFFINITY PREDICTED BY RF-SCORE:    0.00 PKD
ROOT
HETATM    1  C   UNL     1      -9.944  10.244  67.969  1.00  0.00    -0.177 C  
HETATM    2  C   UNL     1     -10.875  10.848  69.019  1.00  0.00    -0.230 C  
ENDROOT
BRANCH   2   3
HETATM    3  C   UNL     1     -11.846  11.887  68.408  1.00  0.00    -0.352 C  
BRANCH   3   4
HETATM    4  C   UNL     1     -11.911  13.212  69.141  1.00  0.00    -0.364 A  
HETATM    5  C   UNL     1     -11.689  14.416  68.456  1.00  0.00    -0.370 A  
HETATM    6  C   UNL     1     -12.063  15.675  70.486  1.00  0.00    -0.430 A  
HETATM    7  C   UNL     1     -11.763  15.640  69.126  1.00  0.00    -0.402 A  
HETATM    8  C   UNL     1     -12.296  14.487  71.176  1.00  0.00    -0.415 A  
HETATM    9  C   UNL     1     -12.226  13.263  70.506  1.00  0.00    -0.416 A  
ENDBRANCH   3   4
ENDBRANCH   2   3
BRANCH   2  10
HETATM   10  N   UNL     1     -11.601   9.765  69.677  1.00  0.00    -0.448 N  
HETATM   11  H   UNL     1     -12.468   9.437  69.251  1.00  0.00     0.000 HD 
HETATM   12  C   UNL     1     -11.178   9.161  70.841  1.00  0.00    -0.295 C  
HETATM   13  O   UNL     1     -10.112   9.413  71.395  1.00  0.00    -0.301 OA 
BRANCH  12  14
HETATM   14  C   UNL     1     -12.162   8.088  71.368  1.00  0.00    -0.309 C  
HETATM   15  N   UNL     1     -13.554   8.587  71.195  1.00  0.00    -0.559 NA 
HETATM   16  H2  UNL     1     -13.754   8.858  70.232  1.00  0.00     0.000 HD 
HETATM   17  H1  UNL     1     -14.202   7.880  71.542  1.00  0.00     0.000 HD 
BRANCH  14  18
HETATM   18  C   UNL     1     -12.016   6.759  70.613  1.00  0.00    -0.418 C  
BRANCH  18  19
HETATM   19  C   UNL     1     -10.570   6.255  70.577  1.00  0.00    -0.305 C  
BRANCH  19  20
HETATM   20  C   UNL     1     -10.389   4.999  71.438  1.00  0.00    -0.251 C  
BRANCH  20  21
HETATM   21  C   UNL     1      -9.451   5.272  72.614  1.00  0.00    -0.147 C  
HETATM   22  N   UNL     1      -8.985   6.654  72.581  1.00  0.00    -0.131 NA 
HETATM   23  H1  UNL     1      -8.359   6.836  73.365  1.00  0.00     0.000 HD 
HETATM   24  H2  UNL     1      -9.761   7.316  72.551  1.00  0.00     0.000 HD 
ENDBRANCH  20  21
ENDBRANCH  19  20
ENDBRANCH  18  19
ENDBRANCH  14  18
ENDBRANCH  12  14
ENDBRANCH   2  10
TORSDOF 8
ENDMDL
MODEL      146
REMARK 921   NORMALIZED FREE ENERGY PREDICTED BY IDOCK:   -4.31 KCAL/MOL
REMARK 922        TOTAL FREE ENERGY PREDICTED BY IDOCK:   -7.12 KCAL/MOL
REMARK 923 INTER-LIGAND FREE ENERGY PREDICTED BY IDOCK:   -6.19 KCAL/MOL
REMARK 924 INTRA-LIGAND FREE ENERGY PREDICTED BY IDOCK:   -0.93 KCAL/MOL
REMARK 927      BINDING AFFINITY PREDICTED BY RF-SCORE:    0.00 PKD
ROOT
HETATM    1  C   UNL     1     -12.574  10.807  70.557  1.00  0.00    -0.421 C  
HETATM    2  C   UNL     1     -11.271  10.670  69.769  1.00  0.00    -0.297 C  
ENDROOT
BRANCH   2   3
HETATM    3  C   UNL     1     -10.890   9.190  69.528  1.00  0.00    -0.194 C  
BRANCH   3   4
HETATM    4  C   UNL     1     -10.880   8.321  70.769  1.00  0.00    -0.252 A  
HETATM    5  C   UNL     1     -10.110   8.682  71.885  1.00  0.00    -0.398 A  
HETATM    6  C   UNL     1     -10.885   6.732  73.088  1.00  0.00    -0.315 A  
HETATM    7  C   UNL     1     -10.112   7.890  73.037  1.00  0.00    -0.384 A  
HETATM    8  C   UNL     1     -11.663   6.368  71.991  1.00  0.00    -0.376 A  
HETATM    9  C   UNL     1     -11.665   7.161  70.840  1.00  0.00    -0.367 A  
ENDBRANCH   3   4
ENDBRANCH   2   3
BRANCH   2  10
HETATM   10  N   UNL     1     -11.411  11.396  68.509  1.00  0.00    -0.268 N  
HETATM   11  H   UNL     1     -12.310  11.360  68.030  1.00  0.00     0.000 HD 
HETATM   12  C   UNL     1     -10.394  12.125  67.932  1.00  0.00    -0.206 C  
HETATM   13  O   UNL     1      -9.300  12.308  68.458  1.00  0.00    -0.183 OA 
BRANCH  12  14
HETATM   14  C   UNL     1     -10.779  12.739  66.565  1.00  0.00    -0.258 C  
HETATM   15  N   UNL     1     -12.117  12.224  66.166  1.00  0.00    -0.627 NA 
HETATM   16  H2  UNL     1     -12.827  12.388  66.880  1.00  0.00     0.000 HD 
HETATM   17  H1  UNL     1     -12.370  12.628  65.265  1.00  0.00     0.000 HD 
BRANCH  14  18
HETATM   18  C   UNL     1     -10.838  14.273  66.624  1.00  0.00    -0.301 C  
BRANCH  18  19
HETATM   19  C   UNL     1     -11.910  14.786  67.592  1.00  0.00    -0.319 C  
BRANCH  19  20
HETATM   20  C   UNL     1     -11.356  15.874  68.519  1.00  0.00    -0.374 C  
BRANCH  20  21
HETATM   21  C   UNL     1      -9.827  15.894  68.488  1.00  0.00    -0.210 C  
HETATM   22  N   UNL     1      -9.288  15.214  69.660  1.00  0.00    -0.443 NA 
HETATM   23  H1  UNL     1      -8.269  15.227  69.640  1.00  0.00     0.000 HD 
HETATM   24  H2  UNL     1      -9.655  14.266  69.752  1.00  0.00     0.000 HD 
ENDBRANCH  20  21
ENDBRANCH  19  20
ENDBRANCH  18  19
ENDBRANCH  14  18
ENDBRANCH  12  14
ENDBRANCH   2  10
TORSDOF 8
ENDMDL
MODEL      147
REMARK 921   NORMALIZED FREE ENERGY PREDICTED BY IDOCK:   -4.31 KCAL/MOL
REMARK 922        TOTAL FREE ENERGY PREDICTED BY IDOCK:   -7.12 KCAL/MOL
REMARK 923 INTER-LIGAND FREE ENERGY PREDICTED BY IDOCK:   -6.21 KCAL/MOL
REMARK 924 INTRA-LIGAND FREE ENERGY PREDICTED BY IDOCK:   -0.90 KCAL/MOL
REMARK 927      BINDING AFFINITY PREDICTED BY RF-SCORE:    0.00 PKD
ROOT
HETATM    1  C   UNL     1     -11.743  12.647  63.500  1.00  0.00    -0.604 C  
HETATM    2  C   UNL     1     -11.302  12.783  64.957  1.00  0.00    -0.309 C  
ENDROOT
BRANCH   2   3
HETATM    3  C   UNL     1     -12.302  13.616  65.793  1.00  0.00    -0.524 C  
BRANCH   3   4
HETATM    4  C   UNL     1     -11.716  14.268  67.030  1.00  0.00    -0.427 A  
HETATM    5  C   UNL     1     -11.900  13.688  68.294  1.00  0.00    -0.404 A  
HETATM    6  C   UNL     1     -10.604  15.451  69.324  1.00  0.00    -0.252 A  
HETATM    7  C   UNL     1     -11.348  14.279  69.435  1.00  0.00    -0.325 A  
HETATM    8  C   UNL     1     -10.404  16.031  68.073  1.00  0.00    -0.266 A  
HETATM    9  C   UNL     1     -10.953  15.439  66.931  1.00  0.00    -0.294 A  
ENDBRANCH   3   4
ENDBRANCH   2   3
BRANCH   2  10
HETATM   10  N   UNL     1     -11.126  11.445  65.516  1.00  0.00    -0.194 N  
HETATM   11  H   UNL     1     -11.895  10.781  65.428  1.00  0.00     0.000 HD 
HETATM   12  C   UNL     1      -9.978  11.031  66.156  1.00  0.00    -0.231 C  
HETATM   13  O   UNL     1      -8.961  11.712  66.246  1.00  0.00    -0.202 OA 
BRANCH  12  14
HETATM   14  C   UNL     1     -10.074   9.592  66.717  1.00  0.00    -0.245 C  
HETATM   15  N   UNL     1      -9.751   8.629  65.629  1.00  0.00    -0.438 NA 
HETATM   16  H2  UNL     1      -8.847   8.819  65.196  1.00  0.00     0.000 HD 
HETATM   17  H1  UNL     1      -9.814   7.681  65.998  1.00  0.00     0.000 HD 
BRANCH  14  18
HETATM   18  C   UNL     1      -9.097   9.366  67.881  1.00  0.00    -0.136 C  
BRANCH  18  19
HETATM   19  C   UNL     1      -9.759   8.687  69.085  1.00  0.00    -0.173 C  
BRANCH  19  20
HETATM   20  C   UNL     1      -9.686   7.159  68.982  1.00  0.00    -0.150 C  
BRANCH  20  21
HETATM   21  C   UNL     1     -11.076   6.557  68.781  1.00  0.00    -0.283 C  
HETATM   22  N   UNL     1     -11.395   6.480  67.360  1.00  0.00    -0.758 NA 
HETATM   23  H1  UNL     1     -12.323   6.079  67.226  1.00  0.00     0.000 HD 
HETATM   24  H2  UNL     1     -10.682   5.973  66.837  1.00  0.00     0.000 HD 
ENDBRANCH  20  21
ENDBRANCH  19  20
ENDBRANCH  18  19
ENDBRANCH  14  18
ENDBRANCH  12  14
ENDBRANCH   2  10
TORSDOF 8
ENDMDL
MODEL      148
REMARK 921   NORMALIZED FREE ENERGY PREDICTED BY IDOCK:   -4.31 KCAL/MOL
REMARK 922        TOTAL FREE ENERGY PREDICTED BY IDOCK:   -7.11 KCAL/MOL
REMARK 923 INTER-LIGAND FREE ENERGY PREDICTED BY IDOCK:   -6.87 KCAL/MOL
REMARK 924 INTRA-LIGAND FREE ENERGY PREDICTED BY IDOCK:   -0.25 KCAL/MOL
REMARK 927      BINDING AFFINITY PREDICTED BY RF-SCORE:    0.00 PKD
ROOT
HETATM    1  C   UNL     1      -9.904  18.432  68.816  1.00  0.00    -0.388 C  
HETATM    2  C   UNL     1     -10.591  18.226  67.466  1.00  0.00    -0.409 C  
ENDROOT
BRANCH   2   3
HETATM    3  C   UNL     1     -10.067  19.207  66.390  1.00  0.00    -0.488 C  
BRANCH   3   4
HETATM    4  C   UNL     1      -8.588  19.524  66.478  1.00  0.00    -0.374 A  
HETATM    5  C   UNL     1      -8.148  20.705  67.094  1.00  0.00    -0.308 A  
HETATM    6  C   UNL     1      -5.844  20.102  66.676  1.00  0.00    -0.193 A  
HETATM    7  C   UNL     1      -6.783  20.992  67.190  1.00  0.00    -0.424 A  
HETATM    8  C   UNL     1      -6.267  18.919  66.073  1.00  0.00    -0.228 A  
HETATM    9  C   UNL     1      -7.631  18.629  65.979  1.00  0.00    -0.236 A  
ENDBRANCH   3   4
ENDBRANCH   2   3
BRANCH   2  10
HETATM   10  N   UNL     1     -10.403  16.837  67.055  1.00  0.00    -0.302 N  
HETATM   11  H   UNL     1      -9.782  16.646  66.269  1.00  0.00     0.000 HD 
HETATM   12  C   UNL     1     -11.019  15.769  67.672  1.00  0.00    -0.302 C  
HETATM   13  O   UNL     1     -11.717  15.869  68.677  1.00  0.00    -0.387 OA 
BRANCH  12  14
HETATM   14  C   UNL     1     -10.707  14.410  67.001  1.00  0.00    -0.285 C  
HETATM   15  N   UNL     1     -11.746  13.424  67.407  1.00  0.00    -0.352 NA 
HETATM   16  H2  UNL     1     -12.692  13.750  67.206  1.00  0.00     0.000 HD 
HETATM   17  H1  UNL     1     -11.541  12.528  66.966  1.00  0.00     0.000 HD 
BRANCH  14  18
HETATM   18  C   UNL     1     -10.699  14.516  65.470  1.00  0.00    -0.350 C  
BRANCH  18  19
HETATM   19  C   UNL     1     -11.801  13.677  64.813  1.00  0.00    -0.414 C  
BRANCH  19  20
HETATM   20  C   UNL     1     -11.272  12.901  63.602  1.00  0.00    -0.418 C  
BRANCH  20  21
HETATM   21  C   UNL     1     -11.245  11.399  63.883  1.00  0.00    -0.280 C  
HETATM   22  N   UNL     1     -10.290  10.736  63.002  1.00  0.00    -0.729 NA 
HETATM   23  H1  UNL     1     -10.272   9.734  63.189  1.00  0.00     0.000 HD 
HETATM   24  H2  UNL     1      -9.361  11.152  63.068  1.00  0.00     0.000 HD 
ENDBRANCH  20  21
ENDBRANCH  19  20
ENDBRANCH  18  19
ENDBRANCH  14  18
ENDBRANCH  12  14
ENDBRANCH   2  10
TORSDOF 8
ENDMDL
MODEL      149
REMARK 921   NORMALIZED FREE ENERGY PREDICTED BY IDOCK:   -4.30 KCAL/MOL
REMARK 922        TOTAL FREE ENERGY PREDICTED BY IDOCK:   -7.10 KCAL/MOL
REMARK 923 INTER-LIGAND FREE ENERGY PREDICTED BY IDOCK:   -6.27 KCAL/MOL
REMARK 924 INTRA-LIGAND FREE ENERGY PREDICTED BY IDOCK:   -0.83 KCAL/MOL
REMARK 927      BINDING AFFINITY PREDICTED BY RF-SCORE:    0.00 PKD
ROOT
HETATM    1  C   UNL     1      -9.675  10.068  66.577  1.00  0.00    -0.254 C  
HETATM    2  C   UNL     1     -10.268  10.615  67.875  1.00  0.00    -0.177 C  
ENDROOT
BRANCH   2   3
HETATM    3  C   UNL     1     -11.612  11.345  67.639  1.00  0.00    -0.315 C  
BRANCH   3   4
HETATM    4  C   UNL     1     -11.545  12.515  66.679  1.00  0.00    -0.442 A  
HETATM    5  C   UNL     1     -11.167  13.787  67.133  1.00  0.00    -0.327 A  
HETATM    6  C   UNL     1     -11.385  14.684  64.898  1.00  0.00    -0.403 A  
HETATM    7  C   UNL     1     -11.089  14.866  66.246  1.00  0.00    -0.340 A  
HETATM    8  C   UNL     1     -11.751  13.423  64.431  1.00  0.00    -0.435 A  
HETATM    9  C   UNL     1     -11.825  12.343  65.316  1.00  0.00    -0.451 A  
ENDBRANCH   3   4
ENDBRANCH   2   3
BRANCH   2  10
HETATM   10  N   UNL     1     -10.421   9.510  68.818  1.00  0.00    -0.215 N  
HETATM   11  H   UNL     1     -11.233   8.901  68.720  1.00  0.00     0.000 HD 
HETATM   12  C   UNL     1      -9.528   9.245  69.834  1.00  0.00    -0.197 C  
HETATM   13  O   UNL     1      -8.476   9.855  69.996  1.00  0.00    -0.193 OA 
BRANCH  12  14
HETATM   14  C   UNL     1      -9.957   8.062  70.735  1.00  0.00    -0.188 C  
HETATM   15  N   UNL     1      -8.888   7.026  70.708  1.00  0.00    -0.148 NA 
HETATM   16  H2  UNL     1      -7.976   7.401  70.966  1.00  0.00     0.000 HD 
HETATM   17  H1  UNL     1      -9.171   6.246  71.301  1.00  0.00     0.000 HD 
BRANCH  14  18
HETATM   18  C   UNL     1     -10.181   8.502  72.189  1.00  0.00    -0.403 C  
BRANCH  18  19
HETATM   19  C   UNL     1     -11.474   7.936  72.786  1.00  0.00    -0.428 C  
BRANCH  19  20
HETATM   20  C   UNL     1     -12.572   7.800  71.724  1.00  0.00    -0.356 C  
BRANCH  20  21
HETATM   21  C   UNL     1     -13.494   9.020  71.731  1.00  0.00    -0.411 C  
HETATM   22  N   UNL     1     -13.126   9.938  70.659  1.00  0.00    -0.591 NA 
HETATM   23  H1  UNL     1     -13.741  10.752  70.665  1.00  0.00     0.000 HD 
HETATM   24  H2  UNL     1     -13.115   9.476  69.750  1.00  0.00     0.000 HD 
ENDBRANCH  20  21
ENDBRANCH  19  20
ENDBRANCH  18  19
ENDBRANCH  14  18
ENDBRANCH  12  14
ENDBRANCH   2  10
TORSDOF 8
ENDMDL
MODEL      150
REMARK 921   NORMALIZED FREE ENERGY PREDICTED BY IDOCK:   -4.30 KCAL/MOL
REMARK 922        TOTAL FREE ENERGY PREDICTED BY IDOCK:   -7.10 KCAL/MOL
REMARK 923 INTER-LIGAND FREE ENERGY PREDICTED BY IDOCK:   -6.22 KCAL/MOL
REMARK 924 INTRA-LIGAND FREE ENERGY PREDICTED BY IDOCK:   -0.88 KCAL/MOL
REMARK 927      BINDING AFFINITY PREDICTED BY RF-SCORE:    0.00 PKD
ROOT
HETATM    1  C   UNL     1      -7.536  10.006  65.820  1.00  0.00    -0.120 C  
HETATM    2  C   UNL     1      -8.863  10.756  65.929  1.00  0.00    -0.179 C  
ENDROOT
BRANCH   2   3
HETATM    3  C   UNL     1      -9.598  10.839  64.570  1.00  0.00    -0.322 C  
BRANCH   3   4
HETATM    4  C   UNL     1     -10.529  12.025  64.417  1.00  0.00    -0.353 A  
HETATM    5  C   UNL     1     -10.236  13.245  65.045  1.00  0.00    -0.313 A  
HETATM    6  C   UNL     1     -12.233  14.240  64.111  1.00  0.00    -0.410 A  
HETATM    7  C   UNL     1     -11.085  14.346  64.893  1.00  0.00    -0.404 A  
HETATM    8  C   UNL     1     -12.530  13.038  63.473  1.00  0.00    -0.388 A  
HETATM    9  C   UNL     1     -11.680  11.938  63.621  1.00  0.00    -0.572 A  
ENDBRANCH   3   4
ENDBRANCH   2   3
BRANCH   2  10
HETATM   10  N   UNL     1      -9.688  10.099  66.940  1.00  0.00    -0.180 N  
HETATM   11  H   UNL     1      -9.794   9.086  66.891  1.00  0.00     0.000 HD 
HETATM   12  C   UNL     1     -10.331  10.773  67.955  1.00  0.00    -0.182 C  
HETATM   13  O   UNL     1     -10.208  11.976  68.163  1.00  0.00    -0.189 OA 
BRANCH  12  14
HETATM   14  C   UNL     1     -11.196   9.853  68.851  1.00  0.00    -0.079 C  
HETATM   15  N   UNL     1     -10.760   8.443  68.654  1.00  0.00    -0.414 NA 
HETATM   16  H2  UNL     1      -9.761   8.318  68.818  1.00  0.00     0.000 HD 
HETATM   17  H1  UNL     1     -11.330   7.837  69.244  1.00  0.00     0.000 HD 
BRANCH  14  18
HETATM   18  C   UNL     1     -11.059  10.209  70.338  1.00  0.00    -0.393 C  
BRANCH  18  19
HETATM   19  C   UNL     1     -10.644   9.010  71.197  1.00  0.00    -0.361 C  
BRANCH  19  20
HETATM   20  C   UNL     1     -11.782   8.557  72.119  1.00  0.00    -0.448 C  
BRANCH  20  21
HETATM   21  C   UNL     1     -12.181   7.111  71.827  1.00  0.00    -0.344 C  
HETATM   22  N   UNL     1     -12.645   6.981  70.451  1.00  0.00    -0.571 NA 
HETATM   23  H1  UNL     1     -12.911   6.016  70.256  1.00  0.00     0.000 HD 
HETATM   24  H2  UNL     1     -11.956   7.328  69.783  1.00  0.00     0.000 HD 
ENDBRANCH  20  21
ENDBRANCH  19  20
ENDBRANCH  18  19
ENDBRANCH  14  18
ENDBRANCH  12  14
ENDBRANCH   2  10
TORSDOF 8
ENDMDL
MODEL      151
REMARK 921   NORMALIZED FREE ENERGY PREDICTED BY IDOCK:   -4.30 KCAL/MOL
REMARK 922        TOTAL FREE ENERGY PREDICTED BY IDOCK:   -7.10 KCAL/MOL
REMARK 923 INTER-LIGAND FREE ENERGY PREDICTED BY IDOCK:   -6.47 KCAL/MOL
REMARK 924 INTRA-LIGAND FREE ENERGY PREDICTED BY IDOCK:   -0.63 KCAL/MOL
REMARK 927      BINDING AFFINITY PREDICTED BY RF-SCORE:    0.00 PKD
ROOT
HETATM    1  C   UNL     1     -11.282  15.948  67.705  1.00  0.00    -0.219 C  
HETATM    2  C   UNL     1     -10.310  15.599  66.578  1.00  0.00    -0.291 C  
ENDROOT
BRANCH   2   3
HETATM    3  C   UNL     1     -11.039  15.348  65.237  1.00  0.00    -0.367 C  
BRANCH   3   4
HETATM    4  C   UNL     1     -11.005  13.914  64.748  1.00  0.00    -0.407 A  
HETATM    5  C   UNL     1      -9.989  13.043  65.169  1.00  0.00    -0.170 A  
HETATM    6  C   UNL     1     -10.954  11.243  63.874  1.00  0.00    -0.382 A  
HETATM    7  C   UNL     1      -9.964  11.715  64.732  1.00  0.00    -0.292 A  
HETATM    8  C   UNL     1     -11.975  12.094  63.457  1.00  0.00    -0.619 A  
HETATM    9  C   UNL     1     -12.003  13.421  63.896  1.00  0.00    -0.520 A  
ENDBRANCH   3   4
ENDBRANCH   2   3
BRANCH   2  10
HETATM   10  N   UNL     1      -9.331  16.677  66.458  1.00  0.00    -0.250 N  
HETATM   11  H   UNL     1      -9.674  17.623  66.293  1.00  0.00     0.000 HD 
HETATM   12  C   UNL     1      -7.970  16.485  66.554  1.00  0.00    -0.310 C  
HETATM   13  O   UNL     1      -7.449  15.409  66.833  1.00  0.00    -0.176 OA 
BRANCH  12  14
HETATM   14  C   UNL     1      -7.150  17.776  66.321  1.00  0.00    -0.294 C  
HETATM   15  N   UNL     1      -8.079  18.871  65.928  1.00  0.00    -0.469 NA 
HETATM   16  H2  UNL     1      -8.831  19.004  66.605  1.00  0.00     0.000 HD 
HETATM   17  H1  UNL     1      -7.539  19.722  65.775  1.00  0.00     0.000 HD 
BRANCH  14  18
HETATM   18  C   UNL     1      -6.387  18.205  67.582  1.00  0.00    -0.178 C  
BRANCH  18  19
HETATM   19  C   UNL     1      -7.311  18.759  68.673  1.00  0.00    -0.335 C  
BRANCH  19  20
HETATM   20  C   UNL     1      -6.792  20.090  69.228  1.00  0.00    -0.288 C  
BRANCH  20  21
HETATM   21  C   UNL     1      -5.898  19.863  70.447  1.00  0.00    -0.313 C  
HETATM   22  N   UNL     1      -6.520  20.421  71.643  1.00  0.00    -0.588 NA 
HETATM   23  H1  UNL     1      -5.923  20.270  72.456  1.00  0.00     0.000 HD 
HETATM   24  H2  UNL     1      -7.460  20.055  71.788  1.00  0.00     0.000 HD 
ENDBRANCH  20  21
ENDBRANCH  19  20
ENDBRANCH  18  19
ENDBRANCH  14  18
ENDBRANCH  12  14
ENDBRANCH   2  10
TORSDOF 8
ENDMDL
MODEL      152
REMARK 921   NORMALIZED FREE ENERGY PREDICTED BY IDOCK:   -4.28 KCAL/MOL
REMARK 922        TOTAL FREE ENERGY PREDICTED BY IDOCK:   -7.08 KCAL/MOL
REMARK 923 INTER-LIGAND FREE ENERGY PREDICTED BY IDOCK:   -6.58 KCAL/MOL
REMARK 924 INTRA-LIGAND FREE ENERGY PREDICTED BY IDOCK:   -0.50 KCAL/MOL
REMARK 927      BINDING AFFINITY PREDICTED BY RF-SCORE:    0.00 PKD
ROOT
HETATM    1  C   UNL     1     -11.844  12.030  69.985  1.00  0.00    -0.392 C  
HETATM    2  C   UNL     1     -11.806  11.005  68.852  1.00  0.00    -0.308 C  
ENDROOT
BRANCH   2   3
HETATM    3  C   UNL     1     -10.663  11.291  67.847  1.00  0.00    -0.250 C  
BRANCH   3   4
HETATM    4  C   UNL     1     -11.117  11.731  66.470  1.00  0.00    -0.364 A  
HETATM    5  C   UNL     1     -10.634  11.086  65.322  1.00  0.00    -0.283 A  
HETATM    6  C   UNL     1     -11.979  12.519  63.913  1.00  0.00    -0.563 A  
HETATM    7  C   UNL     1     -11.062  11.480  64.051  1.00  0.00    -0.441 A  
HETATM    8  C   UNL     1     -12.475  13.161  65.046  1.00  0.00    -0.516 A  
HETATM    9  C   UNL     1     -12.051  12.765  66.317  1.00  0.00    -0.400 A  
ENDBRANCH   3   4
ENDBRANCH   2   3
BRANCH   2  10
HETATM   10  N   UNL     1     -11.681   9.672  69.434  1.00  0.00    -0.393 N  
HETATM   11  H   UNL     1     -12.452   9.016  69.307  1.00  0.00     0.000 HD 
HETATM   12  C   UNL     1     -10.579   9.250  70.146  1.00  0.00    -0.231 C  
HETATM   13  O   UNL     1      -9.561   9.920  70.290  1.00  0.00    -0.239 OA 
BRANCH  12  14
HETATM   14  C   UNL     1     -10.726   7.819  70.715  1.00  0.00    -0.226 C  
HETATM   15  N   UNL     1     -11.945   7.193  70.131  1.00  0.00    -0.578 NA 
HETATM   16  H2  UNL     1     -11.940   7.208  69.111  1.00  0.00     0.000 HD 
HETATM   17  H1  UNL     1     -12.042   6.250  70.506  1.00  0.00     0.000 HD 
BRANCH  14  18
HETATM   18  C   UNL     1      -9.512   6.942  70.378  1.00  0.00    -0.169 C  
BRANCH  18  19
HETATM   19  C   UNL     1      -9.691   6.160  69.072  1.00  0.00    -0.157 C  
BRANCH  19  20
HETATM   20  C   UNL     1      -9.039   6.884  67.889  1.00  0.00    -0.122 C  
BRANCH  20  21
HETATM   21  C   UNL     1      -9.879   6.729  66.621  1.00  0.00    -0.152 C  
HETATM   22  N   UNL     1     -11.294   6.628  66.960  1.00  0.00    -0.795 NA 
HETATM   23  H1  UNL     1     -11.854   6.524  66.115  1.00  0.00     0.000 HD 
HETATM   24  H2  UNL     1     -11.605   7.415  67.529  1.00  0.00     0.000 HD 
ENDBRANCH  20  21
ENDBRANCH  19  20
ENDBRANCH  18  19
ENDBRANCH  14  18
ENDBRANCH  12  14
ENDBRANCH   2  10
TORSDOF 8
ENDMDL
MODEL      153
REMARK 921   NORMALIZED FREE ENERGY PREDICTED BY IDOCK:   -4.28 KCAL/MOL
REMARK 922        TOTAL FREE ENERGY PREDICTED BY IDOCK:   -7.08 KCAL/MOL
REMARK 923 INTER-LIGAND FREE ENERGY PREDICTED BY IDOCK:   -6.01 KCAL/MOL
REMARK 924 INTRA-LIGAND FREE ENERGY PREDICTED BY IDOCK:   -1.07 KCAL/MOL
REMARK 927      BINDING AFFINITY PREDICTED BY RF-SCORE:    0.00 PKD
ROOT
HETATM    1  C   UNL     1     -12.858  13.769  65.114  1.00  0.00    -0.386 C  
HETATM    2  C   UNL     1     -12.014  13.213  66.261  1.00  0.00    -0.415 C  
ENDROOT
BRANCH   2   3
HETATM    3  C   UNL     1     -10.534  13.017  65.853  1.00  0.00    -0.293 C  
BRANCH   3   4
HETATM    4  C   UNL     1     -10.095  11.573  65.715  1.00  0.00    -0.278 A  
HETATM    5  C   UNL     1      -9.643  11.082  64.481  1.00  0.00    -0.299 A  
HETATM    6  C   UNL     1      -9.245   8.906  65.459  1.00  0.00    -0.242 A  
HETATM    7  C   UNL     1      -9.222   9.754  64.355  1.00  0.00    -0.301 A  
HETATM    8  C   UNL     1      -9.681   9.384  66.693  1.00  0.00    -0.280 A  
HETATM    9  C   UNL     1     -10.099  10.712  66.821  1.00  0.00    -0.272 A  
ENDBRANCH   3   4
ENDBRANCH   2   3
BRANCH   2  10
HETATM   10  N   UNL     1     -12.135  14.112  67.406  1.00  0.00    -0.538 N  
HETATM   11  H   UNL     1     -12.273  15.106  67.226  1.00  0.00     0.000 HD 
HETATM   12  C   UNL     1     -12.073  13.690  68.717  1.00  0.00    -0.297 C  
HETATM   13  O   UNL     1     -11.995  12.512  69.053  1.00  0.00    -0.289 OA 
BRANCH  12  14
HETATM   14  C   UNL     1     -12.159  14.848  69.739  1.00  0.00    -0.314 C  
HETATM   15  N   UNL     1     -11.588  14.389  71.035  1.00  0.00    -0.513 NA 
HETATM   16  H2  UNL     1     -10.639  14.027  70.936  1.00  0.00     0.000 HD 
HETATM   17  H1  UNL     1     -11.644  15.152  71.709  1.00  0.00     0.000 HD 
BRANCH  14  18
HETATM   18  C   UNL     1     -11.382  16.086  69.268  1.00  0.00    -0.356 C  
BRANCH  18  19
HETATM   19  C   UNL     1      -9.871  15.955  69.491  1.00  0.00    -0.268 C  
BRANCH  19  20
HETATM   20  C   UNL     1      -9.123  15.745  68.169  1.00  0.00    -0.185 C  
BRANCH  20  21
HETATM   21  C   UNL     1      -7.934  14.802  68.356  1.00  0.00    -0.138 C  
HETATM   22  N   UNL     1      -8.392  13.491  68.802  1.00  0.00    -0.347 NA 
HETATM   23  H1  UNL     1      -7.599  12.863  68.928  1.00  0.00     0.000 HD 
HETATM   24  H2  UNL     1      -9.093  13.099  68.173  1.00  0.00     0.000 HD 
ENDBRANCH  20  21
ENDBRANCH  19  20
ENDBRANCH  18  19
ENDBRANCH  14  18
ENDBRANCH  12  14
ENDBRANCH   2  10
TORSDOF 8
ENDMDL
MODEL      154
REMARK 921   NORMALIZED FREE ENERGY PREDICTED BY IDOCK:   -4.27 KCAL/MOL
REMARK 922        TOTAL FREE ENERGY PREDICTED BY IDOCK:   -7.06 KCAL/MOL
REMARK 923 INTER-LIGAND FREE ENERGY PREDICTED BY IDOCK:   -7.29 KCAL/MOL
REMARK 924 INTRA-LIGAND FREE ENERGY PREDICTED BY IDOCK:    0.23 KCAL/MOL
REMARK 927      BINDING AFFINITY PREDICTED BY RF-SCORE:    0.00 PKD
ROOT
HETATM    1  C   UNL     1     -12.162   9.764  71.004  1.00  0.00    -0.436 C  
HETATM    2  C   UNL     1     -12.314  10.744  69.841  1.00  0.00    -0.271 C  
ENDROOT
BRANCH   2   3
HETATM    3  C   UNL     1     -11.573  12.077  70.102  1.00  0.00    -0.228 C  
BRANCH   3   4
HETATM    4  C   UNL     1     -12.402  13.147  70.785  1.00  0.00    -0.404 A  
HETATM    5  C   UNL     1     -13.173  12.836  71.915  1.00  0.00    -0.511 A  
HETATM    6  C   UNL     1     -13.914  15.132  72.078  1.00  0.00    -0.629 A  
HETATM    7  C   UNL     1     -13.926  13.824  72.556  1.00  0.00    -0.572 A  
HETATM    8  C   UNL     1     -13.144  15.457  70.963  1.00  0.00    -0.565 A  
HETATM    9  C   UNL     1     -12.388  14.470  70.323  1.00  0.00    -0.408 A  
ENDBRANCH   3   4
ENDBRANCH   2   3
BRANCH   2  10
HETATM   10  N   UNL     1     -11.834  10.098  68.622  1.00  0.00    -0.410 N  
HETATM   11  H   UNL     1     -12.423  10.137  67.791  1.00  0.00     0.000 HD 
HETATM   12  C   UNL     1     -10.627   9.438  68.534  1.00  0.00    -0.197 C  
HETATM   13  O   UNL     1      -9.800   9.400  69.440  1.00  0.00    -0.165 OA 
BRANCH  12  14
HETATM   14  C   UNL     1     -10.386   8.783  67.153  1.00  0.00    -0.293 C  
HETATM   15  N   UNL     1      -8.937   8.877  66.822  1.00  0.00    -0.126 NA 
HETATM   16  H2  UNL     1      -8.345   8.478  67.551  1.00  0.00     0.000 HD 
HETATM   17  H1  UNL     1      -8.778   8.445  65.912  1.00  0.00     0.000 HD 
BRANCH  14  18
HETATM   18  C   UNL     1     -10.799   7.304  67.142  1.00  0.00    -0.378 C  
BRANCH  18  19
HETATM   19  C   UNL     1      -9.602   6.354  67.256  1.00  0.00    -0.143 C  
BRANCH  19  20
HETATM   20  C   UNL     1     -10.016   4.895  67.031  1.00  0.00    -0.238 C  
BRANCH  20  21
HETATM   21  C   UNL     1     -10.016   4.549  65.542  1.00  0.00    -0.215 C  
HETATM   22  N   UNL     1     -11.381   4.350  65.069  1.00  0.00    -1.102 NA 
HETATM   23  H1  UNL     1     -11.381   4.119  64.075  1.00  0.00     0.000 HD 
HETATM   24  H2  UNL     1     -11.975   5.154  65.272  1.00  0.00     0.000 HD 
ENDBRANCH  20  21
ENDBRANCH  19  20
ENDBRANCH  18  19
ENDBRANCH  14  18
ENDBRANCH  12  14
ENDBRANCH   2  10
TORSDOF 8
ENDMDL
MODEL      155
REMARK 921   NORMALIZED FREE ENERGY PREDICTED BY IDOCK:   -4.27 KCAL/MOL
REMARK 922        TOTAL FREE ENERGY PREDICTED BY IDOCK:   -7.05 KCAL/MOL
REMARK 923 INTER-LIGAND FREE ENERGY PREDICTED BY IDOCK:   -6.87 KCAL/MOL
REMARK 924 INTRA-LIGAND FREE ENERGY PREDICTED BY IDOCK:   -0.18 KCAL/MOL
REMARK 927      BINDING AFFINITY PREDICTED BY RF-SCORE:    0.00 PKD
ROOT
HETATM    1  C   UNL     1     -10.149   9.039  66.319  1.00  0.00    -0.311 C  
HETATM    2  C   UNL     1      -9.882   9.852  67.585  1.00  0.00    -0.163 C  
ENDROOT
BRANCH   2   3
HETATM    3  C   UNL     1     -10.018  11.374  67.340  1.00  0.00    -0.207 C  
BRANCH   3   4
HETATM    4  C   UNL     1     -10.639  11.755  66.011  1.00  0.00    -0.302 A  
HETATM    5  C   UNL     1      -9.926  11.580  64.816  1.00  0.00    -0.304 A  
HETATM    6  C   UNL     1     -11.797  12.427  63.539  1.00  0.00    -0.605 A  
HETATM    7  C   UNL     1     -10.502  11.916  63.587  1.00  0.00    -0.493 A  
HETATM    8  C   UNL     1     -12.521  12.595  64.718  1.00  0.00    -0.555 A  
HETATM    9  C   UNL     1     -11.947  12.256  65.946  1.00  0.00    -0.358 A  
ENDBRANCH   3   4
ENDBRANCH   2   3
BRANCH   2  10
HETATM   10  N   UNL     1     -10.795   9.398  68.631  1.00  0.00    -0.407 N  
HETATM   11  H   UNL     1     -11.716   9.831  68.688  1.00  0.00     0.000 HD 
HETATM   12  C   UNL     1     -10.480   8.416  69.545  1.00  0.00    -0.224 C  
HETATM   13  O   UNL     1      -9.438   7.767  69.520  1.00  0.00    -0.160 OA 
BRANCH  12  14
HETATM   14  C   UNL     1     -11.594   8.170  70.590  1.00  0.00    -0.194 C  
HETATM   15  N   UNL     1     -11.282   6.923  71.341  1.00  0.00    -0.250 NA 
HETATM   16  H2  UNL     1     -10.353   6.943  71.761  1.00  0.00     0.000 HD 
HETATM   17  H1  UNL     1     -12.017   6.760  72.029  1.00  0.00     0.000 HD 
BRANCH  14  18
HETATM   18  C   UNL     1     -11.709   9.331  71.588  1.00  0.00    -0.462 C  
BRANCH  18  19
HETATM   19  C   UNL     1     -13.122   9.922  71.648  1.00  0.00    -0.538 C  
BRANCH  19  20
HETATM   20  C   UNL     1     -13.091  11.455  71.639  1.00  0.00    -0.498 C  
BRANCH  20  21
HETATM   21  C   UNL     1     -12.128  11.977  70.573  1.00  0.00    -0.311 C  
HETATM   22  N   UNL     1     -12.012  13.428  70.662  1.00  0.00    -0.526 NA 
HETATM   23  H1  UNL     1     -11.370  13.777  69.950  1.00  0.00     0.000 HD 
HETATM   24  H2  UNL     1     -11.743  13.731  71.598  1.00  0.00     0.000 HD 
ENDBRANCH  20  21
ENDBRANCH  19  20
ENDBRANCH  18  19
ENDBRANCH  14  18
ENDBRANCH  12  14
ENDBRANCH   2  10
TORSDOF 8
ENDMDL
MODEL      156
REMARK 921   NORMALIZED FREE ENERGY PREDICTED BY IDOCK:   -4.27 KCAL/MOL
REMARK 922        TOTAL FREE ENERGY PREDICTED BY IDOCK:   -7.05 KCAL/MOL
REMARK 923 INTER-LIGAND FREE ENERGY PREDICTED BY IDOCK:   -6.08 KCAL/MOL
REMARK 924 INTRA-LIGAND FREE ENERGY PREDICTED BY IDOCK:   -0.97 KCAL/MOL
REMARK 927      BINDING AFFINITY PREDICTED BY RF-SCORE:    0.00 PKD
ROOT
HETATM    1  C   UNL     1     -11.534  11.758  66.814  1.00  0.00    -0.352 C  
HETATM    2  C   UNL     1     -11.675  12.092  68.299  1.00  0.00    -0.342 C  
ENDROOT
BRANCH   2   3
HETATM    3  C   UNL     1     -10.648  11.328  69.168  1.00  0.00    -0.222 C  
BRANCH   3   4
HETATM    4  C   UNL     1     -11.245  10.307  70.115  1.00  0.00    -0.387 A  
HETATM    5  C   UNL     1     -10.795   8.978  70.105  1.00  0.00    -0.261 A  
HETATM    6  C   UNL     1     -12.324   8.415  71.892  1.00  0.00    -0.395 A  
HETATM    7  C   UNL     1     -11.333   8.038  70.989  1.00  0.00    -0.294 A  
HETATM    8  C   UNL     1     -12.772   9.734  71.920  1.00  0.00    -0.501 A  
HETATM    9  C   UNL     1     -12.232  10.676  71.040  1.00  0.00    -0.498 A  
ENDBRANCH   3   4
ENDBRANCH   2   3
BRANCH   2  10
HETATM   10  N   UNL     1     -11.541  13.538  68.465  1.00  0.00    -0.309 N  
HETATM   11  H   UNL     1     -10.946  14.045  67.810  1.00  0.00     0.000 HD 
HETATM   12  C   UNL     1     -12.174  14.253  69.458  1.00  0.00    -0.297 C  
HETATM   13  O   UNL     1     -12.978  13.764  70.247  1.00  0.00    -0.129 OA 
BRANCH  12  14
HETATM   14  C   UNL     1     -11.812  15.757  69.457  1.00  0.00    -0.347 C  
HETATM   15  N   UNL     1     -10.937  16.041  70.628  1.00  0.00    -0.304 NA 
HETATM   16  H2  UNL     1     -10.112  15.442  70.652  1.00  0.00     0.000 HD 
HETATM   17  H1  UNL     1     -10.698  17.033  70.628  1.00  0.00     0.000 HD 
BRANCH  14  18
HETATM   18  C   UNL     1     -11.069  16.166  68.177  1.00  0.00    -0.332 C  
BRANCH  18  19
HETATM   19  C   UNL     1      -9.852  17.054  68.457  1.00  0.00    -0.290 C  
BRANCH  19  20
HETATM   20  C   UNL     1      -8.554  16.402  67.964  1.00  0.00    -0.185 C  
BRANCH  20  21
HETATM   21  C   UNL     1      -7.656  16.013  69.138  1.00  0.00    -0.225 C  
HETATM   22  N   UNL     1      -8.085  14.739  69.703  1.00  0.00    -0.413 NA 
HETATM   23  H1  UNL     1      -7.486  14.480  70.488  1.00  0.00     0.000 HD 
HETATM   24  H2  UNL     1      -8.126  14.005  68.997  1.00  0.00     0.000 HD 
ENDBRANCH  20  21
ENDBRANCH  19  20
ENDBRANCH  18  19
ENDBRANCH  14  18
ENDBRANCH  12  14
ENDBRANCH   2  10
TORSDOF 8
ENDMDL
MODEL      157
REMARK 921   NORMALIZED FREE ENERGY PREDICTED BY IDOCK:   -4.25 KCAL/MOL
REMARK 922        TOTAL FREE ENERGY PREDICTED BY IDOCK:   -7.03 KCAL/MOL
REMARK 923 INTER-LIGAND FREE ENERGY PREDICTED BY IDOCK:   -6.47 KCAL/MOL
REMARK 924 INTRA-LIGAND FREE ENERGY PREDICTED BY IDOCK:   -0.56 KCAL/MOL
REMARK 927      BINDING AFFINITY PREDICTED BY RF-SCORE:    0.00 PKD
ROOT
HETATM    1  C   UNL     1     -10.512  10.777  65.435  1.00  0.00    -0.272 C  
HETATM    2  C   UNL     1     -10.502  11.324  66.862  1.00  0.00    -0.245 C  
ENDROOT
BRANCH   2   3
HETATM    3  C   UNL     1     -11.572  12.421  67.073  1.00  0.00    -0.434 C  
BRANCH   3   4
HETATM    4  C   UNL     1     -11.439  13.628  66.167  1.00  0.00    -0.342 A  
HETATM    5  C   UNL     1     -10.381  14.534  66.338  1.00  0.00    -0.296 A  
HETATM    6  C   UNL     1     -11.165  15.851  64.468  1.00  0.00    -0.324 A  
HETATM    7  C   UNL     1     -10.247  15.640  65.494  1.00  0.00    -0.414 A  
HETATM    8  C   UNL     1     -12.215  14.954  64.280  1.00  0.00    -0.365 A  
HETATM    9  C   UNL     1     -12.347  13.846  65.121  1.00  0.00    -0.471 A  
ENDBRANCH   3   4
ENDBRANCH   2   3
BRANCH   2  10
HETATM   10  N   UNL     1     -10.691  10.210  67.788  1.00  0.00    -0.258 N  
HETATM   11  H   UNL     1     -11.645   9.921  68.006  1.00  0.00     0.000 HD 
HETATM   12  C   UNL     1      -9.653   9.529  68.385  1.00  0.00    -0.142 C  
HETATM   13  O   UNL     1      -8.468   9.732  68.135  1.00  0.00    -0.113 OA 
BRANCH  12  14
HETATM   14  C   UNL     1     -10.123   8.439  69.377  1.00  0.00    -0.198 C  
HETATM   15  N   UNL     1      -8.941   7.652  69.823  1.00  0.00    -0.140 NA 
HETATM   16  H2  UNL     1      -8.205   8.242  70.213  1.00  0.00     0.000 HD 
HETATM   17  H1  UNL     1      -9.250   6.933  70.476  1.00  0.00     0.000 HD 
BRANCH  14  18
HETATM   18  C   UNL     1     -10.806   9.045  70.611  1.00  0.00    -0.295 C  
BRANCH  18  19
HETATM   19  C   UNL     1     -10.359   8.383  71.919  1.00  0.00    -0.353 C  
BRANCH  19  20
HETATM   20  C   UNL     1     -11.558   7.988  72.789  1.00  0.00    -0.390 C  
BRANCH  20  21
HETATM   21  C   UNL     1     -12.876   8.339  72.098  1.00  0.00    -0.315 C  
HETATM   22  N   UNL     1     -13.793   8.966  73.043  1.00  0.00    -1.107 NA 
HETATM   23  H1  UNL     1     -14.672   9.200  72.581  1.00  0.00     0.000 HD 
HETATM   24  H2  UNL     1     -13.374   9.777  73.497  1.00  0.00     0.000 HD 
ENDBRANCH  20  21
ENDBRANCH  19  20
ENDBRANCH  18  19
ENDBRANCH  14  18
ENDBRANCH  12  14
ENDBRANCH   2  10
TORSDOF 8
ENDMDL
MODEL      158
REMARK 921   NORMALIZED FREE ENERGY PREDICTED BY IDOCK:   -4.25 KCAL/MOL
REMARK 922        TOTAL FREE ENERGY PREDICTED BY IDOCK:   -7.03 KCAL/MOL
REMARK 923 INTER-LIGAND FREE ENERGY PREDICTED BY IDOCK:   -6.37 KCAL/MOL
REMARK 924 INTRA-LIGAND FREE ENERGY PREDICTED BY IDOCK:   -0.66 KCAL/MOL
REMARK 927      BINDING AFFINITY PREDICTED BY RF-SCORE:    0.00 PKD
ROOT
HETATM    1  C   UNL     1      -9.054  11.329  68.629  1.00  0.00    -0.153 C  
HETATM    2  C   UNL     1     -10.513  11.020  68.296  1.00  0.00    -0.186 C  
ENDROOT
BRANCH   2   3
HETATM    3  C   UNL     1     -10.643   9.971  67.166  1.00  0.00    -0.296 C  
BRANCH   3   4
HETATM    4  C   UNL     1     -10.378  10.497  65.770  1.00  0.00    -0.270 A  
HETATM    5  C   UNL     1     -10.838  11.767  65.389  1.00  0.00    -0.347 A  
HETATM    6  C   UNL     1      -9.862  11.496  63.193  1.00  0.00    -0.413 A  
HETATM    7  C   UNL     1     -10.582  12.261  64.106  1.00  0.00    -0.408 A  
HETATM    8  C   UNL     1      -9.389  10.238  63.562  1.00  0.00    -0.341 A  
HETATM    9  C   UNL     1      -9.641   9.744  64.845  1.00  0.00    -0.316 A  
ENDBRANCH   3   4
ENDBRANCH   2   3
BRANCH   2  10
HETATM   10  N   UNL     1     -11.185  10.576  69.514  1.00  0.00    -0.253 N  
HETATM   11  H   UNL     1     -11.050   9.611  69.815  1.00  0.00     0.000 HD 
HETATM   12  C   UNL     1     -11.993  11.389  70.279  1.00  0.00    -0.373 C  
HETATM   13  O   UNL     1     -12.160  12.585  70.063  1.00  0.00    -0.314 OA 
BRANCH  12  14
HETATM   14  C   UNL     1     -12.640  10.657  71.479  1.00  0.00    -0.412 C  
HETATM   15  N   UNL     1     -13.336  11.657  72.334  1.00  0.00    -0.489 NA 
HETATM   16  H2  UNL     1     -14.010  12.216  71.810  1.00  0.00     0.000 HD 
HETATM   17  H1  UNL     1     -13.762  11.175  73.125  1.00  0.00     0.000 HD 
BRANCH  14  18
HETATM   18  C   UNL     1     -13.659   9.603  71.024  1.00  0.00    -0.161 C  
BRANCH  18  19
HETATM   19  C   UNL     1     -13.477   8.257  71.735  1.00  0.00    -0.377 C  
BRANCH  19  20
HETATM   20  C   UNL     1     -12.309   7.460  71.141  1.00  0.00    -0.349 C  
BRANCH  20  21
HETATM   21  C   UNL     1     -11.648   6.583  72.204  1.00  0.00    -0.308 C  
HETATM   22  N   UNL     1     -11.302   7.381  73.375  1.00  0.00    -0.600 NA 
HETATM   23  H1  UNL     1     -10.860   6.796  74.084  1.00  0.00     0.000 HD 
HETATM   24  H2  UNL     1     -12.109   7.883  73.745  1.00  0.00     0.000 HD 
ENDBRANCH  20  21
ENDBRANCH  19  20
ENDBRANCH  18  19
ENDBRANCH  14  18
ENDBRANCH  12  14
ENDBRANCH   2  10
TORSDOF 8
ENDMDL
MODEL      159
REMARK 921   NORMALIZED FREE ENERGY PREDICTED BY IDOCK:   -4.24 KCAL/MOL
REMARK 922        TOTAL FREE ENERGY PREDICTED BY IDOCK:   -7.01 KCAL/MOL
REMARK 923 INTER-LIGAND FREE ENERGY PREDICTED BY IDOCK:   -6.65 KCAL/MOL
REMARK 924 INTRA-LIGAND FREE ENERGY PREDICTED BY IDOCK:   -0.36 KCAL/MOL
REMARK 927      BINDING AFFINITY PREDICTED BY RF-SCORE:    0.00 PKD
ROOT
HETATM    1  C   UNL     1     -12.976  13.661  71.015  1.00  0.00    -0.303 C  
HETATM    2  C   UNL     1     -11.931  12.945  70.160  1.00  0.00    -0.301 C  
ENDROOT
BRANCH   2   3
HETATM    3  C   UNL     1     -12.431  11.568  69.662  1.00  0.00    -0.089 C  
BRANCH   3   4
HETATM    4  C   UNL     1     -12.248  10.427  70.643  1.00  0.00    -0.441 A  
HETATM    5  C   UNL     1     -13.333   9.957  71.398  1.00  0.00    -0.447 A  
HETATM    6  C   UNL     1     -11.925   8.290  72.440  1.00  0.00    -0.447 A  
HETATM    7  C   UNL     1     -13.171   8.895  72.293  1.00  0.00    -0.498 A  
HETATM    8  C   UNL     1     -10.841   8.740  71.689  1.00  0.00    -0.399 A  
HETATM    9  C   UNL     1     -11.004   9.799  70.791  1.00  0.00    -0.406 A  
ENDBRANCH   3   4
ENDBRANCH   2   3
BRANCH   2  10
HETATM   10  N   UNL     1     -11.568  13.814  69.044  1.00  0.00    -0.290 N  
HETATM   11  H   UNL     1     -11.928  13.586  68.118  1.00  0.00     0.000 HD 
HETATM   12  C   UNL     1     -10.764  14.926  69.174  1.00  0.00    -0.252 C  
HETATM   13  O   UNL     1     -10.344  15.345  70.248  1.00  0.00    -0.289 OA 
BRANCH  12  14
HETATM   14  C   UNL     1     -10.475  15.635  67.829  1.00  0.00    -0.273 C  
HETATM   15  N   UNL     1     -11.247  14.956  66.752  1.00  0.00    -0.340 NA 
HETATM   16  H2  UNL     1     -12.245  14.907  66.960  1.00  0.00     0.000 HD 
HETATM   17  H1  UNL     1     -11.057  15.422  65.866  1.00  0.00     0.000 HD 
BRANCH  14  18
HETATM   18  C   UNL     1     -10.878  17.116  67.865  1.00  0.00    -0.294 C  
BRANCH  18  19
HETATM   19  C   UNL     1      -9.685  18.048  68.109  1.00  0.00    -0.323 C  
BRANCH  19  20
HETATM   20  C   UNL     1     -10.005  19.491  67.702  1.00  0.00    -0.498 C  
BRANCH  20  21
HETATM   21  C   UNL     1      -9.544  19.771  66.272  1.00  0.00    -0.423 C  
HETATM   22  N   UNL     1     -10.683  19.762  65.361  1.00  0.00    -0.338 NA 
HETATM   23  H1  UNL     1     -10.375  19.948  64.407  1.00  0.00     0.000 HD 
HETATM   24  H2  UNL     1     -11.413  20.409  65.659  1.00  0.00     0.000 HD 
ENDBRANCH  20  21
ENDBRANCH  19  20
ENDBRANCH  18  19
ENDBRANCH  14  18
ENDBRANCH  12  14
ENDBRANCH   2  10
TORSDOF 8
ENDMDL
MODEL      160
REMARK 921   NORMALIZED FREE ENERGY PREDICTED BY IDOCK:   -4.20 KCAL/MOL
REMARK 922        TOTAL FREE ENERGY PREDICTED BY IDOCK:   -6.95 KCAL/MOL
REMARK 923 INTER-LIGAND FREE ENERGY PREDICTED BY IDOCK:   -6.69 KCAL/MOL
REMARK 924 INTRA-LIGAND FREE ENERGY PREDICTED BY IDOCK:   -0.25 KCAL/MOL
REMARK 927      BINDING AFFINITY PREDICTED BY RF-SCORE:    0.00 PKD
ROOT
HETATM    1  C   UNL     1      -9.459  15.006  68.783  1.00  0.00    -0.210 C  
HETATM    2  C   UNL     1     -10.010  14.888  67.362  1.00  0.00    -0.223 C  
ENDROOT
BRANCH   2   3
HETATM    3  C   UNL     1      -9.140  15.652  66.335  1.00  0.00    -0.355 C  
BRANCH   3   4
HETATM    4  C   UNL     1      -9.212  17.163  66.434  1.00  0.00    -0.285 A  
HETATM    5  C   UNL     1     -10.452  17.811  66.528  1.00  0.00    -0.297 A  
HETATM    6  C   UNL     1      -9.352  19.961  66.652  1.00  0.00    -0.500 A  
HETATM    7  C   UNL     1     -10.521  19.204  66.634  1.00  0.00    -0.529 A  
HETATM    8  C   UNL     1      -8.113  19.329  66.570  1.00  0.00    -0.310 A  
HETATM    9  C   UNL     1      -8.044  17.937  66.467  1.00  0.00    -0.303 A  
ENDBRANCH   3   4
ENDBRANCH   2   3
BRANCH   2  10
HETATM   10  N   UNL     1     -10.115  13.471  67.020  1.00  0.00    -0.241 N  
HETATM   11  H   UNL     1     -10.995  13.133  66.632  1.00  0.00     0.000 HD 
HETATM   12  C   UNL     1      -9.090  12.567  67.195  1.00  0.00    -0.205 C  
HETATM   13  O   UNL     1      -7.963  12.874  67.573  1.00  0.00    -0.155 OA 
BRANCH  12  14
HETATM   14  C   UNL     1      -9.480  11.117  66.820  1.00  0.00    -0.184 C  
HETATM   15  N   UNL     1     -10.908  10.896  67.180  1.00  0.00    -0.274 NA 
HETATM   16  H2  UNL     1     -11.528  11.588  66.757  1.00  0.00     0.000 HD 
HETATM   17  H1  UNL     1     -11.166   9.941  66.933  1.00  0.00     0.000 HD 
BRANCH  14  18
HETATM   18  C   UNL     1      -9.303  10.847  65.319  1.00  0.00    -0.246 C  
BRANCH  18  19
HETATM   19  C   UNL     1     -10.638  10.734  64.576  1.00  0.00    -0.258 C  
BRANCH  19  20
HETATM   20  C   UNL     1     -10.881  11.944  63.667  1.00  0.00    -0.510 C  
BRANCH  20  21
HETATM   21  C   UNL     1     -12.171  12.668  64.051  1.00  0.00    -0.463 C  
HETATM   22  N   UNL     1     -12.347  13.861  63.230  1.00  0.00    -1.148 NA 
HETATM   23  H1  UNL     1     -13.207  14.344  63.487  1.00  0.00     0.000 HD 
HETATM   24  H2  UNL     1     -12.314  13.644  62.234  1.00  0.00     0.000 HD 
ENDBRANCH  20  21
ENDBRANCH  19  20
ENDBRANCH  18  19
ENDBRANCH  14  18
ENDBRANCH  12  14
ENDBRANCH   2  10
TORSDOF 8
ENDMDL
MODEL      161
REMARK 921   NORMALIZED FREE ENERGY PREDICTED BY IDOCK:   -4.19 KCAL/MOL
REMARK 922        TOTAL FREE ENERGY PREDICTED BY IDOCK:   -6.93 KCAL/MOL
REMARK 923 INTER-LIGAND FREE ENERGY PREDICTED BY IDOCK:   -6.73 KCAL/MOL
REMARK 924 INTRA-LIGAND FREE ENERGY PREDICTED BY IDOCK:   -0.20 KCAL/MOL
REMARK 927      BINDING AFFINITY PREDICTED BY RF-SCORE:    0.00 PKD
ROOT
HETATM    1  C   UNL     1     -11.363   3.723  73.465  1.00  0.00    -0.245 C  
HETATM    2  C   UNL     1     -10.669   5.085  73.452  1.00  0.00    -0.273 C  
ENDROOT
BRANCH   2   3
HETATM    3  C   UNL     1      -9.318   5.043  72.698  1.00  0.00    -0.150 C  
BRANCH   3   4
HETATM    4  C   UNL     1      -9.400   4.556  71.265  1.00  0.00    -0.209 A  
HETATM    5  C   UNL     1      -9.192   3.202  70.961  1.00  0.00    -0.200 A  
HETATM    6  C   UNL     1      -9.582   3.637  68.615  1.00  0.00    -0.159 A  
HETATM    7  C   UNL     1      -9.281   2.747  69.643  1.00  0.00    -0.206 A  
HETATM    8  C   UNL     1      -9.801   4.983  68.904  1.00  0.00    -0.245 A  
HETATM    9  C   UNL     1      -9.716   5.438  70.223  1.00  0.00    -0.254 A  
ENDBRANCH   3   4
ENDBRANCH   2   3
BRANCH   2  10
HETATM   10  N   UNL     1     -11.578   6.064  72.861  1.00  0.00    -0.499 N  
HETATM   11  H   UNL     1     -12.445   5.727  72.443  1.00  0.00     0.000 HD 
HETATM   12  C   UNL     1     -11.328   7.419  72.836  1.00  0.00    -0.273 C  
HETATM   13  O   UNL     1     -10.362   7.946  73.380  1.00  0.00    -0.311 OA 
BRANCH  12  14
HETATM   14  C   UNL     1     -12.414   8.230  72.091  1.00  0.00    -0.352 C  
HETATM   15  N   UNL     1     -13.365   8.791  73.090  1.00  0.00    -0.887 NA 
HETATM   16  H2  UNL     1     -12.895   9.340  73.809  1.00  0.00     0.000 HD 
HETATM   17  H1  UNL     1     -14.081   9.326  72.599  1.00  0.00     0.000 HD 
BRANCH  14  18
HETATM   18  C   UNL     1     -11.810   9.387  71.281  1.00  0.00    -0.435 C  
BRANCH  18  19
HETATM   19  C   UNL     1     -12.614  10.685  71.414  1.00  0.00    -0.526 C  
BRANCH  19  20
HETATM   20  C   UNL     1     -12.203  11.713  70.353  1.00  0.00    -0.434 C  
BRANCH  20  21
HETATM   21  C   UNL     1     -11.249  11.094  69.332  1.00  0.00    -0.270 C  
HETATM   22  N   UNL     1     -11.974  10.718  68.124  1.00  0.00    -0.801 NA 
HETATM   23  H1  UNL     1     -11.337  10.304  67.443  1.00  0.00     0.000 HD 
HETATM   24  H2  UNL     1     -12.493  11.504  67.732  1.00  0.00     0.000 HD 
ENDBRANCH  20  21
ENDBRANCH  19  20
ENDBRANCH  18  19
ENDBRANCH  14  18
ENDBRANCH  12  14
ENDBRANCH   2  10
TORSDOF 8
ENDMDL
MODEL      162
REMARK 921   NORMALIZED FREE ENERGY PREDICTED BY IDOCK:   -4.18 KCAL/MOL
REMARK 922        TOTAL FREE ENERGY PREDICTED BY IDOCK:   -6.92 KCAL/MOL
REMARK 923 INTER-LIGAND FREE ENERGY PREDICTED BY IDOCK:   -6.64 KCAL/MOL
REMARK 924 INTRA-LIGAND FREE ENERGY PREDICTED BY IDOCK:   -0.28 KCAL/MOL
REMARK 927      BINDING AFFINITY PREDICTED BY RF-SCORE:    0.00 PKD
ROOT
HETATM    1  C   UNL     1     -11.126  11.070  67.422  1.00  0.00    -0.370 C  
HETATM    2  C   UNL     1     -11.927  11.955  68.377  1.00  0.00    -0.182 C  
ENDROOT
BRANCH   2   3
HETATM    3  C   UNL     1     -11.365  11.915  69.818  1.00  0.00    -0.223 C  
BRANCH   3   4
HETATM    4  C   UNL     1     -12.106  12.778  70.819  1.00  0.00    -0.246 A  
HETATM    5  C   UNL     1     -13.051  12.210  71.687  1.00  0.00    -0.413 A  
HETATM    6  C   UNL     1     -13.461  14.366  72.701  1.00  0.00    -0.605 A  
HETATM    7  C   UNL     1     -13.725  13.001  72.621  1.00  0.00    -0.309 A  
HETATM    8  C   UNL     1     -12.518  14.941  71.853  1.00  0.00    -0.403 A  
HETATM    9  C   UNL     1     -11.840  14.151  70.921  1.00  0.00    -0.294 A  
ENDBRANCH   3   4
ENDBRANCH   2   3
BRANCH   2  10
HETATM   10  N   UNL     1     -11.940  13.317  67.849  1.00  0.00    -0.338 N  
HETATM   11  H   UNL     1     -12.834  13.715  67.563  1.00  0.00     0.000 HD 
HETATM   12  C   UNL     1     -10.809  14.094  67.715  1.00  0.00    -0.252 C  
HETATM   13  O   UNL     1      -9.695  13.753  68.104  1.00  0.00    -0.215 OA 
BRANCH  12  14
HETATM   14  C   UNL     1     -11.084  15.471  67.066  1.00  0.00    -0.238 C  
HETATM   15  N   UNL     1     -10.486  16.533  67.921  1.00  0.00    -0.302 NA 
HETATM   16  H2  UNL     1      -9.494  16.378  68.099  1.00  0.00     0.000 HD 
HETATM   17  H1  UNL     1     -10.667  17.441  67.494  1.00  0.00     0.000 HD 
BRANCH  14  18
HETATM   18  C   UNL     1     -10.477  15.572  65.659  1.00  0.00    -0.393 C  
BRANCH  18  19
HETATM   19  C   UNL     1     -11.357  14.917  64.588  1.00  0.00    -0.362 C  
BRANCH  19  20
HETATM   20  C   UNL     1     -10.949  13.460  64.339  1.00  0.00    -0.413 C  
BRANCH  20  21
HETATM   21  C   UNL     1     -12.180  12.562  64.211  1.00  0.00    -0.452 C  
HETATM   22  N   UNL     1     -13.225  13.001  65.128  1.00  0.00    -0.626 NA 
HETATM   23  H1  UNL     1     -14.046  12.401  65.043  1.00  0.00     0.000 HD 
HETATM   24  H2  UNL     1     -13.457  13.985  64.996  1.00  0.00     0.000 HD 
ENDBRANCH  20  21
ENDBRANCH  19  20
ENDBRANCH  18  19
ENDBRANCH  14  18
ENDBRANCH  12  14
ENDBRANCH   2  10
TORSDOF 8
ENDMDL
MODEL      163
REMARK 921   NORMALIZED FREE ENERGY PREDICTED BY IDOCK:   -4.17 KCAL/MOL
REMARK 922        TOTAL FREE ENERGY PREDICTED BY IDOCK:   -6.92 KCAL/MOL
REMARK 923 INTER-LIGAND FREE ENERGY PREDICTED BY IDOCK:   -7.35 KCAL/MOL
REMARK 924 INTRA-LIGAND FREE ENERGY PREDICTED BY IDOCK:    0.43 KCAL/MOL
REMARK 927      BINDING AFFINITY PREDICTED BY RF-SCORE:    0.00 PKD
ROOT
HETATM    1  C   UNL     1     -12.231   9.713  71.079  1.00  0.00    -0.409 C  
HETATM    2  C   UNL     1     -12.251  10.664  69.883  1.00  0.00    -0.275 C  
ENDROOT
BRANCH   2   3
HETATM    3  C   UNL     1     -11.551  12.008  70.196  1.00  0.00    -0.228 C  
BRANCH   3   4
HETATM    4  C   UNL     1     -12.450  13.074  70.791  1.00  0.00    -0.384 A  
HETATM    5  C   UNL     1     -13.309  12.766  71.857  1.00  0.00    -0.510 A  
HETATM    6  C   UNL     1     -14.096  15.052  71.922  1.00  0.00    -0.627 A  
HETATM    7  C   UNL     1     -14.128  13.751  72.418  1.00  0.00    -0.593 A  
HETATM    8  C   UNL     1     -13.240  15.373  70.871  1.00  0.00    -0.512 A  
HETATM    9  C   UNL     1     -12.417  14.391  70.312  1.00  0.00    -0.413 A  
ENDBRANCH   3   4
ENDBRANCH   2   3
BRANCH   2  10
HETATM   10  N   UNL     1     -11.627   9.993  68.745  1.00  0.00    -0.502 N  
HETATM   11  H   UNL     1     -12.230   9.657  67.994  1.00  0.00     0.000 HD 
HETATM   12  C   UNL     1     -10.269   9.789  68.630  1.00  0.00    -0.190 C  
HETATM   13  O   UNL     1      -9.442  10.223  69.427  1.00  0.00    -0.207 OA 
BRANCH  12  14
HETATM   14  C   UNL     1      -9.872   8.993  67.364  1.00  0.00    -0.190 C  
HETATM   15  N   UNL     1     -10.988   8.075  67.005  1.00  0.00    -0.385 NA 
HETATM   16  H2  UNL     1     -11.876   8.565  66.894  1.00  0.00     0.000 HD 
HETATM   17  H1  UNL     1     -10.727   7.550  66.170  1.00  0.00     0.000 HD 
BRANCH  14  18
HETATM   18  C   UNL     1      -9.592   9.919  66.171  1.00  0.00    -0.275 C  
BRANCH  18  19
HETATM   19  C   UNL     1      -9.956  11.380  66.458  1.00  0.00    -0.243 C  
BRANCH  19  20
HETATM   20  C   UNL     1     -10.123  12.183  65.163  1.00  0.00    -0.288 C  
BRANCH  20  21
HETATM   21  C   UNL     1     -11.494  11.931  64.535  1.00  0.00    -0.294 C  
HETATM   22  N   UNL     1     -11.357  11.664  63.108  1.00  0.00    -0.823 NA 
HETATM   23  H1  UNL     1     -12.272  11.496  62.690  1.00  0.00     0.000 HD 
HETATM   24  H2  UNL     1     -10.708  10.898  62.926  1.00  0.00     0.000 HD 
ENDBRANCH  20  21
ENDBRANCH  19  20
ENDBRANCH  18  19
ENDBRANCH  14  18
ENDBRANCH  12  14
ENDBRANCH   2  10
TORSDOF 8
ENDMDL
MODEL      164
REMARK 921   NORMALIZED FREE ENERGY PREDICTED BY IDOCK:   -4.15 KCAL/MOL
REMARK 922        TOTAL FREE ENERGY PREDICTED BY IDOCK:   -6.89 KCAL/MOL
REMARK 923 INTER-LIGAND FREE ENERGY PREDICTED BY IDOCK:   -6.25 KCAL/MOL
REMARK 924 INTRA-LIGAND FREE ENERGY PREDICTED BY IDOCK:   -0.63 KCAL/MOL
REMARK 927      BINDING AFFINITY PREDICTED BY RF-SCORE:    0.00 PKD
ROOT
HETATM    1  C   UNL     1      -7.936   6.614  71.417  1.00  0.00    -0.107 C  
HETATM    2  C   UNL     1      -9.408   6.879  71.101  1.00  0.00    -0.162 C  
ENDROOT
BRANCH   2   3
HETATM    3  C   UNL     1      -9.994   8.015  71.973  1.00  0.00    -0.275 C  
BRANCH   3   4
HETATM    4  C   UNL     1     -11.500   8.169  71.896  1.00  0.00    -0.357 A  
HETATM    5  C   UNL     1     -12.320   7.049  71.695  1.00  0.00    -0.407 A  
HETATM    6  C   UNL     1     -14.295   8.442  71.784  1.00  0.00    -0.558 A  
HETATM    7  C   UNL     1     -13.711   7.186  71.638  1.00  0.00    -0.406 A  
HETATM    8  C   UNL     1     -13.492   9.561  71.995  1.00  0.00    -0.522 A  
HETATM    9  C   UNL     1     -12.103   9.424  72.056  1.00  0.00    -0.379 A  
ENDBRANCH   3   4
ENDBRANCH   2   3
BRANCH   2  10
HETATM   10  N   UNL     1      -9.531   7.183  69.678  1.00  0.00    -0.152 N  
HETATM   11  H   UNL     1      -9.084   8.029  69.325  1.00  0.00     0.000 HD 
HETATM   12  C   UNL     1     -10.219   6.389  68.786  1.00  0.00    -0.177 C  
HETATM   13  O   UNL     1     -10.723   5.309  69.078  1.00  0.00    -0.160 OA 
BRANCH  12  14
HETATM   14  C   UNL     1     -10.258   6.970  67.352  1.00  0.00    -0.215 C  
HETATM   15  N   UNL     1     -11.407   6.368  66.621  1.00  0.00    -0.715 NA 
HETATM   16  H2  UNL     1     -12.291   6.492  67.115  1.00  0.00     0.000 HD 
HETATM   17  H1  UNL     1     -11.433   6.750  65.676  1.00  0.00     0.000 HD 
BRANCH  14  18
HETATM   18  C   UNL     1     -10.422   8.496  67.357  1.00  0.00    -0.351 C  
BRANCH  18  19
HETATM   19  C   UNL     1      -9.265   9.218  66.657  1.00  0.00    -0.190 C  
BRANCH  19  20
HETATM   20  C   UNL     1      -9.717   9.864  65.343  1.00  0.00    -0.375 C  
BRANCH  20  21
HETATM   21  C   UNL     1      -8.766   9.505  64.201  1.00  0.00    -0.215 C  
HETATM   22  N   UNL     1      -9.485   9.477  62.932  1.00  0.00    -0.530 NA 
HETATM   23  H1  UNL     1      -8.850   9.237  62.171  1.00  0.00     0.000 HD 
HETATM   24  H2  UNL     1      -9.977  10.353  62.756  1.00  0.00     0.000 HD 
ENDBRANCH  20  21
ENDBRANCH  19  20
ENDBRANCH  18  19
ENDBRANCH  14  18
ENDBRANCH  12  14
ENDBRANCH   2  10
TORSDOF 8
ENDMDL
MODEL      165
REMARK 921   NORMALIZED FREE ENERGY PREDICTED BY IDOCK:   -4.15 KCAL/MOL
REMARK 922        TOTAL FREE ENERGY PREDICTED BY IDOCK:   -6.87 KCAL/MOL
REMARK 923 INTER-LIGAND FREE ENERGY PREDICTED BY IDOCK:   -5.65 KCAL/MOL
REMARK 924 INTRA-LIGAND FREE ENERGY PREDICTED BY IDOCK:   -1.22 KCAL/MOL
REMARK 927      BINDING AFFINITY PREDICTED BY RF-SCORE:    0.00 PKD
ROOT
HETATM    1  C   UNL     1      -9.457   2.927  70.556  1.00  0.00    -0.210 C  
HETATM    2  C   UNL     1      -9.025   4.392  70.499  1.00  0.00    -0.102 C  
ENDROOT
BRANCH   2   3
HETATM    3  C   UNL     1      -8.397   4.761  69.133  1.00  0.00    -0.084 C  
BRANCH   3   4
HETATM    4  C   UNL     1      -9.095   5.883  68.391  1.00  0.00    -0.115 A  
HETATM    5  C   UNL     1     -10.286   5.639  67.691  1.00  0.00    -0.266 A  
HETATM    6  C   UNL     1     -10.414   7.965  67.039  1.00  0.00    -0.419 A  
HETATM    7  C   UNL     1     -10.941   6.675  67.018  1.00  0.00    -0.463 A  
HETATM    8  C   UNL     1      -9.237   8.222  67.739  1.00  0.00    -0.144 A  
HETATM    9  C   UNL     1      -8.585   7.188  68.416  1.00  0.00    -0.123 A  
ENDBRANCH   3   4
ENDBRANCH   2   3
BRANCH   2  10
HETATM   10  N   UNL     1     -10.182   5.231  70.797  1.00  0.00    -0.235 N  
HETATM   11  H   UNL     1     -10.943   5.262  70.118  1.00  0.00     0.000 HD 
HETATM   12  C   UNL     1     -10.303   5.984  71.945  1.00  0.00    -0.209 C  
HETATM   13  O   UNL     1      -9.494   5.959  72.868  1.00  0.00    -0.151 OA 
BRANCH  12  14
HETATM   14  C   UNL     1     -11.593   6.837  71.986  1.00  0.00    -0.291 C  
HETATM   15  N   UNL     1     -11.625   7.600  73.264  1.00  0.00    -0.629 NA 
HETATM   16  H2  UNL     1     -10.784   8.159  73.405  1.00  0.00     0.000 HD 
HETATM   17  H1  UNL     1     -12.475   8.162  73.292  1.00  0.00     0.000 HD 
BRANCH  14  18
HETATM   18  C   UNL     1     -11.659   7.831  70.818  1.00  0.00    -0.270 C  
BRANCH  18  19
HETATM   19  C   UNL     1     -10.876   9.120  71.092  1.00  0.00    -0.381 C  
BRANCH  19  20
HETATM   20  C   UNL     1     -11.697  10.365  70.737  1.00  0.00    -0.464 C  
BRANCH  20  21
HETATM   21  C   UNL     1     -11.190  11.005  69.445  1.00  0.00    -0.268 C  
HETATM   22  N   UNL     1     -12.152  10.801  68.368  1.00  0.00    -0.827 NA 
HETATM   23  H1  UNL     1     -11.813  11.228  67.505  1.00  0.00     0.000 HD 
HETATM   24  H2  UNL     1     -13.081  11.138  68.619  1.00  0.00     0.000 HD 
ENDBRANCH  20  21
ENDBRANCH  19  20
ENDBRANCH  18  19
ENDBRANCH  14  18
ENDBRANCH  12  14
ENDBRANCH   2  10
TORSDOF 8
ENDMDL
MODEL      166
REMARK 921   NORMALIZED FREE ENERGY PREDICTED BY IDOCK:   -4.13 KCAL/MOL
REMARK 922        TOTAL FREE ENERGY PREDICTED BY IDOCK:   -6.85 KCAL/MOL
REMARK 923 INTER-LIGAND FREE ENERGY PREDICTED BY IDOCK:   -6.66 KCAL/MOL
REMARK 924 INTRA-LIGAND FREE ENERGY PREDICTED BY IDOCK:   -0.19 KCAL/MOL
REMARK 927      BINDING AFFINITY PREDICTED BY RF-SCORE:    0.00 PKD
ROOT
HETATM    1  C   UNL     1     -11.573  14.640  71.172  1.00  0.00    -0.275 C  
HETATM    2  C   UNL     1     -12.245  13.774  70.108  1.00  0.00    -0.356 C  
ENDROOT
BRANCH   2   3
HETATM    3  C   UNL     1     -11.725  14.092  68.685  1.00  0.00    -0.389 C  
BRANCH   3   4
HETATM    4  C   UNL     1     -10.749  15.249  68.604  1.00  0.00    -0.245 A  
HETATM    5  C   UNL     1     -11.216  16.568  68.508  1.00  0.00    -0.296 A  
HETATM    6  C   UNL     1      -8.947  17.402  68.487  1.00  0.00    -0.276 A  
HETATM    7  C   UNL     1     -10.319  17.638  68.448  1.00  0.00    -0.375 A  
HETATM    8  C   UNL     1      -8.470  16.098  68.593  1.00  0.00    -0.216 A  
HETATM    9  C   UNL     1      -9.366  15.027  68.657  1.00  0.00    -0.202 A  
ENDBRANCH   3   4
ENDBRANCH   2   3
BRANCH   2  10
HETATM   10  N   UNL     1     -12.033  12.369  70.449  1.00  0.00    -0.514 N  
HETATM   11  H   UNL     1     -11.352  11.839  69.907  1.00  0.00     0.000 HD 
HETATM   12  C   UNL     1     -12.704  11.722  71.464  1.00  0.00    -0.295 C  
HETATM   13  O   UNL     1     -13.481  12.279  72.234  1.00  0.00    -0.520 OA 
BRANCH  12  14
HETATM   14  C   UNL     1     -12.348  10.220  71.574  1.00  0.00    -0.390 C  
HETATM   15  N   UNL     1     -13.538   9.414  71.184  1.00  0.00    -0.545 NA 
HETATM   16  H2  UNL     1     -13.891   9.663  70.260  1.00  0.00     0.000 HD 
HETATM   17  H1  UNL     1     -13.304   8.425  71.257  1.00  0.00     0.000 HD 
BRANCH  14  18
HETATM   18  C   UNL     1     -11.174   9.842  70.660  1.00  0.00    -0.402 C  
BRANCH  18  19
HETATM   19  C   UNL     1     -10.027   9.166  71.420  1.00  0.00    -0.373 C  
BRANCH  19  20
HETATM   20  C   UNL     1     -10.495   7.890  72.128  1.00  0.00    -0.308 C  
BRANCH  20  21
HETATM   21  C   UNL     1      -9.688   7.643  73.402  1.00  0.00    -0.304 C  
HETATM   22  N   UNL     1      -8.499   8.487  73.420  1.00  0.00    -0.377 NA 
HETATM   23  H1  UNL     1      -7.959   8.322  74.270  1.00  0.00     0.000 HD 
HETATM   24  H2  UNL     1      -8.731   9.473  73.302  1.00  0.00     0.000 HD 
ENDBRANCH  20  21
ENDBRANCH  19  20
ENDBRANCH  18  19
ENDBRANCH  14  18
ENDBRANCH  12  14
ENDBRANCH   2  10
TORSDOF 8
ENDMDL
MODEL      167
REMARK 921   NORMALIZED FREE ENERGY PREDICTED BY IDOCK:   -4.13 KCAL/MOL
REMARK 922        TOTAL FREE ENERGY PREDICTED BY IDOCK:   -6.85 KCAL/MOL
REMARK 923 INTER-LIGAND FREE ENERGY PREDICTED BY IDOCK:   -6.38 KCAL/MOL
REMARK 924 INTRA-LIGAND FREE ENERGY PREDICTED BY IDOCK:   -0.47 KCAL/MOL
REMARK 927      BINDING AFFINITY PREDICTED BY RF-SCORE:    0.00 PKD
ROOT
HETATM    1  C   UNL     1     -12.751  10.744  70.670  1.00  0.00    -0.417 C  
HETATM    2  C   UNL     1     -11.571  11.203  69.814  1.00  0.00    -0.334 C  
ENDROOT
BRANCH   2   3
HETATM    3  C   UNL     1     -10.855  10.016  69.125  1.00  0.00    -0.253 C  
BRANCH   3   4
HETATM    4  C   UNL     1     -10.571   8.830  70.025  1.00  0.00    -0.232 A  
HETATM    5  C   UNL     1      -9.870   9.002  71.228  1.00  0.00    -0.376 A  
HETATM    6  C   UNL     1     -10.069   6.642  71.717  1.00  0.00    -0.198 A  
HETATM    7  C   UNL     1      -9.620   7.913  72.068  1.00  0.00    -0.242 A  
HETATM    8  C   UNL     1     -10.776   6.460  70.530  1.00  0.00    -0.311 A  
HETATM    9  C   UNL     1     -11.030   7.549  69.692  1.00  0.00    -0.164 A  
ENDBRANCH   3   4
ENDBRANCH   2   3
BRANCH   2  10
HETATM   10  N   UNL     1     -12.055  12.173  68.835  1.00  0.00    -0.219 N  
HETATM   11  H   UNL     1     -13.047  12.166  68.599  1.00  0.00     0.000 HD 
HETATM   12  C   UNL     1     -11.244  13.097  68.212  1.00  0.00    -0.274 C  
HETATM   13  O   UNL     1     -10.056  13.254  68.479  1.00  0.00    -0.239 OA 
BRANCH  12  14
HETATM   14  C   UNL     1     -11.989  13.961  67.167  1.00  0.00    -0.420 C  
HETATM   15  N   UNL     1     -11.115  15.101  66.776  1.00  0.00    -0.323 NA 
HETATM   16  H2  UNL     1     -10.200  14.795  66.446  1.00  0.00     0.000 HD 
HETATM   17  H1  UNL     1     -11.606  15.671  66.087  1.00  0.00     0.000 HD 
BRANCH  14  18
HETATM   18  C   UNL     1     -12.344  13.157  65.908  1.00  0.00    -0.462 C  
BRANCH  18  19
HETATM   19  C   UNL     1     -11.210  12.229  65.460  1.00  0.00    -0.376 C  
BRANCH  19  20
HETATM   20  C   UNL     1     -10.850  12.450  63.986  1.00  0.00    -0.441 C  
BRANCH  20  21
HETATM   21  C   UNL     1      -9.704  11.533  63.559  1.00  0.00    -0.336 C  
HETATM   22  N   UNL     1     -10.146  10.626  62.506  1.00  0.00    -0.766 NA 
HETATM   23  H1  UNL     1      -9.381  10.015  62.221  1.00  0.00     0.000 HD 
HETATM   24  H2  UNL     1     -10.545  11.130  61.714  1.00  0.00     0.000 HD 
ENDBRANCH  20  21
ENDBRANCH  19  20
ENDBRANCH  18  19
ENDBRANCH  14  18
ENDBRANCH  12  14
ENDBRANCH   2  10
TORSDOF 8
ENDMDL
MODEL      168
REMARK 921   NORMALIZED FREE ENERGY PREDICTED BY IDOCK:   -4.13 KCAL/MOL
REMARK 922        TOTAL FREE ENERGY PREDICTED BY IDOCK:   -6.85 KCAL/MOL
REMARK 923 INTER-LIGAND FREE ENERGY PREDICTED BY IDOCK:   -5.54 KCAL/MOL
REMARK 924 INTRA-LIGAND FREE ENERGY PREDICTED BY IDOCK:   -1.31 KCAL/MOL
REMARK 927      BINDING AFFINITY PREDICTED BY RF-SCORE:    0.00 PKD
ROOT
HETATM    1  C   UNL     1     -12.947  10.597  71.454  1.00  0.00    -0.545 C  
HETATM    2  C   UNL     1     -12.203  11.326  70.335  1.00  0.00    -0.365 C  
ENDROOT
BRANCH   2   3
HETATM    3  C   UNL     1     -12.172  12.857  70.558  1.00  0.00    -0.395 C  
BRANCH   3   4
HETATM    4  C   UNL     1     -11.741  13.671  69.354  1.00  0.00    -0.379 A  
HETATM    5  C   UNL     1     -11.929  13.174  68.055  1.00  0.00    -0.345 A  
HETATM    6  C   UNL     1     -10.975  15.187  67.115  1.00  0.00    -0.326 A  
HETATM    7  C   UNL     1     -11.546  13.929  66.942  1.00  0.00    -0.400 A  
HETATM    8  C   UNL     1     -10.792  15.697  68.399  1.00  0.00    -0.290 A  
HETATM    9  C   UNL     1     -11.178  14.945  69.512  1.00  0.00    -0.300 A  
ENDBRANCH   3   4
ENDBRANCH   2   3
BRANCH   2  10
HETATM   10  N   UNL     1     -10.854  10.775  70.237  1.00  0.00    -0.454 N  
HETATM   11  H   UNL     1     -10.225  10.895  71.031  1.00  0.00     0.000 HD 
HETATM   12  C   UNL     1     -10.383  10.102  69.130  1.00  0.00    -0.219 C  
HETATM   13  O   UNL     1     -11.073   9.825  68.154  1.00  0.00    -0.215 OA 
BRANCH  12  14
HETATM   14  C   UNL     1      -8.899   9.682  69.253  1.00  0.00    -0.164 C  
HETATM   15  N   UNL     1      -8.709   8.382  68.553  1.00  0.00    -0.136 NA 
HETATM   16  H2  UNL     1      -9.026   8.412  67.584  1.00  0.00     0.000 HD 
HETATM   17  H1  UNL     1      -7.731   8.104  68.634  1.00  0.00     0.000 HD 
BRANCH  14  18
HETATM   18  C   UNL     1      -7.956  10.721  68.629  1.00  0.00    -0.133 C  
BRANCH  18  19
HETATM   19  C   UNL     1      -7.466  10.313  67.235  1.00  0.00    -0.094 C  
BRANCH  19  20
HETATM   20  C   UNL     1      -8.194  11.090  66.133  1.00  0.00    -0.155 C  
BRANCH  20  21
HETATM   21  C   UNL     1      -8.694  10.148  65.037  1.00  0.00    -0.173 C  
HETATM   22  N   UNL     1      -9.797   9.334  65.534  1.00  0.00    -0.452 NA 
HETATM   23  H1  UNL     1     -10.130   8.705  64.803  1.00  0.00     0.000 HD 
HETATM   24  H2  UNL     1     -10.550   9.906  65.915  1.00  0.00     0.000 HD 
ENDBRANCH  20  21
ENDBRANCH  19  20
ENDBRANCH  18  19
ENDBRANCH  14  18
ENDBRANCH  12  14
ENDBRANCH   2  10
TORSDOF 8
ENDMDL
MODEL      169
REMARK 921   NORMALIZED FREE ENERGY PREDICTED BY IDOCK:   -4.12 KCAL/MOL
REMARK 922        TOTAL FREE ENERGY PREDICTED BY IDOCK:   -6.84 KCAL/MOL
REMARK 923 INTER-LIGAND FREE ENERGY PREDICTED BY IDOCK:   -5.97 KCAL/MOL
REMARK 924 INTRA-LIGAND FREE ENERGY PREDICTED BY IDOCK:   -0.87 KCAL/MOL
REMARK 927      BINDING AFFINITY PREDICTED BY RF-SCORE:    0.00 PKD
ROOT
HETATM    1  C   UNL     1      -8.960   5.729  72.240  1.00  0.00    -0.139 C  
HETATM    2  C   UNL     1     -10.272   5.483  71.496  1.00  0.00    -0.212 C  
ENDROOT
BRANCH   2   3
HETATM    3  C   UNL     1     -11.507   5.747  72.391  1.00  0.00    -0.343 C  
BRANCH   3   4
HETATM    4  C   UNL     1     -12.246   7.037  72.098  1.00  0.00    -0.255 A  
HETATM    5  C   UNL     1     -13.580   7.009  71.663  1.00  0.00    -0.346 A  
HETATM    6  C   UNL     1     -13.636   9.425  71.584  1.00  0.00    -0.437 A  
HETATM    7  C   UNL     1     -14.269   8.198  71.406  1.00  0.00    -0.431 A  
HETATM    8  C   UNL     1     -12.315   9.467  72.026  1.00  0.00    -0.404 A  
HETATM    9  C   UNL     1     -11.626   8.280  72.287  1.00  0.00    -0.449 A  
ENDBRANCH   3   4
ENDBRANCH   2   3
BRANCH   2  10
HETATM   10  N   UNL     1     -10.294   6.321  70.300  1.00  0.00    -0.195 N  
HETATM   11  H   UNL     1     -10.353   7.332  70.421  1.00  0.00     0.000 HD 
HETATM   12  C   UNL     1     -10.238   5.820  69.017  1.00  0.00    -0.217 C  
HETATM   13  O   UNL     1     -10.080   4.632  68.753  1.00  0.00    -0.121 OA 
BRANCH  12  14
HETATM   14  C   UNL     1     -10.347   6.913  67.927  1.00  0.00    -0.195 C  
HETATM   15  N   UNL     1     -11.535   6.627  67.077  1.00  0.00    -0.754 NA 
HETATM   16  H2  UNL     1     -12.392   6.535  67.623  1.00  0.00     0.000 HD 
HETATM   17  H1  UNL     1     -11.607   7.346  66.358  1.00  0.00     0.000 HD 
BRANCH  14  18
HETATM   18  C   UNL     1     -10.502   8.314  68.535  1.00  0.00    -0.199 C  
BRANCH  18  19
HETATM   19  C   UNL     1     -10.734   9.397  67.475  1.00  0.00    -0.290 C  
BRANCH  19  20
HETATM   20  C   UNL     1     -11.444  10.620  68.065  1.00  0.00    -0.289 C  
BRANCH  20  21
HETATM   21  C   UNL     1     -10.668  11.182  69.256  1.00  0.00    -0.199 C  
HETATM   22  N   UNL     1     -11.331  12.372  69.777  1.00  0.00    -0.490 NA 
HETATM   23  H1  UNL     1     -10.813  12.747  70.572  1.00  0.00     0.000 HD 
HETATM   24  H2  UNL     1     -12.307  12.191  70.011  1.00  0.00     0.000 HD 
ENDBRANCH  20  21
ENDBRANCH  19  20
ENDBRANCH  18  19
ENDBRANCH  14  18
ENDBRANCH  12  14
ENDBRANCH   2  10
TORSDOF 8
ENDMDL
MODEL      170
REMARK 921   NORMALIZED FREE ENERGY PREDICTED BY IDOCK:   -4.12 KCAL/MOL
REMARK 922        TOTAL FREE ENERGY PREDICTED BY IDOCK:   -6.83 KCAL/MOL
REMARK 923 INTER-LIGAND FREE ENERGY PREDICTED BY IDOCK:   -6.16 KCAL/MOL
REMARK 924 INTRA-LIGAND FREE ENERGY PREDICTED BY IDOCK:   -0.67 KCAL/MOL
REMARK 927      BINDING AFFINITY PREDICTED BY RF-SCORE:    0.00 PKD
ROOT
HETATM    1  C   UNL     1     -10.140  18.685  67.859  1.00  0.00    -0.407 C  
HETATM    2  C   UNL     1      -9.646  18.153  66.514  1.00  0.00    -0.317 C  
ENDROOT
BRANCH   2   3
HETATM    3  C   UNL     1      -8.103  18.186  66.406  1.00  0.00    -0.291 C  
BRANCH   3   4
HETATM    4  C   UNL     1      -7.374  17.268  67.366  1.00  0.00    -0.185 A  
HETATM    5  C   UNL     1      -7.001  17.722  68.640  1.00  0.00    -0.247 A  
HETATM    6  C   UNL     1      -6.052  15.562  69.167  1.00  0.00    -0.110 A  
HETATM    7  C   UNL     1      -6.342  16.873  69.534  1.00  0.00    -0.233 A  
HETATM    8  C   UNL     1      -6.426  15.094  67.908  1.00  0.00    -0.176 A  
HETATM    9  C   UNL     1      -7.088  15.941  67.015  1.00  0.00    -0.207 A  
ENDBRANCH   3   4
ENDBRANCH   2   3
BRANCH   2  10
HETATM   10  N   UNL     1     -10.163  16.799  66.331  1.00  0.00    -0.313 N  
HETATM   11  H   UNL     1      -9.927  16.094  67.029  1.00  0.00     0.000 HD 
HETATM   12  C   UNL     1     -10.953  16.421  65.266  1.00  0.00    -0.195 C  
HETATM   13  O   UNL     1     -11.370  17.200  64.414  1.00  0.00    -1.115 OA 
BRANCH  12  14
HETATM   14  C   UNL     1     -11.310  14.915  65.271  1.00  0.00    -0.358 C  
HETATM   15  N   UNL     1     -12.426  14.684  64.314  1.00  0.00    -0.747 NA 
HETATM   16  H2  UNL     1     -12.215  15.031  63.378  1.00  0.00     0.000 HD 
HETATM   17  H1  UNL     1     -12.662  13.692  64.316  1.00  0.00     0.000 HD 
BRANCH  14  18
HETATM   18  C   UNL     1     -10.116  14.043  64.856  1.00  0.00    -0.288 C  
BRANCH  18  19
HETATM   19  C   UNL     1     -10.166  12.640  65.471  1.00  0.00    -0.298 C  
BRANCH  19  20
HETATM   20  C   UNL     1     -10.285  11.557  64.393  1.00  0.00    -0.350 C  
BRANCH  20  21
HETATM   21  C   UNL     1     -11.750  11.292  64.042  1.00  0.00     0.265 C  
HETATM   22  N   UNL     1     -12.128  12.042  62.849  1.00  0.00    -0.589 NA 
HETATM   23  H1  UNL     1     -13.105  11.865  62.616  1.00  0.00     0.000 HD 
HETATM   24  H2  UNL     1     -11.508  11.845  62.064  1.00  0.00     0.000 HD 
ENDBRANCH  20  21
ENDBRANCH  19  20
ENDBRANCH  18  19
ENDBRANCH  14  18
ENDBRANCH  12  14
ENDBRANCH   2  10
TORSDOF 8
ENDMDL
MODEL      171
REMARK 921   NORMALIZED FREE ENERGY PREDICTED BY IDOCK:   -4.12 KCAL/MOL
REMARK 922        TOTAL FREE ENERGY PREDICTED BY IDOCK:   -6.83 KCAL/MOL
REMARK 923 INTER-LIGAND FREE ENERGY PREDICTED BY IDOCK:   -5.09 KCAL/MOL
REMARK 924 INTRA-LIGAND FREE ENERGY PREDICTED BY IDOCK:   -1.75 KCAL/MOL
REMARK 927      BINDING AFFINITY PREDICTED BY RF-SCORE:    0.00 PKD
ROOT
HETATM    1  C   UNL     1      -8.637  11.346  67.517  1.00  0.00    -0.137 C  
HETATM    2  C   UNL     1      -9.997  10.650  67.511  1.00  0.00    -0.171 C  
ENDROOT
BRANCH   2   3
HETATM    3  C   UNL     1     -10.022   9.428  66.562  1.00  0.00    -0.339 C  
BRANCH   3   4
HETATM    4  C   UNL     1      -9.917   8.082  67.249  1.00  0.00    -0.282 A  
HETATM    5  C   UNL     1      -8.728   7.699  67.887  1.00  0.00    -0.124 A  
HETATM    6  C   UNL     1      -9.725   5.600  68.555  1.00  0.00    -0.172 A  
HETATM    7  C   UNL     1      -8.633   6.464  68.535  1.00  0.00    -0.122 A  
HETATM    8  C   UNL     1     -10.916   5.973  67.935  1.00  0.00    -0.334 A  
HETATM    9  C   UNL     1     -11.013   7.209  67.291  1.00  0.00    -0.333 A  
ENDBRANCH   3   4
ENDBRANCH   2   3
BRANCH   2  10
HETATM   10  N   UNL     1     -10.330  10.267  68.880  1.00  0.00    -0.192 N  
HETATM   11  H   UNL     1      -9.663   9.694  69.396  1.00  0.00     0.000 HD 
HETATM   12  C   UNL     1     -11.497  10.637  69.514  1.00  0.00    -0.291 C  
HETATM   13  O   UNL     1     -12.331  11.393  69.024  1.00  0.00    -0.407 OA 
BRANCH  12  14
HETATM   14  C   UNL     1     -11.638  10.043  70.936  1.00  0.00    -0.378 C  
HETATM   15  N   UNL     1     -12.852  10.617  71.578  1.00  0.00    -0.430 NA 
HETATM   16  H2  UNL     1     -13.692  10.482  71.015  1.00  0.00     0.000 HD 
HETATM   17  H1  UNL     1     -12.945  10.227  72.515  1.00  0.00     0.000 HD 
BRANCH  14  18
HETATM   18  C   UNL     1     -11.772   8.514  70.906  1.00  0.00    -0.274 C  
BRANCH  18  19
HETATM   19  C   UNL     1     -10.590   7.804  71.575  1.00  0.00    -0.247 C  
BRANCH  19  20
HETATM   20  C   UNL     1      -9.614   8.805  72.204  1.00  0.00    -0.325 C  
BRANCH  20  21
HETATM   21  C   UNL     1      -8.206   8.628  71.634  1.00  0.00    -0.144 C  
HETATM   22  N   UNL     1      -7.859   9.759  70.782  1.00  0.00    -0.383 NA 
HETATM   23  H1  UNL     1      -6.920   9.641  70.402  1.00  0.00     0.000 HD 
HETATM   24  H2  UNL     1      -7.962  10.649  71.270  1.00  0.00     0.000 HD 
ENDBRANCH  20  21
ENDBRANCH  19  20
ENDBRANCH  18  19
ENDBRANCH  14  18
ENDBRANCH  12  14
ENDBRANCH   2  10
TORSDOF 8
ENDMDL
MODEL      172
REMARK 921   NORMALIZED FREE ENERGY PREDICTED BY IDOCK:   -4.12 KCAL/MOL
REMARK 922        TOTAL FREE ENERGY PREDICTED BY IDOCK:   -6.83 KCAL/MOL
REMARK 923 INTER-LIGAND FREE ENERGY PREDICTED BY IDOCK:   -6.34 KCAL/MOL
REMARK 924 INTRA-LIGAND FREE ENERGY PREDICTED BY IDOCK:   -0.49 KCAL/MOL
REMARK 927      BINDING AFFINITY PREDICTED BY RF-SCORE:    0.00 PKD
ROOT
HETATM    1  C   UNL     1     -12.212  12.775  64.713  1.00  0.00    -0.517 C  
HETATM    2  C   UNL     1     -11.175  13.592  65.484  1.00  0.00    -0.292 C  
ENDROOT
BRANCH   2   3
HETATM    3  C   UNL     1     -11.830  14.699  66.345  1.00  0.00    -0.304 C  
BRANCH   3   4
HETATM    4  C   UNL     1     -10.877  15.760  66.856  1.00  0.00    -0.265 A  
HETATM    5  C   UNL     1     -10.597  15.865  68.227  1.00  0.00    -0.276 A  
HETATM    6  C   UNL     1      -9.083  17.703  67.809  1.00  0.00    -0.247 A  
HETATM    7  C   UNL     1      -9.706  16.833  68.700  1.00  0.00    -0.259 A  
HETATM    8  C   UNL     1      -9.343  17.602  66.444  1.00  0.00    -0.265 A  
HETATM    9  C   UNL     1     -10.231  16.632  65.970  1.00  0.00    -0.366 A  
ENDBRANCH   3   4
ENDBRANCH   2   3
BRANCH   2  10
HETATM   10  N   UNL     1     -10.380  12.681  66.303  1.00  0.00    -0.248 N  
HETATM   11  H   UNL     1      -9.369  12.670  66.170  1.00  0.00     0.000 HD 
HETATM   12  C   UNL     1     -10.922  11.834  67.246  1.00  0.00    -0.267 C  
HETATM   13  O   UNL     1     -12.110  11.820  67.551  1.00  0.00    -0.599 OA 
BRANCH  12  14
HETATM   14  C   UNL     1      -9.872  10.923  67.927  1.00  0.00    -0.172 C  
HETATM   15  N   UNL     1      -9.026  11.755  68.827  1.00  0.00    -0.375 NA 
HETATM   16  H2  UNL     1      -9.579  12.284  69.502  1.00  0.00     0.000 HD 
HETATM   17  H1  UNL     1      -8.335  11.155  69.276  1.00  0.00     0.000 HD 
BRANCH  14  18
HETATM   18  C   UNL     1     -10.532   9.813  68.758  1.00  0.00    -0.240 C  
BRANCH  18  19
HETATM   19  C   UNL     1     -10.620  10.161  70.248  1.00  0.00    -0.324 C  
BRANCH  19  20
HETATM   20  C   UNL     1     -12.014   9.866  70.813  1.00  0.00    -0.410 C  
BRANCH  20  21
HETATM   21  C   UNL     1     -12.687  11.147  71.308  1.00  0.00    -0.426 C  
HETATM   22  N   UNL     1     -12.150  12.306  70.605  1.00  0.00    -0.484 NA 
HETATM   23  H1  UNL     1     -12.598  13.160  70.936  1.00  0.00     0.000 HD 
HETATM   24  H2  UNL     1     -12.225  12.204  69.593  1.00  0.00     0.000 HD 
ENDBRANCH  20  21
ENDBRANCH  19  20
ENDBRANCH  18  19
ENDBRANCH  14  18
ENDBRANCH  12  14
ENDBRANCH   2  10
TORSDOF 8
ENDMDL
MODEL      173
REMARK 921   NORMALIZED FREE ENERGY PREDICTED BY IDOCK:   -4.11 KCAL/MOL
REMARK 922        TOTAL FREE ENERGY PREDICTED BY IDOCK:   -6.83 KCAL/MOL
REMARK 923 INTER-LIGAND FREE ENERGY PREDICTED BY IDOCK:   -5.26 KCAL/MOL
REMARK 924 INTRA-LIGAND FREE ENERGY PREDICTED BY IDOCK:   -1.57 KCAL/MOL
REMARK 927      BINDING AFFINITY PREDICTED BY RF-SCORE:    0.00 PKD
ROOT
HETATM    1  C   UNL     1     -10.763   7.091  69.215  1.00  0.00    -0.245 C  
HETATM    2  C   UNL     1     -10.336   8.220  68.278  1.00  0.00    -0.198 C  
ENDROOT
BRANCH   2   3
HETATM    3  C   UNL     1     -10.381   7.792  66.792  1.00  0.00    -0.348 C  
BRANCH   3   4
HETATM    4  C   UNL     1      -9.489   8.595  65.867  1.00  0.00    -0.243 A  
HETATM    5  C   UNL     1      -8.250   8.084  65.453  1.00  0.00    -0.152 A  
HETATM    6  C   UNL     1      -7.843  10.064  64.124  1.00  0.00    -0.144 A  
HETATM    7  C   UNL     1      -7.432   8.816  64.587  1.00  0.00    -0.104 A  
HETATM    8  C   UNL     1      -9.076  10.578  64.519  1.00  0.00    -0.251 A  
HETATM    9  C   UNL     1      -9.897   9.845  65.381  1.00  0.00    -0.384 A  
ENDBRANCH   3   4
ENDBRANCH   2   3
BRANCH   2  10
HETATM   10  N   UNL     1     -11.192   9.378  68.524  1.00  0.00    -0.473 N  
HETATM   11  H   UNL     1     -12.201   9.258  68.442  1.00  0.00     0.000 HD 
HETATM   12  C   UNL     1     -10.711  10.625  68.862  1.00  0.00    -0.219 C  
HETATM   13  O   UNL     1      -9.526  10.866  69.072  1.00  0.00    -0.197 OA 
BRANCH  12  14
HETATM   14  C   UNL     1     -11.820  11.694  69.000  1.00  0.00    -0.328 C  
HETATM   15  N   UNL     1     -11.439  12.645  70.080  1.00  0.00    -0.529 NA 
HETATM   16  H2  UNL     1     -10.518  13.057  69.929  1.00  0.00     0.000 HD 
HETATM   17  H1  UNL     1     -12.170  13.350  70.171  1.00  0.00     0.000 HD 
BRANCH  14  18
HETATM   18  C   UNL     1     -12.021  12.482  67.697  1.00  0.00    -0.287 C  
BRANCH  18  19
HETATM   19  C   UNL     1     -11.156  13.746  67.631  1.00  0.00    -0.292 C  
BRANCH  19  20
HETATM   20  C   UNL     1     -10.018  13.597  66.615  1.00  0.00    -0.283 C  
BRANCH  20  21
HETATM   21  C   UNL     1      -8.656  13.639  67.307  1.00  0.00    -0.214 C  
HETATM   22  N   UNL     1      -8.824  13.816  68.745  1.00  0.00    -0.368 NA 
HETATM   23  H1  UNL     1      -7.916  13.845  69.207  1.00  0.00     0.000 HD 
HETATM   24  H2  UNL     1      -9.433  13.102  69.147  1.00  0.00     0.000 HD 
ENDBRANCH  20  21
ENDBRANCH  19  20
ENDBRANCH  18  19
ENDBRANCH  14  18
ENDBRANCH  12  14
ENDBRANCH   2  10
TORSDOF 8
ENDMDL
MODEL      174
REMARK 921   NORMALIZED FREE ENERGY PREDICTED BY IDOCK:   -4.11 KCAL/MOL
REMARK 922        TOTAL FREE ENERGY PREDICTED BY IDOCK:   -6.82 KCAL/MOL
REMARK 923 INTER-LIGAND FREE ENERGY PREDICTED BY IDOCK:   -5.95 KCAL/MOL
REMARK 924 INTRA-LIGAND FREE ENERGY PREDICTED BY IDOCK:   -0.87 KCAL/MOL
REMARK 927      BINDING AFFINITY PREDICTED BY RF-SCORE:    0.00 PKD
ROOT
HETATM    1  C   UNL     1     -12.239  12.840  63.414  1.00  0.00    -0.594 C  
HETATM    2  C   UNL     1     -10.880  13.024  64.088  1.00  0.00    -0.405 C  
ENDROOT
BRANCH   2   3
HETATM    3  C   UNL     1     -10.750  14.407  64.769  1.00  0.00    -0.423 C  
BRANCH   3   4
HETATM    4  C   UNL     1     -10.769  14.379  66.284  1.00  0.00    -0.307 A  
HETATM    5  C   UNL     1     -11.963  14.129  66.977  1.00  0.00    -0.471 A  
HETATM    6  C   UNL     1     -10.806  14.292  69.094  1.00  0.00    -0.264 A  
HETATM    7  C   UNL     1     -11.981  14.088  68.374  1.00  0.00    -0.378 A  
HETATM    8  C   UNL     1      -9.611  14.531  68.418  1.00  0.00    -0.213 A  
HETATM    9  C   UNL     1      -9.592  14.569  67.021  1.00  0.00    -0.250 A  
ENDBRANCH   3   4
ENDBRANCH   2   3
BRANCH   2  10
HETATM   10  N   UNL     1     -10.685  11.939  65.047  1.00  0.00    -0.282 N  
HETATM   11  H   UNL     1     -11.080  12.045  65.981  1.00  0.00     0.000 HD 
HETATM   12  C   UNL     1      -9.997  10.780  64.758  1.00  0.00    -0.320 C  
HETATM   13  O   UNL     1      -9.554  10.507  63.646  1.00  0.00    -0.273 OA 
BRANCH  12  14
HETATM   14  C   UNL     1      -9.874   9.822  65.967  1.00  0.00    -0.274 C  
HETATM   15  N   UNL     1      -8.437   9.686  66.328  1.00  0.00    -0.119 NA 
HETATM   16  H2  UNL     1      -7.992  10.588  66.500  1.00  0.00     0.000 HD 
HETATM   17  H1  UNL     1      -8.355   9.055  67.125  1.00  0.00     0.000 HD 
BRANCH  14  18
HETATM   18  C   UNL     1     -10.644  10.342  67.189  1.00  0.00    -0.320 C  
BRANCH  18  19
HETATM   19  C   UNL     1     -10.247   9.627  68.486  1.00  0.00    -0.216 C  
BRANCH  19  20
HETATM   20  C   UNL     1     -11.078  10.118  69.677  1.00  0.00    -0.308 C  
BRANCH  20  21
HETATM   21  C   UNL     1     -11.607   8.942  70.497  1.00  0.00    -0.160 C  
HETATM   22  N   UNL     1     -11.344   9.154  71.916  1.00  0.00    -0.375 NA 
HETATM   23  H1  UNL     1     -11.697   8.369  72.463  1.00  0.00     0.000 HD 
HETATM   24  H2  UNL     1     -11.719  10.044  72.242  1.00  0.00     0.000 HD 
ENDBRANCH  20  21
ENDBRANCH  19  20
ENDBRANCH  18  19
ENDBRANCH  14  18
ENDBRANCH  12  14
ENDBRANCH   2  10
TORSDOF 8
ENDMDL
MODEL      175
REMARK 921   NORMALIZED FREE ENERGY PREDICTED BY IDOCK:   -4.10 KCAL/MOL
REMARK 922        TOTAL FREE ENERGY PREDICTED BY IDOCK:   -6.81 KCAL/MOL
REMARK 923 INTER-LIGAND FREE ENERGY PREDICTED BY IDOCK:   -6.22 KCAL/MOL
REMARK 924 INTRA-LIGAND FREE ENERGY PREDICTED BY IDOCK:   -0.59 KCAL/MOL
REMARK 927      BINDING AFFINITY PREDICTED BY RF-SCORE:    0.00 PKD
ROOT
HETATM    1  C   UNL     1      -8.169  11.003  67.728  1.00  0.00    -0.117 C  
HETATM    2  C   UNL     1      -9.657  10.693  67.573  1.00  0.00    -0.161 C  
ENDROOT
BRANCH   2   3
HETATM    3  C   UNL     1      -9.918   9.615  66.493  1.00  0.00    -0.313 C  
BRANCH   3   4
HETATM    4  C   UNL     1      -9.709  10.076  65.065  1.00  0.00    -0.386 A  
HETATM    5  C   UNL     1      -8.888   9.344  64.194  1.00  0.00    -0.216 A  
HETATM    6  C   UNL     1      -9.342  10.905  62.404  1.00  0.00    -0.252 A  
HETATM    7  C   UNL     1      -8.705   9.758  62.871  1.00  0.00    -0.229 A  
HETATM    8  C   UNL     1     -10.169  11.636  63.256  1.00  0.00    -0.445 A  
HETATM    9  C   UNL     1     -10.355  11.220  64.577  1.00  0.00    -0.381 A  
ENDBRANCH   3   4
ENDBRANCH   2   3
BRANCH   2  10
HETATM   10  N   UNL     1     -10.185  10.283  68.872  1.00  0.00    -0.193 N  
HETATM   11  H   UNL     1      -9.573   9.760  69.497  1.00  0.00     0.000 HD 
HETATM   12  C   UNL     1     -11.464  10.564  69.298  1.00  0.00    -0.256 C  
HETATM   13  O   UNL     1     -12.258  11.257  68.669  1.00  0.00    -0.562 OA 
BRANCH  12  14
HETATM   14  C   UNL     1     -11.797   9.959  70.683  1.00  0.00    -0.303 C  
HETATM   15  N   UNL     1     -13.276   9.845  70.815  1.00  0.00    -0.602 NA 
HETATM   16  H2  UNL     1     -13.696   9.318  70.049  1.00  0.00     0.000 HD 
HETATM   17  H1  UNL     1     -13.495   9.446  71.728  1.00  0.00     0.000 HD 
BRANCH  14  18
HETATM   18  C   UNL     1     -11.177   8.565  70.862  1.00  0.00    -0.304 C  
BRANCH  18  19
HETATM   19  C   UNL     1     -10.326   8.455  72.132  1.00  0.00    -0.397 C  
BRANCH  19  20
HETATM   20  C   UNL     1     -10.905   7.425  73.109  1.00  0.00    -0.435 C  
BRANCH  20  21
HETATM   21  C   UNL     1     -11.383   6.176  72.369  1.00  0.00    -0.296 C  
HETATM   22  N   UNL     1     -12.826   6.021  72.515  1.00  0.00    -0.366 NA 
HETATM   23  H1  UNL     1     -13.144   5.187  72.022  1.00  0.00     0.000 HD 
HETATM   24  H2  UNL     1     -13.329   6.856  72.216  1.00  0.00     0.000 HD 
ENDBRANCH  20  21
ENDBRANCH  19  20
ENDBRANCH  18  19
ENDBRANCH  14  18
ENDBRANCH  12  14
ENDBRANCH   2  10
TORSDOF 8
ENDMDL
MODEL      176
REMARK 921   NORMALIZED FREE ENERGY PREDICTED BY IDOCK:   -4.10 KCAL/MOL
REMARK 922        TOTAL FREE ENERGY PREDICTED BY IDOCK:   -6.81 KCAL/MOL
REMARK 923 INTER-LIGAND FREE ENERGY PREDICTED BY IDOCK:   -6.81 KCAL/MOL
REMARK 924 INTRA-LIGAND FREE ENERGY PREDICTED BY IDOCK:    0.00 KCAL/MOL
REMARK 927      BINDING AFFINITY PREDICTED BY RF-SCORE:    0.00 PKD
ROOT
HETATM    1  C   UNL     1     -10.368  11.348  67.127  1.00  0.00    -0.247 C  
HETATM    2  C   UNL     1     -10.525  12.324  68.292  1.00  0.00    -0.226 C  
ENDROOT
BRANCH   2   3
HETATM    3  C   UNL     1     -11.677  13.330  68.059  1.00  0.00    -0.394 C  
BRANCH   3   4
HETATM    4  C   UNL     1     -11.568  14.143  66.784  1.00  0.00    -0.409 A  
HETATM    5  C   UNL     1     -10.617  15.168  66.673  1.00  0.00    -0.304 A  
HETATM    6  C   UNL     1     -11.337  15.632  64.412  1.00  0.00    -0.272 A  
HETATM    7  C   UNL     1     -10.504  15.909  65.493  1.00  0.00    -0.425 A  
HETATM    8  C   UNL     1     -12.279  14.610  64.505  1.00  0.00    -0.473 A  
HETATM    9  C   UNL     1     -12.390  13.865  65.683  1.00  0.00    -0.511 A  
ENDBRANCH   3   4
ENDBRANCH   2   3
BRANCH   2  10
HETATM   10  N   UNL     1     -10.730  11.556  69.518  1.00  0.00    -0.450 N  
HETATM   11  H   UNL     1      -9.973  11.526  70.201  1.00  0.00     0.000 HD 
HETATM   12  C   UNL     1     -11.890  10.869  69.802  1.00  0.00    -0.345 C  
HETATM   13  O   UNL     1     -12.895  10.902  69.098  1.00  0.00    -0.137 OA 
BRANCH  12  14
HETATM   14  C   UNL     1     -11.826  10.080  71.132  1.00  0.00    -0.393 C  
HETATM   15  N   UNL     1     -13.055   9.248  71.256  1.00  0.00    -0.471 NA 
HETATM   16  H2  UNL     1     -13.197   8.640  70.449  1.00  0.00     0.000 HD 
HETATM   17  H1  UNL     1     -13.013   8.728  72.132  1.00  0.00     0.000 HD 
BRANCH  14  18
HETATM   18  C   UNL     1     -10.599   9.159  71.192  1.00  0.00    -0.379 C  
BRANCH  18  19
HETATM   19  C   UNL     1     -10.524   8.358  72.497  1.00  0.00    -0.372 C  
BRANCH  19  20
HETATM   20  C   UNL     1     -10.341   6.860  72.227  1.00  0.00    -0.219 C  
BRANCH  20  21
HETATM   21  C   UNL     1     -11.692   6.150  72.143  1.00  0.00    -0.309 C  
HETATM   22  N   UNL     1     -11.886   5.291  73.306  1.00  0.00    -0.471 NA 
HETATM   23  H1  UNL     1     -12.788   4.817  73.249  1.00  0.00     0.000 HD 
HETATM   24  H2  UNL     1     -11.781   5.806  74.180  1.00  0.00     0.000 HD 
ENDBRANCH  20  21
ENDBRANCH  19  20
ENDBRANCH  18  19
ENDBRANCH  14  18
ENDBRANCH  12  14
ENDBRANCH   2  10
TORSDOF 8
ENDMDL
MODEL      177
REMARK 921   NORMALIZED FREE ENERGY PREDICTED BY IDOCK:   -4.08 KCAL/MOL
REMARK 922        TOTAL FREE ENERGY PREDICTED BY IDOCK:   -6.78 KCAL/MOL
REMARK 923 INTER-LIGAND FREE ENERGY PREDICTED BY IDOCK:   -6.05 KCAL/MOL
REMARK 924 INTRA-LIGAND FREE ENERGY PREDICTED BY IDOCK:   -0.73 KCAL/MOL
REMARK 927      BINDING AFFINITY PREDICTED BY RF-SCORE:    0.00 PKD
ROOT
HETATM    1  C   UNL     1     -12.311  11.847  63.777  1.00  0.00    -0.541 C  
HETATM    2  C   UNL     1     -11.529  12.597  64.855  1.00  0.00    -0.322 C  
ENDROOT
BRANCH   2   3
HETATM    3  C   UNL     1     -12.120  14.001  65.133  1.00  0.00    -0.418 C  
BRANCH   3   4
HETATM    4  C   UNL     1     -11.241  14.912  65.965  1.00  0.00    -0.327 A  
HETATM    5  C   UNL     1     -10.089  15.489  65.412  1.00  0.00    -0.387 A  
HETATM    6  C   UNL     1      -9.623  16.630  67.492  1.00  0.00    -0.242 A  
HETATM    7  C   UNL     1      -9.284  16.343  66.173  1.00  0.00    -0.365 A  
HETATM    8  C   UNL     1     -10.771  16.072  68.051  1.00  0.00    -0.309 A  
HETATM    9  C   UNL     1     -11.578  15.222  67.290  1.00  0.00    -0.164 A  
ENDBRANCH   3   4
ENDBRANCH   2   3
BRANCH   2  10
HETATM   10  N   UNL     1     -11.505  11.781  66.066  1.00  0.00    -0.285 N  
HETATM   11  H   UNL     1     -12.380  11.367  66.385  1.00  0.00     0.000 HD 
HETATM   12  C   UNL     1     -10.364  11.540  66.800  1.00  0.00    -0.226 C  
HETATM   13  O   UNL     1      -9.244  11.914  66.466  1.00  0.00    -0.205 OA 
BRANCH  12  14
HETATM   14  C   UNL     1     -10.621  10.703  68.076  1.00  0.00    -0.211 C  
HETATM   15  N   UNL     1     -12.086  10.478  68.216  1.00  0.00    -0.725 NA 
HETATM   16  H2  UNL     1     -12.496  10.054  67.383  1.00  0.00     0.000 HD 
HETATM   17  H1  UNL     1     -12.256   9.926  69.057  1.00  0.00     0.000 HD 
BRANCH  14  18
HETATM   18  C   UNL     1      -9.916   9.340  68.017  1.00  0.00    -0.216 C  
BRANCH  18  19
HETATM   19  C   UNL     1     -10.194   8.586  66.712  1.00  0.00    -0.370 C  
BRANCH  19  20
HETATM   20  C   UNL     1     -10.749   7.182  66.980  1.00  0.00    -0.420 C  
BRANCH  20  21
HETATM   21  C   UNL     1     -11.025   6.977  68.470  1.00  0.00    -0.077 C  
HETATM   22  N   UNL     1     -10.487   5.696  68.913  1.00  0.00    -0.237 NA 
HETATM   23  H1  UNL     1     -10.671   5.559  69.907  1.00  0.00     0.000 HD 
HETATM   24  H2  UNL     1      -9.496   5.604  68.693  1.00  0.00     0.000 HD 
ENDBRANCH  20  21
ENDBRANCH  19  20
ENDBRANCH  18  19
ENDBRANCH  14  18
ENDBRANCH  12  14
ENDBRANCH   2  10
TORSDOF 8
ENDMDL
MODEL      178
REMARK 921   NORMALIZED FREE ENERGY PREDICTED BY IDOCK:   -4.08 KCAL/MOL
REMARK 922        TOTAL FREE ENERGY PREDICTED BY IDOCK:   -6.78 KCAL/MOL
REMARK 923 INTER-LIGAND FREE ENERGY PREDICTED BY IDOCK:   -6.53 KCAL/MOL
REMARK 924 INTRA-LIGAND FREE ENERGY PREDICTED BY IDOCK:   -0.25 KCAL/MOL
REMARK 927      BINDING AFFINITY PREDICTED BY RF-SCORE:    0.00 PKD
ROOT
HETATM    1  C   UNL     1      -9.798   7.342  66.766  1.00  0.00    -0.290 C  
HETATM    2  C   UNL     1     -10.422   8.698  67.093  1.00  0.00    -0.289 C  
ENDROOT
BRANCH   2   3
HETATM    3  C   UNL     1      -9.702   9.403  68.268  1.00  0.00    -0.162 C  
BRANCH   3   4
HETATM    4  C   UNL     1     -10.593  10.262  69.142  1.00  0.00    -0.254 A  
HETATM    5  C   UNL     1     -10.932  11.565  68.749  1.00  0.00    -0.271 A  
HETATM    6  C   UNL     1     -12.272  11.850  70.742  1.00  0.00    -0.401 A  
HETATM    7  C   UNL     1     -11.766  12.355  69.547  1.00  0.00    -0.388 A  
HETATM    8  C   UNL     1     -11.952  10.553  71.138  1.00  0.00    -0.435 A  
HETATM    9  C   UNL     1     -11.122   9.762  70.340  1.00  0.00    -0.367 A  
ENDBRANCH   3   4
ENDBRANCH   2   3
BRANCH   2  10
HETATM   10  N   UNL     1     -10.404   9.522  65.887  1.00  0.00    -0.180 N  
HETATM   11  H   UNL     1     -11.292   9.872  65.528  1.00  0.00     0.000 HD 
HETATM   12  C   UNL     1      -9.252   9.853  65.207  1.00  0.00    -0.226 C  
HETATM   13  O   UNL     1      -8.123   9.561  65.591  1.00  0.00    -0.108 OA 
BRANCH  12  14
HETATM   14  C   UNL     1      -9.512  10.677  63.923  1.00  0.00    -0.282 C  
HETATM   15  N   UNL     1      -9.557   9.750  62.758  1.00  0.00    -0.555 NA 
HETATM   16  H2  UNL     1     -10.237   9.000  62.883  1.00  0.00     0.000 HD 
HETATM   17  H1  UNL     1      -9.728  10.293  61.912  1.00  0.00     0.000 HD 
BRANCH  14  18
HETATM   18  C   UNL     1     -10.841  11.443  63.995  1.00  0.00    -0.450 C  
BRANCH  18  19
HETATM   19  C   UNL     1     -10.646  12.941  64.254  1.00  0.00    -0.430 C  
BRANCH  19  20
HETATM   20  C   UNL     1     -11.985  13.688  64.273  1.00  0.00    -0.488 C  
BRANCH  20  21
HETATM   21  C   UNL     1     -12.757  13.395  65.560  1.00  0.00    -0.410 C  
HETATM   22  N   UNL     1     -12.343  14.310  66.618  1.00  0.00    -0.541 NA 
HETATM   23  H1  UNL     1     -12.858  14.115  67.476  1.00  0.00     0.000 HD 
HETATM   24  H2  UNL     1     -12.433  15.285  66.333  1.00  0.00     0.000 HD 
ENDBRANCH  20  21
ENDBRANCH  19  20
ENDBRANCH  18  19
ENDBRANCH  14  18
ENDBRANCH  12  14
ENDBRANCH   2  10
TORSDOF 8
ENDMDL
MODEL      179
REMARK 921   NORMALIZED FREE ENERGY PREDICTED BY IDOCK:   -4.08 KCAL/MOL
REMARK 922        TOTAL FREE ENERGY PREDICTED BY IDOCK:   -6.78 KCAL/MOL
REMARK 923 INTER-LIGAND FREE ENERGY PREDICTED BY IDOCK:   -6.37 KCAL/MOL
REMARK 924 INTRA-LIGAND FREE ENERGY PREDICTED BY IDOCK:   -0.40 KCAL/MOL
REMARK 927      BINDING AFFINITY PREDICTED BY RF-SCORE:    0.00 PKD
ROOT
HETATM    1  C   UNL     1      -9.788  10.667  64.555  1.00  0.00    -0.388 C  
HETATM    2  C   UNL     1     -10.017  10.422  66.046  1.00  0.00    -0.241 C  
ENDROOT
BRANCH   2   3
HETATM    3  C   UNL     1     -11.070  11.389  66.640  1.00  0.00    -0.333 C  
BRANCH   3   4
HETATM    4  C   UNL     1     -11.059  12.786  66.052  1.00  0.00    -0.315 A  
HETATM    5  C   UNL     1     -12.147  13.248  65.296  1.00  0.00    -0.456 A  
HETATM    6  C   UNL     1     -11.062  15.387  64.988  1.00  0.00    -0.428 A  
HETATM    7  C   UNL     1     -12.146  14.542  64.765  1.00  0.00    -0.454 A  
HETATM    8  C   UNL     1      -9.980  14.945  65.746  1.00  0.00    -0.376 A  
HETATM    9  C   UNL     1      -9.982  13.653  66.280  1.00  0.00    -0.305 A  
ENDBRANCH   3   4
ENDBRANCH   2   3
BRANCH   2  10
HETATM   10  N   UNL     1     -10.411   9.028  66.233  1.00  0.00    -0.275 N  
HETATM   11  H   UNL     1     -11.174   8.662  65.664  1.00  0.00     0.000 HD 
HETATM   12  C   UNL     1      -9.808   8.180  67.137  1.00  0.00    -0.217 C  
HETATM   13  O   UNL     1      -8.828   8.484  67.811  1.00  0.00    -0.136 OA 
BRANCH  12  14
HETATM   14  C   UNL     1     -10.457   6.776  67.189  1.00  0.00    -0.293 C  
HETATM   15  N   UNL     1     -10.025   6.003  65.992  1.00  0.00    -0.394 NA 
HETATM   16  H2  UNL     1      -9.010   5.959  65.902  1.00  0.00     0.000 HD 
HETATM   17  H1  UNL     1     -10.453   5.078  66.026  1.00  0.00     0.000 HD 
BRANCH  14  18
HETATM   18  C   UNL     1     -10.047   6.003  68.450  1.00  0.00    -0.198 C  
BRANCH  18  19
HETATM   19  C   UNL     1     -11.137   6.007  69.527  1.00  0.00    -0.468 C  
BRANCH  19  20
HETATM   20  C   UNL     1     -10.540   6.142  70.933  1.00  0.00    -0.298 C  
BRANCH  20  21
HETATM   21  C   UNL     1     -11.534   6.799  71.890  1.00  0.00    -0.282 C  
HETATM   22  N   UNL     1     -12.054   5.817  72.834  1.00  0.00    -0.518 NA 
HETATM   23  H1  UNL     1     -12.718   6.256  73.472  1.00  0.00     0.000 HD 
HETATM   24  H2  UNL     1     -11.306   5.337  73.334  1.00  0.00     0.000 HD 
ENDBRANCH  20  21
ENDBRANCH  19  20
ENDBRANCH  18  19
ENDBRANCH  14  18
ENDBRANCH  12  14
ENDBRANCH   2  10
TORSDOF 8
ENDMDL
MODEL      180
REMARK 921   NORMALIZED FREE ENERGY PREDICTED BY IDOCK:   -4.06 KCAL/MOL
REMARK 922        TOTAL FREE ENERGY PREDICTED BY IDOCK:   -6.74 KCAL/MOL
REMARK 923 INTER-LIGAND FREE ENERGY PREDICTED BY IDOCK:   -6.28 KCAL/MOL
REMARK 924 INTRA-LIGAND FREE ENERGY PREDICTED BY IDOCK:   -0.46 KCAL/MOL
REMARK 927      BINDING AFFINITY PREDICTED BY RF-SCORE:    0.00 PKD
ROOT
HETATM    1  C   UNL     1      -9.429   9.523  66.120  1.00  0.00    -0.281 C  
HETATM    2  C   UNL     1     -10.540   9.450  67.168  1.00  0.00    -0.224 C  
ENDROOT
BRANCH   2   3
HETATM    3  C   UNL     1     -10.474   8.145  67.996  1.00  0.00    -0.242 C  
BRANCH   3   4
HETATM    4  C   UNL     1     -10.323   8.342  69.491  1.00  0.00    -0.219 A  
HETATM    5  C   UNL     1     -11.440   8.262  70.335  1.00  0.00    -0.122 A  
HETATM    6  C   UNL     1     -10.046   8.672  72.268  1.00  0.00    -0.363 A  
HETATM    7  C   UNL     1     -11.302   8.428  71.717  1.00  0.00    -0.366 A  
HETATM    8  C   UNL     1      -8.927   8.743  71.442  1.00  0.00    -0.307 A  
HETATM    9  C   UNL     1      -9.064   8.573  70.061  1.00  0.00    -0.147 A  
ENDBRANCH   3   4
ENDBRANCH   2   3
BRANCH   2  10
HETATM   10  N   UNL     1     -10.449  10.629  68.025  1.00  0.00    -0.183 N  
HETATM   11  H   UNL     1      -9.802  10.604  68.813  1.00  0.00     0.000 HD 
HETATM   12  C   UNL     1     -11.190  11.774  67.829  1.00  0.00    -0.266 C  
HETATM   13  O   UNL     1     -11.935  11.951  66.869  1.00  0.00    -0.614 OA 
BRANCH  12  14
HETATM   14  C   UNL     1     -10.958  12.850  68.917  1.00  0.00    -0.228 C  
HETATM   15  N   UNL     1      -9.601  13.433  68.735  1.00  0.00    -0.412 NA 
HETATM   16  H2  UNL     1      -9.456  13.795  67.792  1.00  0.00     0.000 HD 
HETATM   17  H1  UNL     1      -9.448  14.141  69.452  1.00  0.00     0.000 HD 
BRANCH  14  18
HETATM   18  C   UNL     1     -11.995  13.979  68.835  1.00  0.00    -0.387 C  
BRANCH  18  19
HETATM   19  C   UNL     1     -12.593  14.334  70.201  1.00  0.00    -0.338 C  
BRANCH  19  20
HETATM   20  C   UNL     1     -12.518  13.150  71.172  1.00  0.00    -0.378 C  
BRANCH  20  21
HETATM   21  C   UNL     1     -13.643  13.218  72.206  1.00  0.00    -0.605 C  
HETATM   22  N   UNL     1     -13.367  14.261  73.187  1.00  0.00    -0.600 NA 
HETATM   23  H1  UNL     1     -14.118  14.305  73.876  1.00  0.00     0.000 HD 
HETATM   24  H2  UNL     1     -13.203  15.165  72.744  1.00  0.00     0.000 HD 
ENDBRANCH  20  21
ENDBRANCH  19  20
ENDBRANCH  18  19
ENDBRANCH  14  18
ENDBRANCH  12  14
ENDBRANCH   2  10
TORSDOF 8
ENDMDL
MODEL      181
REMARK 921   NORMALIZED FREE ENERGY PREDICTED BY IDOCK:   -4.05 KCAL/MOL
REMARK 922        TOTAL FREE ENERGY PREDICTED BY IDOCK:   -6.73 KCAL/MOL
REMARK 923 INTER-LIGAND FREE ENERGY PREDICTED BY IDOCK:   -6.10 KCAL/MOL
REMARK 924 INTRA-LIGAND FREE ENERGY PREDICTED BY IDOCK:   -0.63 KCAL/MOL
REMARK 927      BINDING AFFINITY PREDICTED BY RF-SCORE:    0.00 PKD
ROOT
HETATM    1  C   UNL     1     -10.973   7.662  72.627  1.00  0.00    -0.405 C  
HETATM    2  C   UNL     1     -10.669   7.747  71.132  1.00  0.00    -0.227 C  
ENDROOT
BRANCH   2   3
HETATM    3  C   UNL     1     -11.586   6.821  70.298  1.00  0.00    -0.417 C  
BRANCH   3   4
HETATM    4  C   UNL     1     -10.873   5.984  69.255  1.00  0.00    -0.428 A  
HETATM    5  C   UNL     1     -10.141   4.849  69.634  1.00  0.00    -0.300 A  
HETATM    6  C   UNL     1      -9.576   4.406  67.325  1.00  0.00    -0.220 A  
HETATM    7  C   UNL     1      -9.495   4.065  68.673  1.00  0.00    -0.220 A  
HETATM    8  C   UNL     1     -10.309   5.524  66.934  1.00  0.00    -0.315 A  
HETATM    9  C   UNL     1     -10.959   6.306  67.894  1.00  0.00    -0.421 A  
ENDBRANCH   3   4
ENDBRANCH   2   3
BRANCH   2  10
HETATM   10  N   UNL     1     -10.793   9.140  70.710  1.00  0.00    -0.246 N  
HETATM   11  H   UNL     1     -11.408   9.753  71.245  1.00  0.00     0.000 HD 
HETATM   12  C   UNL     1     -10.126   9.671  69.627  1.00  0.00    -0.224 C  
HETATM   13  O   UNL     1      -9.299   9.053  68.963  1.00  0.00    -0.139 OA 
BRANCH  12  14
HETATM   14  C   UNL     1     -10.485  11.151  69.351  1.00  0.00    -0.095 C  
HETATM   15  N   UNL     1      -9.267  11.858  68.867  1.00  0.00    -0.399 NA 
HETATM   16  H2  UNL     1      -8.848  11.401  68.057  1.00  0.00     0.000 HD 
HETATM   17  H1  UNL     1      -9.503  12.833  68.686  1.00  0.00     0.000 HD 
BRANCH  14  18
HETATM   18  C   UNL     1     -11.587  11.284  68.290  1.00  0.00    -0.370 C  
BRANCH  18  19
HETATM   19  C   UNL     1     -12.116  12.717  68.164  1.00  0.00    -0.128 C  
BRANCH  19  20
HETATM   20  C   UNL     1     -11.752  13.335  66.810  1.00  0.00    -0.434 C  
BRANCH  20  21
HETATM   21  C   UNL     1     -11.683  12.264  65.720  1.00  0.00    -0.385 C  
HETATM   22  N   UNL     1     -12.697  12.513  64.702  1.00  0.00    -0.725 NA 
HETATM   23  H1  UNL     1     -12.651  11.798  63.975  1.00  0.00     0.000 HD 
HETATM   24  H2  UNL     1     -12.624  13.454  64.315  1.00  0.00     0.000 HD 
ENDBRANCH  20  21
ENDBRANCH  19  20
ENDBRANCH  18  19
ENDBRANCH  14  18
ENDBRANCH  12  14
ENDBRANCH   2  10
TORSDOF 8
ENDMDL
MODEL      182
REMARK 921   NORMALIZED FREE ENERGY PREDICTED BY IDOCK:   -4.04 KCAL/MOL
REMARK 922        TOTAL FREE ENERGY PREDICTED BY IDOCK:   -6.72 KCAL/MOL
REMARK 923 INTER-LIGAND FREE ENERGY PREDICTED BY IDOCK:   -6.49 KCAL/MOL
REMARK 924 INTRA-LIGAND FREE ENERGY PREDICTED BY IDOCK:   -0.23 KCAL/MOL
REMARK 927      BINDING AFFINITY PREDICTED BY RF-SCORE:    0.00 PKD
ROOT
HETATM    1  C   UNL     1      -8.502  13.315  68.496  1.00  0.00    -0.067 C  
HETATM    2  C   UNL     1      -8.799  13.153  67.006  1.00  0.00    -0.210 C  
ENDROOT
BRANCH   2   3
HETATM    3  C   UNL     1      -9.592  11.858  66.707  1.00  0.00    -0.214 C  
BRANCH   3   4
HETATM    4  C   UNL     1     -10.650  11.989  65.631  1.00  0.00    -0.303 A  
HETATM    5  C   UNL     1     -11.912  12.521  65.935  1.00  0.00    -0.472 A  
HETATM    6  C   UNL     1     -12.608  12.267  63.633  1.00  0.00    -0.599 A  
HETATM    7  C   UNL     1     -12.885  12.658  64.940  1.00  0.00    -0.312 A  
HETATM    8  C   UNL     1     -11.354  11.747  63.315  1.00  0.00    -0.347 A  
HETATM    9  C   UNL     1     -10.380  11.614  64.308  1.00  0.00    -0.371 A  
ENDBRANCH   3   4
ENDBRANCH   2   3
BRANCH   2  10
HETATM   10  N   UNL     1      -9.519  14.336  66.543  1.00  0.00    -0.284 N  
HETATM   11  H   UNL     1     -10.528  14.265  66.410  1.00  0.00     0.000 HD 
HETATM   12  C   UNL     1      -8.911  15.544  66.276  1.00  0.00    -0.303 C  
HETATM   13  O   UNL     1      -7.722  15.771  66.481  1.00  0.00    -0.187 OA 
BRANCH  12  14
HETATM   14  C   UNL     1      -9.886  16.616  65.734  1.00  0.00    -0.211 C  
HETATM   15  N   UNL     1     -11.087  15.935  65.176  1.00  0.00    -0.344 NA 
HETATM   16  H2  UNL     1     -11.530  15.312  65.852  1.00  0.00     0.000 HD 
HETATM   17  H1  UNL     1     -11.730  16.641  64.818  1.00  0.00     0.000 HD 
BRANCH  14  18
HETATM   18  C   UNL     1     -10.337  17.588  66.833  1.00  0.00    -0.315 C  
BRANCH  18  19
HETATM   19  C   UNL     1     -10.512  19.022  66.319  1.00  0.00    -0.534 C  
BRANCH  19  20
HETATM   20  C   UNL     1      -9.812  20.036  67.231  1.00  0.00    -0.563 C  
BRANCH  20  21
HETATM   21  C   UNL     1      -8.301  19.802  67.251  1.00  0.00    -0.312 C  
HETATM   22  N   UNL     1      -7.608  20.916  66.614  1.00  0.00    -0.544 NA 
HETATM   23  H1  UNL     1      -6.600  20.760  66.627  1.00  0.00     0.000 HD 
HETATM   24  H2  UNL     1      -7.860  21.811  67.034  1.00  0.00     0.000 HD 
ENDBRANCH  20  21
ENDBRANCH  19  20
ENDBRANCH  18  19
ENDBRANCH  14  18
ENDBRANCH  12  14
ENDBRANCH   2  10
TORSDOF 8
ENDMDL
MODEL      183
REMARK 921   NORMALIZED FREE ENERGY PREDICTED BY IDOCK:   -4.04 KCAL/MOL
REMARK 922        TOTAL FREE ENERGY PREDICTED BY IDOCK:   -6.72 KCAL/MOL
REMARK 923 INTER-LIGAND FREE ENERGY PREDICTED BY IDOCK:   -5.73 KCAL/MOL
REMARK 924 INTRA-LIGAND FREE ENERGY PREDICTED BY IDOCK:   -0.99 KCAL/MOL
REMARK 927      BINDING AFFINITY PREDICTED BY RF-SCORE:    0.00 PKD
ROOT
HETATM    1  C   UNL     1     -10.922   9.897  67.383  1.00  0.00    -0.214 C  
HETATM    2  C   UNL     1     -11.105  10.937  68.488  1.00  0.00    -0.256 C  
ENDROOT
BRANCH   2   3
HETATM    3  C   UNL     1     -11.896  12.174  67.998  1.00  0.00    -0.351 C  
BRANCH   3   4
HETATM    4  C   UNL     1     -11.170  13.040  66.988  1.00  0.00    -0.325 A  
HETATM    5  C   UNL     1     -11.666  13.181  65.684  1.00  0.00    -0.402 A  
HETATM    6  C   UNL     1      -9.847  14.671  65.120  1.00  0.00    -0.156 A  
HETATM    7  C   UNL     1     -11.007  13.992  64.755  1.00  0.00    -0.410 A  
HETATM    8  C   UNL     1      -9.349  14.548  66.415  1.00  0.00    -0.300 A  
HETATM    9  C   UNL     1     -10.010  13.741  67.346  1.00  0.00    -0.237 A  
ENDBRANCH   3   4
ENDBRANCH   2   3
BRANCH   2  10
HETATM   10  N   UNL     1     -11.766  10.299  69.623  1.00  0.00    -0.426 N  
HETATM   11  H   UNL     1     -12.784  10.328  69.667  1.00  0.00     0.000 HD 
HETATM   12  C   UNL     1     -11.088   9.660  70.639  1.00  0.00    -0.319 C  
HETATM   13  O   UNL     1      -9.873   9.489  70.649  1.00  0.00    -0.263 OA 
BRANCH  12  14
HETATM   14  C   UNL     1     -12.017   9.129  71.757  1.00  0.00    -0.379 C  
HETATM   15  N   UNL     1     -12.916  10.230  72.198  1.00  0.00    -0.443 NA 
HETATM   16  H2  UNL     1     -13.436  10.643  71.424  1.00  0.00     0.000 HD 
HETATM   17  H1  UNL     1     -13.528   9.880  72.935  1.00  0.00     0.000 HD 
BRANCH  14  18
HETATM   18  C   UNL     1     -12.879   7.953  71.274  1.00  0.00    -0.244 C  
BRANCH  18  19
HETATM   19  C   UNL     1     -12.107   6.629  71.239  1.00  0.00    -0.395 C  
BRANCH  19  20
HETATM   20  C   UNL     1     -11.155   6.501  72.434  1.00  0.00    -0.293 C  
BRANCH  20  21
HETATM   21  C   UNL     1      -9.748   6.120  71.975  1.00  0.00    -0.151 C  
HETATM   22  N   UNL     1      -9.589   6.390  70.551  1.00  0.00    -0.165 NA 
HETATM   23  H1  UNL     1      -8.650   6.136  70.244  1.00  0.00     0.000 HD 
HETATM   24  H2  UNL     1      -9.816   7.357  70.320  1.00  0.00     0.000 HD 
ENDBRANCH  20  21
ENDBRANCH  19  20
ENDBRANCH  18  19
ENDBRANCH  14  18
ENDBRANCH  12  14
ENDBRANCH   2  10
TORSDOF 8
ENDMDL
MODEL      184
REMARK 921   NORMALIZED FREE ENERGY PREDICTED BY IDOCK:   -4.04 KCAL/MOL
REMARK 922        TOTAL FREE ENERGY PREDICTED BY IDOCK:   -6.72 KCAL/MOL
REMARK 923 INTER-LIGAND FREE ENERGY PREDICTED BY IDOCK:   -6.16 KCAL/MOL
REMARK 924 INTRA-LIGAND FREE ENERGY PREDICTED BY IDOCK:   -0.56 KCAL/MOL
REMARK 927      BINDING AFFINITY PREDICTED BY RF-SCORE:    0.00 PKD
ROOT
HETATM    1  C   UNL     1     -11.850  15.610  69.245  1.00  0.00    -0.378 C  
HETATM    2  C   UNL     1     -10.686  15.179  68.354  1.00  0.00    -0.248 C  
ENDROOT
BRANCH   2   3
HETATM    3  C   UNL     1      -9.473  16.132  68.479  1.00  0.00    -0.216 C  
BRANCH   3   4
HETATM    4  C   UNL     1      -9.676  17.508  67.877  1.00  0.00    -0.278 A  
HETATM    5  C   UNL     1     -10.097  17.648  66.547  1.00  0.00    -0.350 A  
HETATM    6  C   UNL     1     -10.087  20.056  66.765  1.00  0.00    -0.607 A  
HETATM    7  C   UNL     1     -10.300  18.916  65.994  1.00  0.00    -0.485 A  
HETATM    8  C   UNL     1      -9.679  19.931  68.091  1.00  0.00    -0.497 A  
HETATM    9  C   UNL     1      -9.480  18.664  68.646  1.00  0.00    -0.396 A  
ENDBRANCH   3   4
ENDBRANCH   2   3
BRANCH   2  10
HETATM   10  N   UNL     1     -10.321  13.806  68.696  1.00  0.00    -0.251 N  
HETATM   11  H   UNL     1     -10.399  13.515  69.670  1.00  0.00     0.000 HD 
HETATM   12  C   UNL     1      -9.878  12.883  67.774  1.00  0.00    -0.221 C  
HETATM   13  O   UNL     1      -9.826  13.093  66.566  1.00  0.00    -0.253 OA 
BRANCH  12  14
HETATM   14  C   UNL     1      -9.492  11.523  68.405  1.00  0.00    -0.195 C  
HETATM   15  N   UNL     1      -8.165  11.660  69.066  1.00  0.00    -0.366 NA 
HETATM   16  H2  UNL     1      -8.144  12.422  69.743  1.00  0.00     0.000 HD 
HETATM   17  H1  UNL     1      -7.910  10.764  69.481  1.00  0.00     0.000 HD 
BRANCH  14  18
HETATM   18  C   UNL     1     -10.519  11.065  69.450  1.00  0.00    -0.177 C  
BRANCH  18  19
HETATM   19  C   UNL     1     -11.121   9.693  69.126  1.00  0.00    -0.123 C  
BRANCH  19  20
HETATM   20  C   UNL     1     -10.311   8.558  69.764  1.00  0.00    -0.212 C  
BRANCH  20  21
HETATM   21  C   UNL     1     -11.175   7.741  70.724  1.00  0.00    -0.271 C  
HETATM   22  N   UNL     1     -12.121   6.918  69.979  1.00  0.00    -0.637 NA 
HETATM   23  H1  UNL     1     -12.698   6.373  70.620  1.00  0.00     0.000 HD 
HETATM   24  H2  UNL     1     -11.652   6.327  69.293  1.00  0.00     0.000 HD 
ENDBRANCH  20  21
ENDBRANCH  19  20
ENDBRANCH  18  19
ENDBRANCH  14  18
ENDBRANCH  12  14
ENDBRANCH   2  10
TORSDOF 8
ENDMDL
MODEL      185
REMARK 921   NORMALIZED FREE ENERGY PREDICTED BY IDOCK:   -4.03 KCAL/MOL
REMARK 922        TOTAL FREE ENERGY PREDICTED BY IDOCK:   -6.71 KCAL/MOL
REMARK 923 INTER-LIGAND FREE ENERGY PREDICTED BY IDOCK:   -6.16 KCAL/MOL
REMARK 924 INTRA-LIGAND FREE ENERGY PREDICTED BY IDOCK:   -0.55 KCAL/MOL
REMARK 927      BINDING AFFINITY PREDICTED BY RF-SCORE:    0.00 PKD
ROOT
HETATM    1  C   UNL     1     -10.169  10.672  64.817  1.00  0.00    -0.401 C  
HETATM    2  C   UNL     1     -10.545  11.265  66.174  1.00  0.00    -0.258 C  
ENDROOT
BRANCH   2   3
HETATM    3  C   UNL     1     -11.738  12.245  66.070  1.00  0.00    -0.451 C  
BRANCH   3   4
HETATM    4  C   UNL     1     -11.534  13.578  66.761  1.00  0.00    -0.374 A  
HETATM    5  C   UNL     1     -11.953  13.764  68.087  1.00  0.00    -0.394 A  
HETATM    6  C   UNL     1     -11.128  16.037  68.061  1.00  0.00    -0.334 A  
HETATM    7  C   UNL     1     -11.752  14.988  68.732  1.00  0.00    -0.360 A  
HETATM    8  C   UNL     1     -10.697  15.862  66.748  1.00  0.00    -0.281 A  
HETATM    9  C   UNL     1     -10.894  14.638  66.103  1.00  0.00    -0.321 A  
ENDBRANCH   3   4
ENDBRANCH   2   3
BRANCH   2  10
HETATM   10  N   UNL     1     -10.834  10.171  67.097  1.00  0.00    -0.229 N  
HETATM   11  H   UNL     1     -11.509   9.462  66.808  1.00  0.00     0.000 HD 
HETATM   12  C   UNL     1     -10.245  10.043  68.336  1.00  0.00    -0.172 C  
HETATM   13  O   UNL     1      -9.360  10.784  68.753  1.00  0.00    -0.169 OA 
BRANCH  12  14
HETATM   14  C   UNL     1     -10.775   8.835  69.145  1.00  0.00    -0.131 C  
HETATM   15  N   UNL     1     -10.850   7.650  68.246  1.00  0.00    -0.428 NA 
HETATM   16  H2  UNL     1      -9.961   7.451  67.789  1.00  0.00     0.000 HD 
HETATM   17  H1  UNL     1     -11.200   6.854  68.779  1.00  0.00     0.000 HD 
BRANCH  14  18
HETATM   18  C   UNL     1      -9.862   8.496  70.332  1.00  0.00    -0.198 C  
BRANCH  18  19
HETATM   19  C   UNL     1     -10.557   8.683  71.685  1.00  0.00    -0.374 C  
BRANCH  19  20
HETATM   20  C   UNL     1     -12.079   8.773  71.529  1.00  0.00    -0.388 C  
BRANCH  20  21
HETATM   21  C   UNL     1     -12.706   7.381  71.463  1.00  0.00    -0.372 C  
HETATM   22  N   UNL     1     -12.124   6.514  72.482  1.00  0.00    -0.521 NA 
HETATM   23  H1  UNL     1     -12.542   5.585  72.438  1.00  0.00     0.000 HD 
HETATM   24  H2  UNL     1     -12.198   6.921  73.414  1.00  0.00     0.000 HD 
ENDBRANCH  20  21
ENDBRANCH  19  20
ENDBRANCH  18  19
ENDBRANCH  14  18
ENDBRANCH  12  14
ENDBRANCH   2  10
TORSDOF 8
ENDMDL
MODEL      186
REMARK 921   NORMALIZED FREE ENERGY PREDICTED BY IDOCK:   -4.03 KCAL/MOL
REMARK 922        TOTAL FREE ENERGY PREDICTED BY IDOCK:   -6.71 KCAL/MOL
REMARK 923 INTER-LIGAND FREE ENERGY PREDICTED BY IDOCK:   -5.90 KCAL/MOL
REMARK 924 INTRA-LIGAND FREE ENERGY PREDICTED BY IDOCK:   -0.81 KCAL/MOL
REMARK 927      BINDING AFFINITY PREDICTED BY RF-SCORE:    0.00 PKD
ROOT
HETATM    1  C   UNL     1     -11.806  12.787  69.948  1.00  0.00    -0.371 C  
HETATM    2  C   UNL     1     -11.245  13.869  69.026  1.00  0.00    -0.274 C  
ENDROOT
BRANCH   2   3
HETATM    3  C   UNL     1     -11.762  15.279  69.401  1.00  0.00    -0.361 C  
BRANCH   3   4
HETATM    4  C   UNL     1     -12.232  15.428  70.834  1.00  0.00    -0.425 A  
HETATM    5  C   UNL     1     -13.600  15.406  71.140  1.00  0.00    -0.536 A  
HETATM    6  C   UNL     1     -13.109  15.671  73.493  1.00  0.00    -0.638 A  
HETATM    7  C   UNL     1     -14.036  15.529  72.463  1.00  0.00    -0.646 A  
HETATM    8  C   UNL     1     -11.746  15.683  73.204  1.00  0.00    -0.441 A  
HETATM    9  C   UNL     1     -11.310  15.557  71.882  1.00  0.00    -0.456 A  
ENDBRANCH   3   4
ENDBRANCH   2   3
BRANCH   2  10
HETATM   10  N   UNL     1      -9.786  13.808  69.071  1.00  0.00    -0.425 N  
HETATM   11  H   UNL     1      -9.342  13.522  69.943  1.00  0.00     0.000 HD 
HETATM   12  C   UNL     1      -8.977  14.117  67.999  1.00  0.00    -0.183 C  
HETATM   13  O   UNL     1      -9.399  14.390  66.879  1.00  0.00    -0.234 OA 
BRANCH  12  14
HETATM   14  C   UNL     1      -7.467  14.040  68.329  1.00  0.00    -0.123 C  
HETATM   15  N   UNL     1      -7.186  14.911  69.503  1.00  0.00    -0.182 NA 
HETATM   16  H2  UNL     1      -7.771  14.683  70.306  1.00  0.00     0.000 HD 
HETATM   17  H1  UNL     1      -6.191  14.861  69.719  1.00  0.00     0.000 HD 
BRANCH  14  18
HETATM   18  C   UNL     1      -7.026  12.607  68.661  1.00  0.00    -0.091 C  
BRANCH  18  19
HETATM   19  C   UNL     1      -6.619  11.810  67.417  1.00  0.00    -0.118 C  
BRANCH  19  20
HETATM   20  C   UNL     1      -7.559  10.623  67.177  1.00  0.00    -0.099 C  
BRANCH  20  21
HETATM   21  C   UNL     1      -8.613  10.528  68.280  1.00  0.00    -0.127 C  
HETATM   22  N   UNL     1      -9.942  10.775  67.733  1.00  0.00    -0.169 NA 
HETATM   23  H1  UNL     1     -10.646  10.712  68.469  1.00  0.00     0.000 HD 
HETATM   24  H2  UNL     1     -10.153  10.155  66.951  1.00  0.00     0.000 HD 
ENDBRANCH  20  21
ENDBRANCH  19  20
ENDBRANCH  18  19
ENDBRANCH  14  18
ENDBRANCH  12  14
ENDBRANCH   2  10
TORSDOF 8
ENDMDL
MODEL      187
REMARK 921   NORMALIZED FREE ENERGY PREDICTED BY IDOCK:   -4.02 KCAL/MOL
REMARK 922        TOTAL FREE ENERGY PREDICTED BY IDOCK:   -6.70 KCAL/MOL
REMARK 923 INTER-LIGAND FREE ENERGY PREDICTED BY IDOCK:   -5.38 KCAL/MOL
REMARK 924 INTRA-LIGAND FREE ENERGY PREDICTED BY IDOCK:   -1.32 KCAL/MOL
REMARK 927      BINDING AFFINITY PREDICTED BY RF-SCORE:    0.00 PKD
ROOT
HETATM    1  C   UNL     1     -12.094  13.040  70.191  1.00  0.00    -0.377 C  
HETATM    2  C   UNL     1     -11.893  11.693  69.499  1.00  0.00    -0.348 C  
ENDROOT
BRANCH   2   3
HETATM    3  C   UNL     1     -10.932  11.797  68.290  1.00  0.00    -0.274 C  
BRANCH   3   4
HETATM    4  C   UNL     1     -10.147  10.537  67.985  1.00  0.00    -0.190 A  
HETATM    5  C   UNL     1     -10.720   9.510  67.221  1.00  0.00    -0.269 A  
HETATM    6  C   UNL     1      -8.687   8.211  67.386  1.00  0.00    -0.124 A  
HETATM    7  C   UNL     1      -9.994   8.352  66.925  1.00  0.00    -0.341 A  
HETATM    8  C   UNL     1      -8.102   9.229  68.137  1.00  0.00    -0.107 A  
HETATM    9  C   UNL     1      -8.827  10.387  68.430  1.00  0.00    -0.136 A  
ENDBRANCH   3   4
ENDBRANCH   2   3
BRANCH   2  10
HETATM   10  N   UNL     1     -11.405  10.731  70.484  1.00  0.00    -0.434 N  
HETATM   11  H   UNL     1     -10.414  10.749  70.726  1.00  0.00     0.000 HD 
HETATM   12  C   UNL     1     -12.210   9.800  71.105  1.00  0.00    -0.362 C  
HETATM   13  O   UNL     1     -13.427   9.741  70.957  1.00  0.00    -0.347 OA 
BRANCH  12  14
HETATM   14  C   UNL     1     -11.436   8.855  72.054  1.00  0.00    -0.361 C  
HETATM   15  N   UNL     1     -12.394   7.887  72.656  1.00  0.00    -0.588 NA 
HETATM   16  H2  UNL     1     -12.928   7.379  71.950  1.00  0.00     0.000 HD 
HETATM   17  H1  UNL     1     -11.884   7.264  73.281  1.00  0.00     0.000 HD 
BRANCH  14  18
HETATM   18  C   UNL     1     -10.342   8.071  71.314  1.00  0.00    -0.230 C  
BRANCH  18  19
HETATM   19  C   UNL     1     -10.901   6.893  70.509  1.00  0.00    -0.289 C  
BRANCH  19  20
HETATM   20  C   UNL     1      -9.804   5.885  70.149  1.00  0.00    -0.226 C  
BRANCH  20  21
HETATM   21  C   UNL     1      -9.873   4.654  71.053  1.00  0.00    -0.198 C  
HETATM   22  N   UNL     1      -9.537   3.452  70.298  1.00  0.00    -0.174 NA 
HETATM   23  H1  UNL     1      -9.583   2.631  70.901  1.00  0.00     0.000 HD 
HETATM   24  H2  UNL     1      -8.631   3.534  69.837  1.00  0.00     0.000 HD 
ENDBRANCH  20  21
ENDBRANCH  19  20
ENDBRANCH  18  19
ENDBRANCH  14  18
ENDBRANCH  12  14
ENDBRANCH   2  10
TORSDOF 8
ENDMDL
MODEL      188
REMARK 921   NORMALIZED FREE ENERGY PREDICTED BY IDOCK:   -3.99 KCAL/MOL
REMARK 922        TOTAL FREE ENERGY PREDICTED BY IDOCK:   -6.64 KCAL/MOL
REMARK 923 INTER-LIGAND FREE ENERGY PREDICTED BY IDOCK:   -5.77 KCAL/MOL
REMARK 924 INTRA-LIGAND FREE ENERGY PREDICTED BY IDOCK:   -0.87 KCAL/MOL
REMARK 927      BINDING AFFINITY PREDICTED BY RF-SCORE:    0.00 PKD
ROOT
HETATM    1  C   UNL     1     -12.784  13.588  65.064  1.00  0.00    -0.399 C  
HETATM    2  C   UNL     1     -11.830  13.086  66.148  1.00  0.00    -0.409 C  
ENDROOT
BRANCH   2   3
HETATM    3  C   UNL     1     -10.377  12.957  65.631  1.00  0.00    -0.295 C  
BRANCH   3   4
HETATM    4  C   UNL     1      -9.310  12.983  66.706  1.00  0.00    -0.244 A  
HETATM    5  C   UNL     1      -8.936  11.803  67.366  1.00  0.00    -0.173 A  
HETATM    6  C   UNL     1      -7.308  13.016  68.679  1.00  0.00    -0.097 A  
HETATM    7  C   UNL     1      -7.941  11.821  68.348  1.00  0.00    -0.147 A  
HETATM    8  C   UNL     1      -7.663  14.194  68.024  1.00  0.00    -0.147 A  
HETATM    9  C   UNL     1      -8.655  14.176  67.039  1.00  0.00    -0.204 A  
ENDBRANCH   3   4
ENDBRANCH   2   3
BRANCH   2  10
HETATM   10  N   UNL     1     -11.909  13.991  67.292  1.00  0.00    -0.390 N  
HETATM   11  H   UNL     1     -11.919  14.995  67.113  1.00  0.00     0.000 HD 
HETATM   12  C   UNL     1     -11.971  13.562  68.600  1.00  0.00    -0.343 C  
HETATM   13  O   UNL     1     -12.051  12.383  68.930  1.00  0.00    -0.265 OA 
BRANCH  12  14
HETATM   14  C   UNL     1     -11.977  14.721  69.626  1.00  0.00    -0.316 C  
HETATM   15  N   UNL     1     -10.821  14.552  70.548  1.00  0.00    -0.450 NA 
HETATM   16  H2  UNL     1      -9.933  14.478  70.051  1.00  0.00     0.000 HD 
HETATM   17  H1  UNL     1     -10.825  15.315  71.225  1.00  0.00     0.000 HD 
BRANCH  14  18
HETATM   18  C   UNL     1     -11.867  16.091  68.942  1.00  0.00    -0.249 C  
BRANCH  18  19
HETATM   19  C   UNL     1     -10.438  16.646  68.957  1.00  0.00    -0.328 C  
BRANCH  19  20
HETATM   20  C   UNL     1     -10.106  17.381  67.654  1.00  0.00    -0.327 C  
BRANCH  20  21
HETATM   21  C   UNL     1     -10.539  18.845  67.725  1.00  0.00    -0.398 C  
HETATM   22  N   UNL     1     -10.265  19.391  69.049  1.00  0.00    -0.593 NA 
HETATM   23  H1  UNL     1     -10.555  20.368  69.096  1.00  0.00     0.000 HD 
HETATM   24  H2  UNL     1      -9.288  19.271  69.315  1.00  0.00     0.000 HD 
ENDBRANCH  20  21
ENDBRANCH  19  20
ENDBRANCH  18  19
ENDBRANCH  14  18
ENDBRANCH  12  14
ENDBRANCH   2  10
TORSDOF 8
ENDMDL
MODEL      189
REMARK 921   NORMALIZED FREE ENERGY PREDICTED BY IDOCK:   -3.98 KCAL/MOL
REMARK 922        TOTAL FREE ENERGY PREDICTED BY IDOCK:   -6.62 KCAL/MOL
REMARK 923 INTER-LIGAND FREE ENERGY PREDICTED BY IDOCK:   -5.75 KCAL/MOL
REMARK 924 INTRA-LIGAND FREE ENERGY PREDICTED BY IDOCK:   -0.88 KCAL/MOL
REMARK 927      BINDING AFFINITY PREDICTED BY RF-SCORE:    0.00 PKD
ROOT
HETATM    1  C   UNL     1     -10.210   7.897  69.590  1.00  0.00    -0.207 C  
HETATM    2  C   UNL     1     -10.274   9.058  68.599  1.00  0.00    -0.205 C  
ENDROOT
BRANCH   2   3
HETATM    3  C   UNL     1     -10.693   8.594  67.183  1.00  0.00    -0.199 C  
BRANCH   3   4
HETATM    4  C   UNL     1      -9.856   9.155  66.051  1.00  0.00    -0.342 A  
HETATM    5  C   UNL     1      -8.761   8.435  65.552  1.00  0.00    -0.196 A  
HETATM    6  C   UNL     1      -8.320  10.173  63.929  1.00  0.00    -0.172 A  
HETATM    7  C   UNL     1      -7.996   8.943  64.497  1.00  0.00    -0.135 A  
HETATM    8  C   UNL     1      -9.412  10.893  64.409  1.00  0.00    -0.287 A  
HETATM    9  C   UNL     1     -10.179  10.384  65.460  1.00  0.00    -0.316 A  
ENDBRANCH   3   4
ENDBRANCH   2   3
BRANCH   2  10
HETATM   10  N   UNL     1     -11.193  10.066  69.121  1.00  0.00    -0.387 N  
HETATM   11  H   UNL     1     -12.042   9.748  69.589  1.00  0.00     0.000 HD 
HETATM   12  C   UNL     1     -10.977  11.423  69.017  1.00  0.00    -0.236 C  
HETATM   13  O   UNL     1      -9.954  11.919  68.552  1.00  0.00    -0.207 OA 
BRANCH  12  14
HETATM   14  C   UNL     1     -12.134  12.275  69.589  1.00  0.00    -0.212 C  
HETATM   15  N   UNL     1     -12.509  11.740  70.927  1.00  0.00    -0.363 NA 
HETATM   16  H2  UNL     1     -11.712  11.688  71.563  1.00  0.00     0.000 HD 
HETATM   17  H1  UNL     1     -13.272  12.301  71.305  1.00  0.00     0.000 HD 
BRANCH  14  18
HETATM   18  C   UNL     1     -11.737  13.751  69.742  1.00  0.00    -0.367 C  
BRANCH  18  19
HETATM   19  C   UNL     1     -12.873  14.613  70.304  1.00  0.00    -0.254 C  
BRANCH  19  20
HETATM   20  C   UNL     1     -12.398  15.471  71.482  1.00  0.00    -0.465 C  
BRANCH  20  21
HETATM   21  C   UNL     1     -13.253  15.216  72.724  1.00  0.00    -0.477 C  
HETATM   22  N   UNL     1     -13.810  13.869  72.687  1.00  0.00    -0.722 NA 
HETATM   23  H1  UNL     1     -14.381  13.699  73.516  1.00  0.00     0.000 HD 
HETATM   24  H2  UNL     1     -13.085  13.161  72.573  1.00  0.00     0.000 HD 
ENDBRANCH  20  21
ENDBRANCH  19  20
ENDBRANCH  18  19
ENDBRANCH  14  18
ENDBRANCH  12  14
ENDBRANCH   2  10
TORSDOF 8
ENDMDL
MODEL      190
REMARK 921   NORMALIZED FREE ENERGY PREDICTED BY IDOCK:   -3.96 KCAL/MOL
REMARK 922        TOTAL FREE ENERGY PREDICTED BY IDOCK:   -6.60 KCAL/MOL
REMARK 923 INTER-LIGAND FREE ENERGY PREDICTED BY IDOCK:   -5.82 KCAL/MOL
REMARK 924 INTRA-LIGAND FREE ENERGY PREDICTED BY IDOCK:   -0.79 KCAL/MOL
REMARK 927      BINDING AFFINITY PREDICTED BY RF-SCORE:    0.00 PKD
ROOT
HETATM    1  C   UNL     1     -10.855  12.916  65.364  1.00  0.00    -0.307 C  
HETATM    2  C   UNL     1     -10.698  13.238  66.850  1.00  0.00    -0.271 C  
ENDROOT
BRANCH   2   3
HETATM    3  C   UNL     1     -11.927  13.989  67.416  1.00  0.00    -0.439 C  
BRANCH   3   4
HETATM    4  C   UNL     1     -11.776  14.481  68.841  1.00  0.00    -0.354 A  
HETATM    5  C   UNL     1     -11.204  15.735  69.104  1.00  0.00    -0.322 A  
HETATM    6  C   UNL     1     -11.523  15.416  71.480  1.00  0.00    -0.478 A  
HETATM    7  C   UNL     1     -11.078  16.198  70.418  1.00  0.00    -0.362 A  
HETATM    8  C   UNL     1     -12.102  14.173  71.232  1.00  0.00    -0.363 A  
HETATM    9  C   UNL     1     -12.233  13.711  69.919  1.00  0.00    -0.367 A  
ENDBRANCH   3   4
ENDBRANCH   2   3
BRANCH   2  10
HETATM   10  N   UNL     1     -10.457  11.992  67.573  1.00  0.00    -0.209 N  
HETATM   11  H   UNL     1     -11.199  11.292  67.589  1.00  0.00     0.000 HD 
HETATM   12  C   UNL     1      -9.283  11.710  68.237  1.00  0.00    -0.187 C  
HETATM   13  O   UNL     1      -8.294  12.437  68.216  1.00  0.00    -0.165 OA 
BRANCH  12  14
HETATM   14  C   UNL     1      -9.309  10.353  68.981  1.00  0.00    -0.194 C  
HETATM   15  N   UNL     1      -8.385  10.427  70.146  1.00  0.00    -0.345 NA 
HETATM   16  H2  UNL     1      -8.596  11.212  70.762  1.00  0.00     0.000 HD 
HETATM   17  H1  UNL     1      -8.402   9.533  70.636  1.00  0.00     0.000 HD 
BRANCH  14  18
HETATM   18  C   UNL     1     -10.716  10.006  69.488  1.00  0.00    -0.269 C  
BRANCH  18  19
HETATM   19  C   UNL     1     -10.782   8.624  70.149  1.00  0.00    -0.244 C  
BRANCH  19  20
HETATM   20  C   UNL     1     -11.937   8.535  71.152  1.00  0.00    -0.306 C  
BRANCH  20  21
HETATM   21  C   UNL     1     -11.413   8.351  72.576  1.00  0.00    -0.352 C  
HETATM   22  N   UNL     1      -9.955   8.374  72.586  1.00  0.00    -0.284 NA 
HETATM   23  H1  UNL     1      -9.605   8.251  73.536  1.00  0.00     0.000 HD 
HETATM   24  H2  UNL     1      -9.585   9.220  72.151  1.00  0.00     0.000 HD 
ENDBRANCH  20  21
ENDBRANCH  19  20
ENDBRANCH  18  19
ENDBRANCH  14  18
ENDBRANCH  12  14
ENDBRANCH   2  10
TORSDOF 8
ENDMDL
MODEL      191
REMARK 921   NORMALIZED FREE ENERGY PREDICTED BY IDOCK:   -3.95 KCAL/MOL
REMARK 922        TOTAL FREE ENERGY PREDICTED BY IDOCK:   -6.59 KCAL/MOL
REMARK 923 INTER-LIGAND FREE ENERGY PREDICTED BY IDOCK:   -6.29 KCAL/MOL
REMARK 924 INTRA-LIGAND FREE ENERGY PREDICTED BY IDOCK:   -0.30 KCAL/MOL
REMARK 927      BINDING AFFINITY PREDICTED BY RF-SCORE:    0.00 PKD
ROOT
HETATM    1  C   UNL     1     -12.703  13.750  65.460  1.00  0.00    -0.530 C  
HETATM    2  C   UNL     1     -12.013  13.693  66.823  1.00  0.00    -0.414 C  
ENDROOT
BRANCH   2   3
HETATM    3  C   UNL     1     -10.954  12.566  66.893  1.00  0.00    -0.296 C  
BRANCH   3   4
HETATM    4  C   UNL     1     -10.999  11.723  68.151  1.00  0.00    -0.275 A  
HETATM    5  C   UNL     1     -12.010  11.919  69.103  1.00  0.00    -0.336 A  
HETATM    6  C   UNL     1     -11.109  10.141  70.472  1.00  0.00    -0.400 A  
HETATM    7  C   UNL     1     -12.063  11.132  70.258  1.00  0.00    -0.462 A  
HETATM    8  C   UNL     1     -10.105   9.929  69.529  1.00  0.00    -0.240 A  
HETATM    9  C   UNL     1     -10.054  10.712  68.373  1.00  0.00    -0.181 A  
ENDBRANCH   3   4
ENDBRANCH   2   3
BRANCH   2  10
HETATM   10  N   UNL     1     -11.420  14.999  67.099  1.00  0.00    -0.332 N  
HETATM   11  H   UNL     1     -11.747  15.514  67.916  1.00  0.00     0.000 HD 
HETATM   12  C   UNL     1     -10.442  15.573  66.316  1.00  0.00    -0.307 C  
HETATM   13  O   UNL     1      -9.913  15.012  65.361  1.00  0.00    -0.344 OA 
BRANCH  12  14
HETATM   14  C   UNL     1     -10.033  16.990  66.785  1.00  0.00    -0.295 C  
HETATM   15  N   UNL     1     -10.832  17.346  67.990  1.00  0.00    -0.351 NA 
HETATM   16  H2  UNL     1     -10.748  16.650  68.732  1.00  0.00     0.000 HD 
HETATM   17  H1  UNL     1     -10.563  18.279  68.300  1.00  0.00     0.000 HD 
BRANCH  14  18
HETATM   18  C   UNL     1      -8.542  17.066  67.142  1.00  0.00    -0.220 C  
BRANCH  18  19
HETATM   19  C   UNL     1      -7.793  18.130  66.331  1.00  0.00    -0.295 C  
BRANCH  19  20
HETATM   20  C   UNL     1      -8.648  19.385  66.125  1.00  0.00    -0.297 C  
BRANCH  20  21
HETATM   21  C   UNL     1      -8.655  20.255  67.382  1.00  0.00    -0.343 C  
HETATM   22  N   UNL     1      -9.985  20.271  67.981  1.00  0.00    -0.371 NA 
HETATM   23  H1  UNL     1      -9.989  20.852  68.819  1.00  0.00     0.000 HD 
HETATM   24  H2  UNL     1     -10.328  19.329  68.168  1.00  0.00     0.000 HD 
ENDBRANCH  20  21
ENDBRANCH  19  20
ENDBRANCH  18  19
ENDBRANCH  14  18
ENDBRANCH  12  14
ENDBRANCH   2  10
TORSDOF 8
ENDMDL
MODEL      192
REMARK 921   NORMALIZED FREE ENERGY PREDICTED BY IDOCK:   -3.94 KCAL/MOL
REMARK 922        TOTAL FREE ENERGY PREDICTED BY IDOCK:   -6.58 KCAL/MOL
REMARK 923 INTER-LIGAND FREE ENERGY PREDICTED BY IDOCK:   -5.77 KCAL/MOL
REMARK 924 INTRA-LIGAND FREE ENERGY PREDICTED BY IDOCK:   -0.81 KCAL/MOL
REMARK 927      BINDING AFFINITY PREDICTED BY RF-SCORE:    0.00 PKD
ROOT
HETATM    1  C   UNL     1     -10.326  10.581  65.676  1.00  0.00    -0.274 C  
HETATM    2  C   UNL     1      -9.988  10.129  67.096  1.00  0.00    -0.196 C  
ENDROOT
BRANCH   2   3
HETATM    3  C   UNL     1     -10.427  11.167  68.157  1.00  0.00    -0.215 C  
BRANCH   3   4
HETATM    4  C   UNL     1     -10.951  10.576  69.451  1.00  0.00    -0.297 A  
HETATM    5  C   UNL     1     -12.280  10.791  69.845  1.00  0.00    -0.384 A  
HETATM    6  C   UNL     1     -11.939   9.457  71.833  1.00  0.00    -0.416 A  
HETATM    7  C   UNL     1     -12.770  10.235  71.031  1.00  0.00    -0.491 A  
HETATM    8  C   UNL     1     -10.619   9.227  71.448  1.00  0.00    -0.417 A  
HETATM    9  C   UNL     1     -10.130   9.779  70.261  1.00  0.00    -0.323 A  
ENDBRANCH   3   4
ENDBRANCH   2   3
BRANCH   2  10
HETATM   10  N   UNL     1     -10.613   8.830  67.332  1.00  0.00    -0.391 N  
HETATM   11  H   UNL     1     -11.485   8.803  67.860  1.00  0.00     0.000 HD 
HETATM   12  C   UNL     1     -10.088   7.639  66.881  1.00  0.00    -0.278 C  
HETATM   13  O   UNL     1      -9.093   7.556  66.166  1.00  0.00    -0.172 OA 
BRANCH  12  14
HETATM   14  C   UNL     1     -10.905   6.401  67.323  1.00  0.00    -0.385 C  
HETATM   15  N   UNL     1     -11.399   5.693  66.111  1.00  0.00    -0.629 NA 
HETATM   16  H2  UNL     1     -10.645   5.451  65.467  1.00  0.00     0.000 HD 
HETATM   17  H1  UNL     1     -11.938   4.878  66.402  1.00  0.00     0.000 HD 
BRANCH  14  18
HETATM   18  C   UNL     1     -10.061   5.426  68.155  1.00  0.00    -0.220 C  
BRANCH  18  19
HETATM   19  C   UNL     1      -9.726   4.137  67.396  1.00  0.00    -0.202 C  
BRANCH  19  20
HETATM   20  C   UNL     1      -8.363   4.232  66.700  1.00  0.00    -0.101 C  
BRANCH  20  21
HETATM   21  C   UNL     1      -8.469   3.824  65.230  1.00  0.00    -0.105 C  
HETATM   22  N   UNL     1      -8.998   4.926  64.435  1.00  0.00    -0.273 NA 
HETATM   23  H1  UNL     1      -9.070   4.653  63.455  1.00  0.00     0.000 HD 
HETATM   24  H2  UNL     1      -8.451   5.778  64.555  1.00  0.00     0.000 HD 
ENDBRANCH  20  21
ENDBRANCH  19  20
ENDBRANCH  18  19
ENDBRANCH  14  18
ENDBRANCH  12  14
ENDBRANCH   2  10
TORSDOF 8
ENDMDL
MODEL      193
REMARK 921   NORMALIZED FREE ENERGY PREDICTED BY IDOCK:   -3.94 KCAL/MOL
REMARK 922        TOTAL FREE ENERGY PREDICTED BY IDOCK:   -6.57 KCAL/MOL
REMARK 923 INTER-LIGAND FREE ENERGY PREDICTED BY IDOCK:   -6.35 KCAL/MOL
REMARK 924 INTRA-LIGAND FREE ENERGY PREDICTED BY IDOCK:   -0.22 KCAL/MOL
REMARK 927      BINDING AFFINITY PREDICTED BY RF-SCORE:    0.00 PKD
ROOT
HETATM    1  C   UNL     1     -12.061  12.609  69.981  1.00  0.00    -0.339 C  
HETATM    2  C   UNL     1     -11.482  13.606  68.977  1.00  0.00    -0.301 C  
ENDROOT
BRANCH   2   3
HETATM    3  C   UNL     1     -12.014  15.041  69.209  1.00  0.00    -0.322 C  
BRANCH   3   4
HETATM    4  C   UNL     1     -12.502  15.323  70.616  1.00  0.00    -0.458 A  
HETATM    5  C   UNL     1     -11.615  15.795  71.595  1.00  0.00    -0.537 A  
HETATM    6  C   UNL     1     -13.405  15.881  73.219  1.00  0.00    -0.660 A  
HETATM    7  C   UNL     1     -12.065  16.071  72.890  1.00  0.00    -0.626 A  
HETATM    8  C   UNL     1     -14.299  15.423  72.253  1.00  0.00    -0.576 A  
HETATM    9  C   UNL     1     -13.850  15.151  70.957  1.00  0.00    -0.423 A  
ENDBRANCH   3   4
ENDBRANCH   2   3
BRANCH   2  10
HETATM   10  N   UNL     1     -10.025  13.559  69.062  1.00  0.00    -0.425 N  
HETATM   11  H   UNL     1      -9.597  13.516  69.987  1.00  0.00     0.000 HD 
HETATM   12  C   UNL     1      -9.196  13.571  67.961  1.00  0.00    -0.209 C  
HETATM   13  O   UNL     1      -9.598  13.536  66.802  1.00  0.00    -0.251 OA 
BRANCH  12  14
HETATM   14  C   UNL     1      -7.692  13.584  68.325  1.00  0.00    -0.137 C  
HETATM   15  N   UNL     1      -7.498  14.428  69.536  1.00  0.00    -0.356 NA 
HETATM   16  H2  UNL     1      -8.085  14.130  70.316  1.00  0.00     0.000 HD 
HETATM   17  H1  UNL     1      -6.507  14.437  69.776  1.00  0.00     0.000 HD 
BRANCH  14  18
HETATM   18  C   UNL     1      -7.162  12.173  68.617  1.00  0.00    -0.109 C  
BRANCH  18  19
HETATM   19  C   UNL     1      -8.114  11.072  68.137  1.00  0.00    -0.122 C  
BRANCH  19  20
HETATM   20  C   UNL     1      -8.570  10.178  69.295  1.00  0.00    -0.180 C  
BRANCH  20  21
HETATM   21  C   UNL     1      -8.806   8.744  68.820  1.00  0.00    -0.134 C  
HETATM   22  N   UNL     1     -10.003   8.193  69.445  1.00  0.00    -0.183 NA 
HETATM   23  H1  UNL     1     -10.160   7.236  69.129  1.00  0.00     0.000 HD 
HETATM   24  H2  UNL     1     -10.819   8.784  69.290  1.00  0.00     0.000 HD 
ENDBRANCH  20  21
ENDBRANCH  19  20
ENDBRANCH  18  19
ENDBRANCH  14  18
ENDBRANCH  12  14
ENDBRANCH   2  10
TORSDOF 8
ENDMDL
MODEL      194
REMARK 921   NORMALIZED FREE ENERGY PREDICTED BY IDOCK:   -3.94 KCAL/MOL
REMARK 922        TOTAL FREE ENERGY PREDICTED BY IDOCK:   -6.57 KCAL/MOL
REMARK 923 INTER-LIGAND FREE ENERGY PREDICTED BY IDOCK:   -6.24 KCAL/MOL
REMARK 924 INTRA-LIGAND FREE ENERGY PREDICTED BY IDOCK:   -0.32 KCAL/MOL
REMARK 927      BINDING AFFINITY PREDICTED BY RF-SCORE:    0.00 PKD
ROOT
HETATM    1  C   UNL     1     -10.640  15.401  70.384  1.00  0.00    -0.274 C  
HETATM    2  C   UNL     1     -11.248  14.700  69.170  1.00  0.00    -0.270 C  
ENDROOT
BRANCH   2   3
HETATM    3  C   UNL     1     -11.601  15.696  68.039  1.00  0.00    -0.245 C  
BRANCH   3   4
HETATM    4  C   UNL     1     -10.465  16.601  67.607  1.00  0.00    -0.320 A  
HETATM    5  C   UNL     1     -10.413  17.934  68.040  1.00  0.00    -0.390 A  
HETATM    6  C   UNL     1      -8.343  18.277  66.837  1.00  0.00    -0.256 A  
HETATM    7  C   UNL     1      -9.358  18.768  67.655  1.00  0.00    -0.320 A  
HETATM    8  C   UNL     1      -8.377  16.952  66.408  1.00  0.00    -0.333 A  
HETATM    9  C   UNL     1      -9.429  16.117  66.795  1.00  0.00    -0.256 A  
ENDBRANCH   3   4
ENDBRANCH   2   3
BRANCH   2  10
HETATM   10  N   UNL     1     -10.315  13.677  68.706  1.00  0.00    -0.346 N  
HETATM   11  H   UNL     1      -9.320  13.901  68.696  1.00  0.00     0.000 HD 
HETATM   12  C   UNL     1     -10.704  12.426  68.280  1.00  0.00    -0.230 C  
HETATM   13  O   UNL     1     -11.861  12.016  68.328  1.00  0.00    -0.339 OA 
BRANCH  12  14
HETATM   14  C   UNL     1      -9.529  11.556  67.775  1.00  0.00    -0.168 C  
HETATM   15  N   UNL     1      -8.737  11.090  68.946  1.00  0.00    -0.285 NA 
HETATM   16  H2  UNL     1      -9.311  10.605  69.636  1.00  0.00     0.000 HD 
HETATM   17  H1  UNL     1      -7.962  10.517  68.613  1.00  0.00     0.000 HD 
BRANCH  14  18
HETATM   18  C   UNL     1     -10.020  10.330  66.992  1.00  0.00    -0.249 C  
BRANCH  18  19
HETATM   19  C   UNL     1      -9.863  10.493  65.476  1.00  0.00    -0.324 C  
BRANCH  19  20
HETATM   20  C   UNL     1     -10.147  11.933  65.033  1.00  0.00    -0.297 C  
BRANCH  20  21
HETATM   21  C   UNL     1     -10.310  12.016  63.515  1.00  0.00    -0.461 C  
HETATM   22  N   UNL     1     -11.670  11.657  63.131  1.00  0.00    -0.881 NA 
HETATM   23  H1  UNL     1     -11.778  11.712  62.118  1.00  0.00     0.000 HD 
HETATM   24  H2  UNL     1     -12.365  12.221  63.619  1.00  0.00     0.000 HD 
ENDBRANCH  20  21
ENDBRANCH  19  20
ENDBRANCH  18  19
ENDBRANCH  14  18
ENDBRANCH  12  14
ENDBRANCH   2  10
TORSDOF 8
ENDMDL
MODEL      195
REMARK 921   NORMALIZED FREE ENERGY PREDICTED BY IDOCK:   -3.94 KCAL/MOL
REMARK 922        TOTAL FREE ENERGY PREDICTED BY IDOCK:   -6.56 KCAL/MOL
REMARK 923 INTER-LIGAND FREE ENERGY PREDICTED BY IDOCK:   -6.64 KCAL/MOL
REMARK 924 INTRA-LIGAND FREE ENERGY PREDICTED BY IDOCK:    0.07 KCAL/MOL
REMARK 927      BINDING AFFINITY PREDICTED BY RF-SCORE:    0.00 PKD
ROOT
HETATM    1  C   UNL     1     -12.767  14.258  70.255  1.00  0.00    -0.305 C  
HETATM    2  C   UNL     1     -11.729  13.144  70.127  1.00  0.00    -0.178 C  
ENDROOT
BRANCH   2   3
HETATM    3  C   UNL     1     -12.369  11.796  69.716  1.00  0.00    -0.175 C  
BRANCH   3   4
HETATM    4  C   UNL     1     -12.129  10.652  70.681  1.00  0.00    -0.461 A  
HETATM    5  C   UNL     1     -13.130  10.260  71.582  1.00  0.00    -0.553 A  
HETATM    6  C   UNL     1     -11.704   8.511  72.451  1.00  0.00    -0.429 A  
HETATM    7  C   UNL     1     -12.917   9.195  72.463  1.00  0.00    -0.416 A  
HETATM    8  C   UNL     1     -10.705   8.884  71.554  1.00  0.00    -0.398 A  
HETATM    9  C   UNL     1     -10.919   9.945  70.670  1.00  0.00    -0.405 A  
ENDBRANCH   3   4
ENDBRANCH   2   3
BRANCH   2  10
HETATM   10  N   UNL     1     -10.711  13.564  69.168  1.00  0.00    -0.425 N  
HETATM   11  H   UNL     1      -9.842  13.959  69.528  1.00  0.00     0.000 HD 
HETATM   12  C   UNL     1     -10.860  13.456  67.802  1.00  0.00    -0.252 C  
HETATM   13  O   UNL     1     -11.821  12.921  67.259  1.00  0.00    -0.362 OA 
BRANCH  12  14
HETATM   14  C   UNL     1      -9.666  14.037  67.007  1.00  0.00    -0.256 C  
HETATM   15  N   UNL     1      -8.987  12.928  66.282  1.00  0.00    -0.439 NA 
HETATM   16  H2  UNL     1      -9.628  12.399  65.690  1.00  0.00     0.000 HD 
HETATM   17  H1  UNL     1      -8.200  13.310  65.758  1.00  0.00     0.000 HD 
BRANCH  14  18
HETATM   18  C   UNL     1     -10.116  15.091  65.986  1.00  0.00    -0.322 C  
BRANCH  18  19
HETATM   19  C   UNL     1      -9.137  16.264  65.875  1.00  0.00    -0.246 C  
BRANCH  19  20
HETATM   20  C   UNL     1      -9.079  17.074  67.175  1.00  0.00    -0.232 C  
BRANCH  20  21
HETATM   21  C   UNL     1     -10.473  17.544  67.590  1.00  0.00    -0.370 C  
HETATM   22  N   UNL     1     -10.463  17.997  68.976  1.00  0.00    -0.414 NA 
HETATM   23  H1  UNL     1     -11.394  18.311  69.253  1.00  0.00     0.000 HD 
HETATM   24  H2  UNL     1      -9.757  18.715  69.136  1.00  0.00     0.000 HD 
ENDBRANCH  20  21
ENDBRANCH  19  20
ENDBRANCH  18  19
ENDBRANCH  14  18
ENDBRANCH  12  14
ENDBRANCH   2  10
TORSDOF 8
ENDMDL
MODEL      196
REMARK 921   NORMALIZED FREE ENERGY PREDICTED BY IDOCK:   -3.93 KCAL/MOL
REMARK 922        TOTAL FREE ENERGY PREDICTED BY IDOCK:   -6.56 KCAL/MOL
REMARK 923 INTER-LIGAND FREE ENERGY PREDICTED BY IDOCK:   -5.79 KCAL/MOL
REMARK 924 INTRA-LIGAND FREE ENERGY PREDICTED BY IDOCK:   -0.77 KCAL/MOL
REMARK 927      BINDING AFFINITY PREDICTED BY RF-SCORE:    0.00 PKD
ROOT
HETATM    1  C   UNL     1     -10.264   5.664  66.504  1.00  0.00    -0.259 C  
HETATM    2  C   UNL     1     -11.053   6.373  67.605  1.00  0.00    -0.289 C  
ENDROOT
BRANCH   2   3
HETATM    3  C   UNL     1     -10.591   5.947  69.019  1.00  0.00    -0.360 C  
BRANCH   3   4
HETATM    4  C   UNL     1     -11.035   6.864  70.141  1.00  0.00    -0.322 A  
HETATM    5  C   UNL     1     -12.395   6.986  70.464  1.00  0.00    -0.153 A  
HETATM    6  C   UNL     1     -11.863   8.538  72.242  1.00  0.00    -0.453 A  
HETATM    7  C   UNL     1     -12.806   7.820  71.508  1.00  0.00    -0.357 A  
HETATM    8  C   UNL     1     -10.509   8.417  71.938  1.00  0.00    -0.366 A  
HETATM    9  C   UNL     1     -10.097   7.580  70.897  1.00  0.00    -0.192 A  
ENDBRANCH   3   4
ENDBRANCH   2   3
BRANCH   2  10
HETATM   10  N   UNL     1     -10.923   7.815  67.415  1.00  0.00    -0.531 N  
HETATM   11  H   UNL     1     -11.775   8.370  67.341  1.00  0.00     0.000 HD 
HETATM   12  C   UNL     1      -9.712   8.467  67.330  1.00  0.00    -0.183 C  
HETATM   13  O   UNL     1      -8.626   7.917  67.489  1.00  0.00    -0.122 OA 
BRANCH  12  14
HETATM   14  C   UNL     1      -9.849   9.984  67.059  1.00  0.00    -0.189 C  
HETATM   15  N   UNL     1      -9.935  10.204  65.589  1.00  0.00    -0.275 NA 
HETATM   16  H2  UNL     1     -10.684   9.662  65.157  1.00  0.00     0.000 HD 
HETATM   17  H1  UNL     1     -10.025  11.204  65.410  1.00  0.00     0.000 HD 
BRANCH  14  18
HETATM   18  C   UNL     1     -11.105  10.572  67.719  1.00  0.00    -0.382 C  
BRANCH  18  19
HETATM   19  C   UNL     1     -10.931  10.797  69.225  1.00  0.00    -0.292 C  
BRANCH  19  20
HETATM   20  C   UNL     1     -12.083  11.624  69.808  1.00  0.00    -0.357 C  
BRANCH  20  21
HETATM   21  C   UNL     1     -12.028  13.068  69.308  1.00  0.00    -0.278 C  
HETATM   22  N   UNL     1     -10.741  13.669  69.638  1.00  0.00    -0.427 NA 
HETATM   23  H1  UNL     1     -10.704  14.633  69.306  1.00  0.00     0.000 HD 
HETATM   24  H2  UNL     1      -9.961  13.115  69.286  1.00  0.00     0.000 HD 
ENDBRANCH  20  21
ENDBRANCH  19  20
ENDBRANCH  18  19
ENDBRANCH  14  18
ENDBRANCH  12  14
ENDBRANCH   2  10
TORSDOF 8
ENDMDL
MODEL      197
REMARK 921   NORMALIZED FREE ENERGY PREDICTED BY IDOCK:   -3.93 KCAL/MOL
REMARK 922        TOTAL FREE ENERGY PREDICTED BY IDOCK:   -6.55 KCAL/MOL
REMARK 923 INTER-LIGAND FREE ENERGY PREDICTED BY IDOCK:   -6.32 KCAL/MOL
REMARK 924 INTRA-LIGAND FREE ENERGY PREDICTED BY IDOCK:   -0.23 KCAL/MOL
REMARK 927      BINDING AFFINITY PREDICTED BY RF-SCORE:    0.00 PKD
ROOT
HETATM    1  C   UNL     1     -10.567  14.828  67.971  1.00  0.00    -0.244 C  
HETATM    2  C   UNL     1     -10.552  13.309  68.137  1.00  0.00    -0.249 C  
ENDROOT
BRANCH   2   3
HETATM    3  C   UNL     1     -11.886  12.772  68.709  1.00  0.00    -0.346 C  
BRANCH   3   4
HETATM    4  C   UNL     1     -11.754  11.565  69.616  1.00  0.00    -0.419 A  
HETATM    5  C   UNL     1     -10.678  10.677  69.466  1.00  0.00    -0.290 A  
HETATM    6  C   UNL     1     -11.483   9.343  71.316  1.00  0.00    -0.433 A  
HETATM    7  C   UNL     1     -10.546   9.571  70.311  1.00  0.00    -0.317 A  
HETATM    8  C   UNL     1     -12.550  10.224  71.482  1.00  0.00    -0.544 A  
HETATM    9  C   UNL     1     -12.681  11.332  70.640  1.00  0.00    -0.314 A  
ENDBRANCH   3   4
ENDBRANCH   2   3
BRANCH   2  10
HETATM   10  N   UNL     1     -10.245  12.703  66.844  1.00  0.00    -0.233 N  
HETATM   11  H   UNL     1      -9.278  12.441  66.651  1.00  0.00     0.000 HD 
HETATM   12  C   UNL     1     -11.190  12.466  65.869  1.00  0.00    -0.336 C  
HETATM   13  O   UNL     1     -12.393  12.660  66.021  1.00  0.00    -0.587 OA 
BRANCH  12  14
HETATM   14  C   UNL     1     -10.595  11.879  64.567  1.00  0.00    -0.311 C  
HETATM   15  N   UNL     1     -10.115  12.999  63.711  1.00  0.00    -0.744 NA 
HETATM   16  H2  UNL     1      -9.459  13.609  64.199  1.00  0.00     0.000 HD 
HETATM   17  H1  UNL     1      -9.723  12.613  62.853  1.00  0.00     0.000 HD 
BRANCH  14  18
HETATM   18  C   UNL     1      -9.417  10.936  64.850  1.00  0.00    -0.277 C  
BRANCH  18  19
HETATM   19  C   UNL     1      -9.854   9.633  65.530  1.00  0.00    -0.352 C  
BRANCH  19  20
HETATM   20  C   UNL     1      -8.837   9.180  66.584  1.00  0.00    -0.147 C  
BRANCH  20  21
HETATM   21  C   UNL     1      -7.678  10.172  66.689  1.00  0.00    -0.106 C  
HETATM   22  N   UNL     1      -6.420   9.462  66.891  1.00  0.00    -0.066 NA 
HETATM   23  H1  UNL     1      -5.648  10.124  66.962  1.00  0.00     0.000 HD 
HETATM   24  H2  UNL     1      -6.258   8.763  66.167  1.00  0.00     0.000 HD 
ENDBRANCH  20  21
ENDBRANCH  19  20
ENDBRANCH  18  19
ENDBRANCH  14  18
ENDBRANCH  12  14
ENDBRANCH   2  10
TORSDOF 8
ENDMDL
MODEL      198
REMARK 921   NORMALIZED FREE ENERGY PREDICTED BY IDOCK:   -3.92 KCAL/MOL
REMARK 922        TOTAL FREE ENERGY PREDICTED BY IDOCK:   -6.54 KCAL/MOL
REMARK 923 INTER-LIGAND FREE ENERGY PREDICTED BY IDOCK:   -6.48 KCAL/MOL
REMARK 924 INTRA-LIGAND FREE ENERGY PREDICTED BY IDOCK:   -0.06 KCAL/MOL
REMARK 927      BINDING AFFINITY PREDICTED BY RF-SCORE:    0.00 PKD
ROOT
HETATM    1  C   UNL     1     -12.828  13.725  64.938  1.00  0.00    -0.242 C  
HETATM    2  C   UNL     1     -11.753  13.257  65.920  1.00  0.00    -0.365 C  
ENDROOT
BRANCH   2   3
HETATM    3  C   UNL     1     -10.677  12.383  65.232  1.00  0.00    -0.322 C  
BRANCH   3   4
HETATM    4  C   UNL     1     -10.419  11.046  65.896  1.00  0.00    -0.300 A  
HETATM    5  C   UNL     1     -10.892  10.791  67.192  1.00  0.00    -0.335 A  
HETATM    6  C   UNL     1      -9.974   8.555  67.121  1.00  0.00    -0.304 A  
HETATM    7  C   UNL     1     -10.668   9.553  67.801  1.00  0.00    -0.302 A  
HETATM    8  C   UNL     1      -9.508   8.791  65.829  1.00  0.00    -0.239 A  
HETATM    9  C   UNL     1      -9.734  10.027  65.218  1.00  0.00    -0.373 A  
ENDBRANCH   3   4
ENDBRANCH   2   3
BRANCH   2  10
HETATM   10  N   UNL     1     -11.159  14.431  66.554  1.00  0.00    -0.324 N  
HETATM   11  H   UNL     1     -11.131  14.467  67.573  1.00  0.00     0.000 HD 
HETATM   12  C   UNL     1     -10.636  15.495  65.851  1.00  0.00    -0.339 C  
HETATM   13  O   UNL     1     -10.539  15.525  64.627  1.00  0.00    -0.365 OA 
BRANCH  12  14
HETATM   14  C   UNL     1     -10.131  16.642  66.758  1.00  0.00    -0.291 C  
HETATM   15  N   UNL     1     -10.127  17.908  65.975  1.00  0.00    -0.540 NA 
HETATM   16  H2  UNL     1     -11.036  18.112  65.560  1.00  0.00     0.000 HD 
HETATM   17  H1  UNL     1      -9.794  18.664  66.573  1.00  0.00     0.000 HD 
BRANCH  14  18
HETATM   18  C   UNL     1     -11.024  16.829  67.993  1.00  0.00    -0.296 C  
BRANCH  18  19
HETATM   19  C   UNL     1     -10.328  16.415  69.295  1.00  0.00    -0.292 C  
BRANCH  19  20
HETATM   20  C   UNL     1     -11.321  16.321  70.459  1.00  0.00    -0.318 C  
BRANCH  20  21
HETATM   21  C   UNL     1     -11.842  14.892  70.620  1.00  0.00    -0.301 C  
HETATM   22  N   UNL     1     -13.300  14.885  70.654  1.00  0.00    -0.633 NA 
HETATM   23  H1  UNL     1     -13.647  13.932  70.763  1.00  0.00     0.000 HD 
HETATM   24  H2  UNL     1     -13.701  15.346  69.838  1.00  0.00     0.000 HD 
ENDBRANCH  20  21
ENDBRANCH  19  20
ENDBRANCH  18  19
ENDBRANCH  14  18
ENDBRANCH  12  14
ENDBRANCH   2  10
TORSDOF 8
ENDMDL
MODEL      199
REMARK 921   NORMALIZED FREE ENERGY PREDICTED BY IDOCK:   -3.92 KCAL/MOL
REMARK 922        TOTAL FREE ENERGY PREDICTED BY IDOCK:   -6.54 KCAL/MOL
REMARK 923 INTER-LIGAND FREE ENERGY PREDICTED BY IDOCK:   -5.69 KCAL/MOL
REMARK 924 INTRA-LIGAND FREE ENERGY PREDICTED BY IDOCK:   -0.85 KCAL/MOL
REMARK 927      BINDING AFFINITY PREDICTED BY RF-SCORE:    0.00 PKD
ROOT
HETATM    1  C   UNL     1      -9.658   8.879  65.972  1.00  0.00    -0.320 C  
HETATM    2  C   UNL     1      -9.800   9.817  67.171  1.00  0.00    -0.188 C  
ENDROOT
BRANCH   2   3
HETATM    3  C   UNL     1     -11.267  10.254  67.397  1.00  0.00    -0.145 C  
BRANCH   3   4
HETATM    4  C   UNL     1     -11.454  11.719  67.735  1.00  0.00    -0.381 A  
HETATM    5  C   UNL     1     -11.375  12.697  66.731  1.00  0.00    -0.373 A  
HETATM    6  C   UNL     1     -11.831  14.437  68.348  1.00  0.00    -0.354 A  
HETATM    7  C   UNL     1     -11.561  14.048  67.038  1.00  0.00    -0.394 A  
HETATM    8  C   UNL     1     -11.923  13.475  69.352  1.00  0.00    -0.383 A  
HETATM    9  C   UNL     1     -11.741  12.124  69.046  1.00  0.00    -0.377 A  
ENDBRANCH   3   4
ENDBRANCH   2   3
BRANCH   2  10
HETATM   10  N   UNL     1      -9.257   9.149  68.351  1.00  0.00    -0.132 N  
HETATM   11  H   UNL     1      -9.346   8.135  68.416  1.00  0.00     0.000 HD 
HETATM   12  C   UNL     1      -8.630   9.814  69.382  1.00  0.00    -0.165 C  
HETATM   13  O   UNL     1      -8.390  11.018  69.374  1.00  0.00    -0.026 OA 
BRANCH  12  14
HETATM   14  C   UNL     1      -8.207   8.885  70.545  1.00  0.00    -0.145 C  
HETATM   15  N   UNL     1      -7.057   9.502  71.261  1.00  0.00    -0.329 NA 
HETATM   16  H2  UNL     1      -7.258  10.452  71.575  1.00  0.00     0.000 HD 
HETATM   17  H1  UNL     1      -6.779   8.890  72.027  1.00  0.00     0.000 HD 
BRANCH  14  18
HETATM   18  C   UNL     1      -9.351   8.665  71.546  1.00  0.00    -0.319 C  
BRANCH  18  19
HETATM   19  C   UNL     1     -10.664   9.316  71.097  1.00  0.00    -0.403 C  
BRANCH  19  20
HETATM   20  C   UNL     1     -11.838   8.334  71.184  1.00  0.00    -0.302 C  
BRANCH  20  21
HETATM   21  C   UNL     1     -11.392   6.915  70.830  1.00  0.00    -0.310 C  
HETATM   22  N   UNL     1     -11.682   6.628  69.430  1.00  0.00    -0.648 NA 
HETATM   23  H1  UNL     1     -11.386   5.681  69.194  1.00  0.00     0.000 HD 
HETATM   24  H2  UNL     1     -11.271   7.323  68.806  1.00  0.00     0.000 HD 
ENDBRANCH  20  21
ENDBRANCH  19  20
ENDBRANCH  18  19
ENDBRANCH  14  18
ENDBRANCH  12  14
ENDBRANCH   2  10
TORSDOF 8
ENDMDL
MODEL      200
REMARK 921   NORMALIZED FREE ENERGY PREDICTED BY IDOCK:   -3.91 KCAL/MOL
REMARK 922        TOTAL FREE ENERGY PREDICTED BY IDOCK:   -6.53 KCAL/MOL
REMARK 923 INTER-LIGAND FREE ENERGY PREDICTED BY IDOCK:   -6.20 KCAL/MOL
REMARK 924 INTRA-LIGAND FREE ENERGY PREDICTED BY IDOCK:   -0.33 KCAL/MOL
REMARK 927      BINDING AFFINITY PREDICTED BY RF-SCORE:    0.00 PKD
ROOT
HETATM    1  C   UNL     1     -11.571  12.693  69.580  1.00  0.00    -0.348 C  
HETATM    2  C   UNL     1     -11.294  13.958  68.768  1.00  0.00    -0.277 C  
ENDROOT
BRANCH   2   3
HETATM    3  C   UNL     1     -12.342  15.064  69.039  1.00  0.00    -0.056 C  
BRANCH   3   4
HETATM    4  C   UNL     1     -12.654  15.306  70.502  1.00  0.00    -0.450 A  
HETATM    5  C   UNL     1     -13.887  14.911  71.041  1.00  0.00    -0.332 A  
HETATM    6  C   UNL     1     -13.227  15.719  73.223  1.00  0.00    -0.687 A  
HETATM    7  C   UNL     1     -14.172  15.119  72.394  1.00  0.00    -0.540 A  
HETATM    8  C   UNL     1     -11.994  16.106  72.703  1.00  0.00    -0.653 A  
HETATM    9  C   UNL     1     -11.707  15.895  71.351  1.00  0.00    -0.530 A  
ENDBRANCH   3   4
ENDBRANCH   2   3
BRANCH   2  10
HETATM   10  N   UNL     1      -9.942  14.420  69.071  1.00  0.00    -0.368 N  
HETATM   11  H   UNL     1      -9.491  14.068  69.915  1.00  0.00     0.000 HD 
HETATM   12  C   UNL     1      -9.243  15.305  68.280  1.00  0.00    -0.189 C  
HETATM   13  O   UNL     1      -9.650  15.727  67.201  1.00  0.00    -0.215 OA 
BRANCH  12  14
HETATM   14  C   UNL     1      -7.860  15.686  68.859  1.00  0.00    -0.186 C  
HETATM   15  N   UNL     1      -6.802  15.006  68.063  1.00  0.00    -0.125 NA 
HETATM   16  H2  UNL     1      -6.874  15.208  67.066  1.00  0.00     0.000 HD 
HETATM   17  H1  UNL     1      -5.890  15.257  68.445  1.00  0.00     0.000 HD 
BRANCH  14  18
HETATM   18  C   UNL     1      -7.617  17.201  68.810  1.00  0.00    -0.259 C  
BRANCH  18  19
HETATM   19  C   UNL     1      -6.212  17.591  69.283  1.00  0.00    -0.239 C  
BRANCH  19  20
HETATM   20  C   UNL     1      -6.203  18.975  69.942  1.00  0.00    -0.226 C  
BRANCH  20  21
HETATM   21  C   UNL     1      -5.460  19.990  69.073  1.00  0.00    -0.218 C  
HETATM   22  N   UNL     1      -6.395  20.690  68.200  1.00  0.00    -0.304 NA 
HETATM   23  H1  UNL     1      -5.899  21.367  67.620  1.00  0.00     0.000 HD 
HETATM   24  H2  UNL     1      -7.153  21.124  68.726  1.00  0.00     0.000 HD 
ENDBRANCH  20  21
ENDBRANCH  19  20
ENDBRANCH  18  19
ENDBRANCH  14  18
ENDBRANCH  12  14
ENDBRANCH   2  10
TORSDOF 8
ENDMDL
MODEL      201
REMARK 921   NORMALIZED FREE ENERGY PREDICTED BY IDOCK:   -3.91 KCAL/MOL
REMARK 922        TOTAL FREE ENERGY PREDICTED BY IDOCK:   -6.53 KCAL/MOL
REMARK 923 INTER-LIGAND FREE ENERGY PREDICTED BY IDOCK:   -5.69 KCAL/MOL
REMARK 924 INTRA-LIGAND FREE ENERGY PREDICTED BY IDOCK:   -0.84 KCAL/MOL
REMARK 927      BINDING AFFINITY PREDICTED BY RF-SCORE:    0.00 PKD
ROOT
HETATM    1  C   UNL     1     -11.969  12.125  68.514  1.00  0.00    -0.273 C  
HETATM    2  C   UNL     1     -11.342  10.895  67.860  1.00  0.00    -0.308 C  
ENDROOT
BRANCH   2   3
HETATM    3  C   UNL     1     -10.587  11.249  66.556  1.00  0.00    -0.315 C  
BRANCH   3   4
HETATM    4  C   UNL     1     -10.221  12.712  66.407  1.00  0.00    -0.263 A  
HETATM    5  C   UNL     1     -10.848  13.507  65.436  1.00  0.00    -0.299 A  
HETATM    6  C   UNL     1      -9.571  15.435  66.145  1.00  0.00    -0.362 A  
HETATM    7  C   UNL     1     -10.523  14.861  65.305  1.00  0.00    -0.427 A  
HETATM    8  C   UNL     1      -8.949  14.659  67.121  1.00  0.00    -0.240 A  
HETATM    9  C   UNL     1      -9.276  13.307  67.255  1.00  0.00    -0.222 A  
ENDBRANCH   3   4
ENDBRANCH   2   3
BRANCH   2  10
HETATM   10  N   UNL     1     -10.458  10.252  68.828  1.00  0.00    -0.191 N  
HETATM   11  H   UNL     1     -10.014  10.835  69.538  1.00  0.00     0.000 HD 
HETATM   12  C   UNL     1     -10.189   8.900  68.836  1.00  0.00    -0.206 C  
HETATM   13  O   UNL     1     -10.729   8.091  68.088  1.00  0.00    -0.149 OA 
BRANCH  12  14
HETATM   14  C   UNL     1      -9.167   8.484  69.921  1.00  0.00    -0.154 C  
HETATM   15  N   UNL     1      -8.675   9.707  70.612  1.00  0.00    -0.344 NA 
HETATM   16  H2  UNL     1      -9.435  10.273  70.991  1.00  0.00     0.000 HD 
HETATM   17  H1  UNL     1      -8.001   9.434  71.327  1.00  0.00     0.000 HD 
BRANCH  14  18
HETATM   18  C   UNL     1      -9.790   7.545  70.964  1.00  0.00    -0.182 C  
BRANCH  18  19
HETATM   19  C   UNL     1     -10.228   8.281  72.235  1.00  0.00    -0.375 C  
BRANCH  19  20
HETATM   20  C   UNL     1     -11.755   8.316  72.367  1.00  0.00    -0.463 C  
BRANCH  20  21
HETATM   21  C   UNL     1     -12.312   9.670  71.927  1.00  0.00    -0.357 C  
HETATM   22  N   UNL     1     -13.138   9.514  70.735  1.00  0.00    -0.561 NA 
HETATM   23  H1  UNL     1     -13.509  10.417  70.441  1.00  0.00     0.000 HD 
HETATM   24  H2  UNL     1     -13.878   8.825  70.873  1.00  0.00     0.000 HD 
ENDBRANCH  20  21
ENDBRANCH  19  20
ENDBRANCH  18  19
ENDBRANCH  14  18
ENDBRANCH  12  14
ENDBRANCH   2  10
TORSDOF 8
ENDMDL
MODEL      202
REMARK 921   NORMALIZED FREE ENERGY PREDICTED BY IDOCK:   -3.91 KCAL/MOL
REMARK 922        TOTAL FREE ENERGY PREDICTED BY IDOCK:   -6.52 KCAL/MOL
REMARK 923 INTER-LIGAND FREE ENERGY PREDICTED BY IDOCK:   -6.65 KCAL/MOL
REMARK 924 INTRA-LIGAND FREE ENERGY PREDICTED BY IDOCK:    0.12 KCAL/MOL
REMARK 927      BINDING AFFINITY PREDICTED BY RF-SCORE:    0.00 PKD
ROOT
HETATM    1  C   UNL     1     -11.476  15.669  70.862  1.00  0.00    -0.425 C  
HETATM    2  C   UNL     1     -11.431  16.322  69.481  1.00  0.00    -0.231 C  
ENDROOT
BRANCH   2   3
HETATM    3  C   UNL     1     -10.091  17.054  69.226  1.00  0.00    -0.208 C  
BRANCH   3   4
HETATM    4  C   UNL     1     -10.125  18.083  68.115  1.00  0.00    -0.378 A  
HETATM    5  C   UNL     1     -10.356  17.690  66.788  1.00  0.00    -0.331 A  
HETATM    6  C   UNL     1     -10.224  19.990  66.051  1.00  0.00    -0.568 A  
HETATM    7  C   UNL     1     -10.403  18.639  65.762  1.00  0.00    -0.232 A  
HETATM    8  C   UNL     1     -10.005  20.395  67.366  1.00  0.00    -0.556 A  
HETATM    9  C   UNL     1      -9.962  19.447  68.393  1.00  0.00    -0.527 A  
ENDBRANCH   3   4
ENDBRANCH   2   3
BRANCH   2  10
HETATM   10  N   UNL     1     -11.677  15.295  68.472  1.00  0.00    -0.422 N  
HETATM   11  H   UNL     1     -12.522  15.368  67.907  1.00  0.00     0.000 HD 
HETATM   12  C   UNL     1     -10.829  14.233  68.243  1.00  0.00    -0.246 C  
HETATM   13  O   UNL     1      -9.745  14.090  68.802  1.00  0.00    -0.205 OA 
BRANCH  12  14
HETATM   14  C   UNL     1     -11.353  13.250  67.169  1.00  0.00    -0.317 C  
HETATM   15  N   UNL     1     -12.476  13.895  66.435  1.00  0.00    -0.438 NA 
HETATM   16  H2  UNL     1     -12.216  14.799  66.041  1.00  0.00     0.000 HD 
HETATM   17  H1  UNL     1     -12.822  13.248  65.727  1.00  0.00     0.000 HD 
BRANCH  14  18
HETATM   18  C   UNL     1     -10.260  12.869  66.161  1.00  0.00    -0.286 C  
BRANCH  18  19
HETATM   19  C   UNL     1     -10.670  11.701  65.257  1.00  0.00    -0.346 C  
BRANCH  19  20
HETATM   20  C   UNL     1      -9.931  11.741  63.915  1.00  0.00    -0.356 C  
BRANCH  20  21
HETATM   21  C   UNL     1      -9.772  10.335  63.335  1.00  0.00    -0.184 C  
HETATM   22  N   UNL     1      -9.472   9.380  64.396  1.00  0.00    -0.388 NA 
HETATM   23  H1  UNL     1      -9.366   8.443  64.009  1.00  0.00     0.000 HD 
HETATM   24  H2  UNL     1     -10.169   9.408  65.140  1.00  0.00     0.000 HD 
ENDBRANCH  20  21
ENDBRANCH  19  20
ENDBRANCH  18  19
ENDBRANCH  14  18
ENDBRANCH  12  14
ENDBRANCH   2  10
TORSDOF 8
ENDMDL
MODEL      203
REMARK 921   NORMALIZED FREE ENERGY PREDICTED BY IDOCK:   -3.91 KCAL/MOL
REMARK 922        TOTAL FREE ENERGY PREDICTED BY IDOCK:   -6.52 KCAL/MOL
REMARK 923 INTER-LIGAND FREE ENERGY PREDICTED BY IDOCK:   -5.49 KCAL/MOL
REMARK 924 INTRA-LIGAND FREE ENERGY PREDICTED BY IDOCK:   -1.03 KCAL/MOL
REMARK 927      BINDING AFFINITY PREDICTED BY RF-SCORE:    0.00 PKD
ROOT
HETATM    1  C   UNL     1      -9.349   2.628  70.026  1.00  0.00    -0.192 C  
HETATM    2  C   UNL     1      -9.094   4.129  69.884  1.00  0.00    -0.113 C  
ENDROOT
BRANCH   2   3
HETATM    3  C   UNL     1      -8.913   4.551  68.406  1.00  0.00    -0.143 C  
BRANCH   3   4
HETATM    4  C   UNL     1      -9.390   5.951  68.078  1.00  0.00    -0.111 A  
HETATM    5  C   UNL     1      -8.522   7.046  68.202  1.00  0.00    -0.129 A  
HETATM    6  C   UNL     1     -10.258   8.547  67.438  1.00  0.00    -0.329 A  
HETATM    7  C   UNL     1      -8.955   8.337  67.885  1.00  0.00    -0.134 A  
HETATM    8  C   UNL     1     -11.126   7.467  67.300  1.00  0.00    -0.068 A  
HETATM    9  C   UNL     1     -10.693   6.175  67.613  1.00  0.00    -0.388 A  
ENDBRANCH   3   4
ENDBRANCH   2   3
BRANCH   2  10
HETATM   10  N   UNL     1     -10.199   4.850  70.512  1.00  0.00    -0.241 N  
HETATM   11  H   UNL     1     -11.032   5.035  69.954  1.00  0.00     0.000 HD 
HETATM   12  C   UNL     1     -10.176   5.294  71.816  1.00  0.00    -0.210 C  
HETATM   13  O   UNL     1      -9.265   5.056  72.604  1.00  0.00    -0.130 OA 
BRANCH  12  14
HETATM   14  C   UNL     1     -11.441   6.091  72.215  1.00  0.00    -0.312 C  
HETATM   15  N   UNL     1     -11.270   6.600  73.604  1.00  0.00    -0.379 NA 
HETATM   16  H2  UNL     1     -10.416   7.145  73.716  1.00  0.00     0.000 HD 
HETATM   17  H1  UNL     1     -12.104   7.124  73.867  1.00  0.00     0.000 HD 
BRANCH  14  18
HETATM   18  C   UNL     1     -11.685   7.283  71.279  1.00  0.00    -0.328 C  
BRANCH  18  19
HETATM   19  C   UNL     1     -11.331   8.626  71.928  1.00  0.00    -0.417 C  
BRANCH  19  20
HETATM   20  C   UNL     1     -12.337   9.718  71.545  1.00  0.00    -0.495 C  
BRANCH  20  21
HETATM   21  C   UNL     1     -13.753   9.332  71.971  1.00  0.00    -0.428 C  
HETATM   22  N   UNL     1     -13.771   8.937  73.374  1.00  0.00    -0.945 NA 
HETATM   23  H1  UNL     1     -14.716   8.679  73.658  1.00  0.00     0.000 HD 
HETATM   24  H2  UNL     1     -13.376   9.660  73.977  1.00  0.00     0.000 HD 
ENDBRANCH  20  21
ENDBRANCH  19  20
ENDBRANCH  18  19
ENDBRANCH  14  18
ENDBRANCH  12  14
ENDBRANCH   2  10
TORSDOF 8
ENDMDL
MODEL      204
REMARK 921   NORMALIZED FREE ENERGY PREDICTED BY IDOCK:   -3.90 KCAL/MOL
REMARK 922        TOTAL FREE ENERGY PREDICTED BY IDOCK:   -6.51 KCAL/MOL
REMARK 923 INTER-LIGAND FREE ENERGY PREDICTED BY IDOCK:   -5.74 KCAL/MOL
REMARK 924 INTRA-LIGAND FREE ENERGY PREDICTED BY IDOCK:   -0.78 KCAL/MOL
REMARK 927      BINDING AFFINITY PREDICTED BY RF-SCORE:    0.00 PKD
ROOT
HETATM    1  C   UNL     1     -11.370  11.434  67.920  1.00  0.00    -0.371 C  
HETATM    2  C   UNL     1     -10.216  10.585  67.388  1.00  0.00    -0.211 C  
ENDROOT
BRANCH   2   3
HETATM    3  C   UNL     1      -9.520  11.243  66.172  1.00  0.00    -0.232 C  
BRANCH   3   4
HETATM    4  C   UNL     1     -10.445  11.993  65.235  1.00  0.00    -0.323 A  
HETATM    5  C   UNL     1     -10.575  13.387  65.329  1.00  0.00    -0.333 A  
HETATM    6  C   UNL     1     -12.131  13.397  63.478  1.00  0.00    -0.497 A  
HETATM    7  C   UNL     1     -11.415  14.084  64.455  1.00  0.00    -0.380 A  
HETATM    8  C   UNL     1     -12.003  12.013  63.367  1.00  0.00    -0.571 A  
HETATM    9  C   UNL     1     -11.160  11.316  64.237  1.00  0.00    -0.293 A  
ENDBRANCH   3   4
ENDBRANCH   2   3
BRANCH   2  10
HETATM   10  N   UNL     1      -9.272  10.348  68.478  1.00  0.00    -0.139 N  
HETATM   11  H   UNL     1      -8.918  11.155  68.992  1.00  0.00     0.000 HD 
HETATM   12  C   UNL     1      -8.832   9.096  68.848  1.00  0.00    -0.139 C  
HETATM   13  O   UNL     1      -9.253   8.051  68.359  1.00  0.00    -0.136 OA 
BRANCH  12  14
HETATM   14  C   UNL     1      -7.782   9.125  69.984  1.00  0.00    -0.088 C  
HETATM   15  N   UNL     1      -7.483  10.543  70.326  1.00  0.00    -0.455 NA 
HETATM   16  H2  UNL     1      -8.323  11.073  70.558  1.00  0.00     0.000 HD 
HETATM   17  H1  UNL     1      -6.791  10.562  71.074  1.00  0.00     0.000 HD 
BRANCH  14  18
HETATM   18  C   UNL     1      -8.285   8.409  71.246  1.00  0.00    -0.161 C  
BRANCH  18  19
HETATM   19  C   UNL     1      -9.623   8.965  71.748  1.00  0.00    -0.353 C  
BRANCH  19  20
HETATM   20  C   UNL     1     -10.583   7.841  72.152  1.00  0.00    -0.295 C  
BRANCH  20  21
HETATM   21  C   UNL     1     -11.958   8.039  71.513  1.00  0.00    -0.297 C  
HETATM   22  N   UNL     1     -11.825   8.701  70.221  1.00  0.00    -0.464 NA 
HETATM   23  H1  UNL     1     -12.742   8.834  69.795  1.00  0.00     0.000 HD 
HETATM   24  H2  UNL     1     -11.187   8.202  69.601  1.00  0.00     0.000 HD 
ENDBRANCH  20  21
ENDBRANCH  19  20
ENDBRANCH  18  19
ENDBRANCH  14  18
ENDBRANCH  12  14
ENDBRANCH   2  10
TORSDOF 8
ENDMDL
MODEL      205
REMARK 921   NORMALIZED FREE ENERGY PREDICTED BY IDOCK:   -3.89 KCAL/MOL
REMARK 922        TOTAL FREE ENERGY PREDICTED BY IDOCK:   -6.50 KCAL/MOL
REMARK 923 INTER-LIGAND FREE ENERGY PREDICTED BY IDOCK:   -5.93 KCAL/MOL
REMARK 924 INTRA-LIGAND FREE ENERGY PREDICTED BY IDOCK:   -0.57 KCAL/MOL
REMARK 927      BINDING AFFINITY PREDICTED BY RF-SCORE:    0.00 PKD
ROOT
HETATM    1  C   UNL     1     -10.938   6.539  68.800  1.00  0.00    -0.371 C  
HETATM    2  C   UNL     1     -10.650   7.514  69.941  1.00  0.00    -0.237 C  
ENDROOT
BRANCH   2   3
HETATM    3  C   UNL     1      -9.530   8.518  69.579  1.00  0.00    -0.165 C  
BRANCH   3   4
HETATM    4  C   UNL     1      -8.132   7.934  69.548  1.00  0.00    -0.121 A  
HETATM    5  C   UNL     1      -7.413   7.873  68.345  1.00  0.00    -0.100 A  
HETATM    6  C   UNL     1      -5.526   6.883  69.488  1.00  0.00    -0.015 A  
HETATM    7  C   UNL     1      -6.117   7.349  68.316  1.00  0.00    -0.032 A  
HETATM    8  C   UNL     1      -6.225   6.948  70.691  1.00  0.00    -0.032 A  
HETATM    9  C   UNL     1      -7.518   7.476  70.722  1.00  0.00    -0.076 A  
ENDBRANCH   3   4
ENDBRANCH   2   3
BRANCH   2  10
HETATM   10  N   UNL     1     -11.890   8.203  70.288  1.00  0.00    -0.458 N  
HETATM   11  H   UNL     1     -12.532   8.450  69.535  1.00  0.00     0.000 HD 
HETATM   12  C   UNL     1     -12.242   8.537  71.578  1.00  0.00    -0.311 C  
HETATM   13  O   UNL     1     -11.592   8.216  72.569  1.00  0.00    -0.375 OA 
BRANCH  12  14
HETATM   14  C   UNL     1     -13.572   9.323  71.668  1.00  0.00    -0.381 C  
HETATM   15  N   UNL     1     -14.407   8.732  72.750  1.00  0.00    -1.038 NA 
HETATM   16  H2  UNL     1     -13.916   8.693  73.644  1.00  0.00     0.000 HD 
HETATM   17  H1  UNL     1     -15.283   9.249  72.809  1.00  0.00     0.000 HD 
BRANCH  14  18
HETATM   18  C   UNL     1     -13.338  10.808  71.981  1.00  0.00    -0.403 C  
BRANCH  18  19
HETATM   19  C   UNL     1     -12.425  11.491  70.958  1.00  0.00    -0.458 C  
BRANCH  19  20
HETATM   20  C   UNL     1     -12.513  13.019  71.057  1.00  0.00    -0.385 C  
BRANCH  20  21
HETATM   21  C   UNL     1     -13.514  13.441  72.132  1.00  0.00    -0.552 C  
HETATM   22  N   UNL     1     -13.194  14.776  72.625  1.00  0.00    -0.418 NA 
HETATM   23  H1  UNL     1     -13.862  15.057  73.343  1.00  0.00     0.000 HD 
HETATM   24  H2  UNL     1     -13.138  15.458  71.869  1.00  0.00     0.000 HD 
ENDBRANCH  20  21
ENDBRANCH  19  20
ENDBRANCH  18  19
ENDBRANCH  14  18
ENDBRANCH  12  14
ENDBRANCH   2  10
TORSDOF 8
ENDMDL
MODEL      206
REMARK 921   NORMALIZED FREE ENERGY PREDICTED BY IDOCK:   -3.88 KCAL/MOL
REMARK 922        TOTAL FREE ENERGY PREDICTED BY IDOCK:   -6.49 KCAL/MOL
REMARK 923 INTER-LIGAND FREE ENERGY PREDICTED BY IDOCK:   -6.40 KCAL/MOL
REMARK 924 INTRA-LIGAND FREE ENERGY PREDICTED BY IDOCK:   -0.09 KCAL/MOL
REMARK 927      BINDING AFFINITY PREDICTED BY RF-SCORE:    0.00 PKD
ROOT
HETATM    1  C   UNL     1      -8.169  12.185  67.458  1.00  0.00    -0.167 C  
HETATM    2  C   UNL     1      -9.247  12.351  66.387  1.00  0.00    -0.192 C  
ENDROOT
BRANCH   2   3
HETATM    3  C   UNL     1     -10.626  11.834  66.864  1.00  0.00    -0.270 C  
BRANCH   3   4
HETATM    4  C   UNL     1     -10.637  10.401  67.356  1.00  0.00    -0.321 A  
HETATM    5  C   UNL     1     -10.348   9.345  66.479  1.00  0.00    -0.268 A  
HETATM    6  C   UNL     1     -10.622   7.743  68.269  1.00  0.00    -0.169 A  
HETATM    7  C   UNL     1     -10.343   8.023  66.934  1.00  0.00    -0.408 A  
HETATM    8  C   UNL     1     -10.899   8.783  69.153  1.00  0.00    -0.074 A  
HETATM    9  C   UNL     1     -10.901  10.105  68.701  1.00  0.00    -0.272 A  
ENDBRANCH   3   4
ENDBRANCH   2   3
BRANCH   2  10
HETATM   10  N   UNL     1      -9.310  13.760  66.006  1.00  0.00    -0.503 N  
HETATM   11  H   UNL     1      -8.619  14.398  66.400  1.00  0.00     0.000 HD 
HETATM   12  C   UNL     1     -10.253  14.275  65.142  1.00  0.00    -0.385 C  
HETATM   13  O   UNL     1     -11.078  13.591  64.543  1.00  0.00    -0.351 OA 
BRANCH  12  14
HETATM   14  C   UNL     1     -10.145  15.807  64.958  1.00  0.00     0.010 C  
HETATM   15  N   UNL     1     -11.230  16.259  64.045  1.00  0.00    -1.342 NA 
HETATM   16  H2  UNL     1     -12.155  15.970  64.366  1.00  0.00     0.000 HD 
HETATM   17  H1  UNL     1     -11.159  17.269  63.923  1.00  0.00     0.000 HD 
BRANCH  14  18
HETATM   18  C   UNL     1     -10.279  16.555  66.292  1.00  0.00    -0.343 C  
BRANCH  18  19
HETATM   19  C   UNL     1     -11.187  15.826  67.289  1.00  0.00    -0.140 C  
BRANCH  19  20
HETATM   20  C   UNL     1     -10.990  16.350  68.717  1.00  0.00    -0.344 C  
BRANCH  20  21
HETATM   21  C   UNL     1     -11.525  15.353  69.745  1.00  0.00    -0.324 C  
HETATM   22  N   UNL     1     -12.551  14.507  69.144  1.00  0.00    -0.538 NA 
HETATM   23  H1  UNL     1     -12.908  13.842  69.831  1.00  0.00     0.000 HD 
HETATM   24  H2  UNL     1     -12.214  14.041  68.302  1.00  0.00     0.000 HD 
ENDBRANCH  20  21
ENDBRANCH  19  20
ENDBRANCH  18  19
ENDBRANCH  14  18
ENDBRANCH  12  14
ENDBRANCH   2  10
TORSDOF 8
ENDMDL
MODEL      207
REMARK 921   NORMALIZED FREE ENERGY PREDICTED BY IDOCK:   -3.88 KCAL/MOL
REMARK 922        TOTAL FREE ENERGY PREDICTED BY IDOCK:   -6.49 KCAL/MOL
REMARK 923 INTER-LIGAND FREE ENERGY PREDICTED BY IDOCK:   -6.34 KCAL/MOL
REMARK 924 INTRA-LIGAND FREE ENERGY PREDICTED BY IDOCK:   -0.14 KCAL/MOL
REMARK 927      BINDING AFFINITY PREDICTED BY RF-SCORE:    0.00 PKD
ROOT
HETATM    1  C   UNL     1     -12.114  14.009  70.475  1.00  0.00    -0.424 C  
HETATM    2  C   UNL     1     -11.212  12.912  69.911  1.00  0.00     0.164 C  
ENDROOT
BRANCH   2   3
HETATM    3  C   UNL     1     -11.993  11.607  69.623  1.00  0.00    -0.390 C  
BRANCH   3   4
HETATM    4  C   UNL     1     -11.592  10.419  70.475  1.00  0.00    -0.433 A  
HETATM    5  C   UNL     1     -12.530   9.791  71.306  1.00  0.00    -0.461 A  
HETATM    6  C   UNL     1     -10.864   8.195  72.031  1.00  0.00    -0.349 A  
HETATM    7  C   UNL     1     -12.167   8.685  72.081  1.00  0.00    -0.453 A  
HETATM    8  C   UNL     1      -9.925   8.804  71.201  1.00  0.00    -0.317 A  
HETATM    9  C   UNL     1     -10.288   9.906  70.423  1.00  0.00    -0.322 A  
ENDBRANCH   3   4
ENDBRANCH   2   3
BRANCH   2  10
HETATM   10  N   UNL     1     -10.559  13.418  68.707  1.00  0.00    -0.326 N  
HETATM   11  H   UNL     1     -10.732  12.934  67.826  1.00  0.00     0.000 HD 
HETATM   12  C   UNL     1      -9.724  14.514  68.695  1.00  0.00    -0.221 C  
HETATM   13  O   UNL     1      -9.511  15.222  69.675  1.00  0.00    -0.237 OA 
BRANCH  12  14
HETATM   14  C   UNL     1      -9.107  14.801  67.305  1.00  0.00    -0.204 C  
HETATM   15  N   UNL     1      -8.602  13.524  66.731  1.00  0.00    -0.432 NA 
HETATM   16  H2  UNL     1      -9.321  12.801  66.696  1.00  0.00     0.000 HD 
HETATM   17  H1  UNL     1      -8.195  13.712  65.815  1.00  0.00     0.000 HD 
BRANCH  14  18
HETATM   18  C   UNL     1     -10.134  15.405  66.337  1.00  0.00    -0.292 C  
BRANCH  18  19
HETATM   19  C   UNL     1     -10.194  14.661  64.998  1.00  0.00    -0.395 C  
BRANCH  19  20
HETATM   20  C   UNL     1     -11.639  14.477  64.521  1.00  0.00    -0.385 C  
BRANCH  20  21
HETATM   21  C   UNL     1     -12.339  13.370  65.309  1.00  0.00    -0.469 C  
HETATM   22  N   UNL     1     -12.579  13.800  66.682  1.00  0.00    -0.399 NA 
HETATM   23  H1  UNL     1     -13.046  13.061  67.208  1.00  0.00     0.000 HD 
HETATM   24  H2  UNL     1     -13.095  14.679  66.720  1.00  0.00     0.000 HD 
ENDBRANCH  20  21
ENDBRANCH  19  20
ENDBRANCH  18  19
ENDBRANCH  14  18
ENDBRANCH  12  14
ENDBRANCH   2  10
TORSDOF 8
ENDMDL
MODEL      208
REMARK 921   NORMALIZED FREE ENERGY PREDICTED BY IDOCK:   -3.88 KCAL/MOL
REMARK 922        TOTAL FREE ENERGY PREDICTED BY IDOCK:   -6.48 KCAL/MOL
REMARK 923 INTER-LIGAND FREE ENERGY PREDICTED BY IDOCK:   -5.94 KCAL/MOL
REMARK 924 INTRA-LIGAND FREE ENERGY PREDICTED BY IDOCK:   -0.53 KCAL/MOL
REMARK 927      BINDING AFFINITY PREDICTED BY RF-SCORE:    0.00 PKD
ROOT
HETATM    1  C   UNL     1      -7.439  12.330  68.972  1.00  0.00     0.058 C  
HETATM    2  C   UNL     1      -8.535  12.272  67.910  1.00  0.00    -0.165 C  
ENDROOT
BRANCH   2   3
HETATM    3  C   UNL     1      -9.039  10.828  67.671  1.00  0.00    -0.148 C  
BRANCH   3   4
HETATM    4  C   UNL     1      -8.997  10.366  66.228  1.00  0.00    -0.172 A  
HETATM    5  C   UNL     1      -8.163   9.305  65.845  1.00  0.00    -0.116 A  
HETATM    6  C   UNL     1      -8.939   9.480  63.561  1.00  0.00    -0.205 A  
HETATM    7  C   UNL     1      -8.134   8.866  64.517  1.00  0.00    -0.150 A  
HETATM    8  C   UNL     1      -9.781  10.528  63.931  1.00  0.00    -0.384 A  
HETATM    9  C   UNL     1      -9.813  10.964  65.258  1.00  0.00    -0.318 A  
ENDBRANCH   3   4
ENDBRANCH   2   3
BRANCH   2  10
HETATM   10  N   UNL     1      -9.626  13.154  68.317  1.00  0.00    -0.225 N  
HETATM   11  H   UNL     1     -10.175  12.896  69.136  1.00  0.00     0.000 HD 
HETATM   12  C   UNL     1      -9.953  14.318  67.655  1.00  0.00    -0.225 C  
HETATM   13  O   UNL     1      -9.311  14.772  66.712  1.00  0.00    -0.224 OA 
BRANCH  12  14
HETATM   14  C   UNL     1     -11.190  15.034  68.246  1.00  0.00    -0.299 C  
HETATM   15  N   UNL     1     -12.407  14.558  67.533  1.00  0.00    -0.582 NA 
HETATM   16  H2  UNL     1     -12.499  13.542  67.553  1.00  0.00     0.000 HD 
HETATM   17  H1  UNL     1     -13.223  15.030  67.922  1.00  0.00     0.000 HD 
BRANCH  14  18
HETATM   18  C   UNL     1     -11.354  14.747  69.746  1.00  0.00    -0.319 C  
BRANCH  18  19
HETATM   19  C   UNL     1     -12.374  15.674  70.417  1.00  0.00    -0.427 C  
BRANCH  19  20
HETATM   20  C   UNL     1     -12.029  15.918  71.890  1.00  0.00    -0.588 C  
BRANCH  20  21
HETATM   21  C   UNL     1     -13.291  15.938  72.753  1.00  0.00    -0.508 C  
HETATM   22  N   UNL     1     -12.950  16.203  74.145  1.00  0.00    -0.944 NA 
HETATM   23  H1  UNL     1     -13.792  16.216  74.720  1.00  0.00     0.000 HD 
HETATM   24  H2  UNL     1     -12.406  17.061  74.246  1.00  0.00     0.000 HD 
ENDBRANCH  20  21
ENDBRANCH  19  20
ENDBRANCH  18  19
ENDBRANCH  14  18
ENDBRANCH  12  14
ENDBRANCH   2  10
TORSDOF 8
ENDMDL
MODEL      209
REMARK 921   NORMALIZED FREE ENERGY PREDICTED BY IDOCK:   -3.87 KCAL/MOL
REMARK 922        TOTAL FREE ENERGY PREDICTED BY IDOCK:   -6.47 KCAL/MOL
REMARK 923 INTER-LIGAND FREE ENERGY PREDICTED BY IDOCK:   -5.71 KCAL/MOL
REMARK 924 INTRA-LIGAND FREE ENERGY PREDICTED BY IDOCK:   -0.76 KCAL/MOL
REMARK 927      BINDING AFFINITY PREDICTED BY RF-SCORE:    0.00 PKD
ROOT
HETATM    1  C   UNL     1     -13.188  10.783  71.836  1.00  0.00    -0.524 C  
HETATM    2  C   UNL     1     -12.081  10.017  71.113  1.00  0.00    -0.380 C  
ENDROOT
BRANCH   2   3
HETATM    3  C   UNL     1     -12.313   8.487  71.148  1.00  0.00    -0.230 C  
BRANCH   3   4
HETATM    4  C   UNL     1     -11.337   7.711  72.008  1.00  0.00    -0.322 A  
HETATM    5  C   UNL     1     -10.284   8.370  72.660  1.00  0.00    -0.320 A  
HETATM    6  C   UNL     1      -9.541   6.284  73.633  1.00  0.00    -0.168 A  
HETATM    7  C   UNL     1      -9.390   7.659  73.467  1.00  0.00    -0.339 A  
HETATM    8  C   UNL     1     -10.589   5.619  72.999  1.00  0.00    -0.275 A  
HETATM    9  C   UNL     1     -11.485   6.330  72.196  1.00  0.00    -0.354 A  
ENDBRANCH   3   4
ENDBRANCH   2   3
BRANCH   2  10
HETATM   10  N   UNL     1     -11.994  10.510  69.740  1.00  0.00    -0.431 N  
HETATM   11  H   UNL     1     -12.816  10.958  69.336  1.00  0.00     0.000 HD 
HETATM   12  C   UNL     1     -10.862  10.403  68.962  1.00  0.00    -0.234 C  
HETATM   13  O   UNL     1      -9.791   9.962  69.369  1.00  0.00    -0.191 OA 
BRANCH  12  14
HETATM   14  C   UNL     1     -11.052  10.941  67.524  1.00  0.00    -0.310 C  
HETATM   15  N   UNL     1     -12.013  12.078  67.560  1.00  0.00    -0.578 NA 
HETATM   16  H2  UNL     1     -11.728  12.808  68.214  1.00  0.00     0.000 HD 
HETATM   17  H1  UNL     1     -12.139  12.433  66.612  1.00  0.00     0.000 HD 
BRANCH  14  18
HETATM   18  C   UNL     1      -9.730  11.431  66.916  1.00  0.00    -0.213 C  
BRANCH  18  19
HETATM   19  C   UNL     1      -9.143  10.444  65.902  1.00  0.00    -0.192 C  
BRANCH  19  20
HETATM   20  C   UNL     1      -7.711  10.042  66.272  1.00  0.00    -0.105 C  
BRANCH  20  21
HETATM   21  C   UNL     1      -7.072  11.080  67.194  1.00  0.00    -0.104 C  
HETATM   22  N   UNL     1      -5.943  11.721  66.530  1.00  0.00    -0.434 NA 
HETATM   23  H1  UNL     1      -5.516  12.413  67.146  1.00  0.00     0.000 HD 
HETATM   24  H2  UNL     1      -6.210  12.124  65.632  1.00  0.00     0.000 HD 
ENDBRANCH  20  21
ENDBRANCH  19  20
ENDBRANCH  18  19
ENDBRANCH  14  18
ENDBRANCH  12  14
ENDBRANCH   2  10
TORSDOF 8
ENDMDL
MODEL      210
REMARK 921   NORMALIZED FREE ENERGY PREDICTED BY IDOCK:   -3.86 KCAL/MOL
REMARK 922        TOTAL FREE ENERGY PREDICTED BY IDOCK:   -6.46 KCAL/MOL
REMARK 923 INTER-LIGAND FREE ENERGY PREDICTED BY IDOCK:   -6.05 KCAL/MOL
REMARK 924 INTRA-LIGAND FREE ENERGY PREDICTED BY IDOCK:   -0.41 KCAL/MOL
REMARK 927      BINDING AFFINITY PREDICTED BY RF-SCORE:    0.00 PKD
ROOT
HETATM    1  C   UNL     1     -10.030   6.302  66.503  1.00  0.00    -0.172 C  
HETATM    2  C   UNL     1     -10.585   7.512  67.254  1.00  0.00    -0.324 C  
ENDROOT
BRANCH   2   3
HETATM    3  C   UNL     1      -9.932   7.682  68.647  1.00  0.00    -0.181 C  
BRANCH   3   4
HETATM    4  C   UNL     1     -10.903   7.935  69.783  1.00  0.00    -0.202 A  
HETATM    5  C   UNL     1     -11.192   9.245  70.193  1.00  0.00    -0.237 A  
HETATM    6  C   UNL     1     -12.728   8.413  71.866  1.00  0.00    -0.390 A  
HETATM    7  C   UNL     1     -12.099   9.481  71.231  1.00  0.00    -0.443 A  
HETATM    8  C   UNL     1     -12.458   7.108  71.461  1.00  0.00    -0.418 A  
HETATM    9  C   UNL     1     -11.554   6.870  70.421  1.00  0.00    -0.385 A  
ENDBRANCH   3   4
ENDBRANCH   2   3
BRANCH   2  10
HETATM   10  N   UNL     1     -10.393   8.701  66.428  1.00  0.00    -0.358 N  
HETATM   11  H   UNL     1     -11.220   9.183  66.077  1.00  0.00     0.000 HD 
HETATM   12  C   UNL     1      -9.155   9.207  66.096  1.00  0.00    -0.187 C  
HETATM   13  O   UNL     1      -8.095   8.762  66.528  1.00  0.00    -0.101 OA 
BRANCH  12  14
HETATM   14  C   UNL     1      -9.225  10.432  65.153  1.00  0.00    -0.208 C  
HETATM   15  N   UNL     1     -10.135  10.114  64.019  1.00  0.00    -0.474 NA 
HETATM   16  H2  UNL     1     -11.058   9.811  64.332  1.00  0.00     0.000 HD 
HETATM   17  H1  UNL     1     -10.182  10.921  63.398  1.00  0.00     0.000 HD 
BRANCH  14  18
HETATM   18  C   UNL     1      -9.755  11.679  65.875  1.00  0.00    -0.260 C  
BRANCH  18  19
HETATM   19  C   UNL     1     -10.101  12.819  64.911  1.00  0.00    -0.235 C  
BRANCH  19  20
HETATM   20  C   UNL     1     -11.416  13.505  65.299  1.00  0.00    -0.315 C  
BRANCH  20  21
HETATM   21  C   UNL     1     -12.617  12.756  64.721  1.00  0.00    -0.446 C  
HETATM   22  N   UNL     1     -12.319  12.285  63.373  1.00  0.00    -0.714 NA 
HETATM   23  H1  UNL     1     -13.120  11.786  62.988  1.00  0.00     0.000 HD 
HETATM   24  H2  UNL     1     -11.470  11.721  63.346  1.00  0.00     0.000 HD 
ENDBRANCH  20  21
ENDBRANCH  19  20
ENDBRANCH  18  19
ENDBRANCH  14  18
ENDBRANCH  12  14
ENDBRANCH   2  10
TORSDOF 8
ENDMDL
MODEL      211
REMARK 921   NORMALIZED FREE ENERGY PREDICTED BY IDOCK:   -3.85 KCAL/MOL
REMARK 922        TOTAL FREE ENERGY PREDICTED BY IDOCK:   -6.44 KCAL/MOL
REMARK 923 INTER-LIGAND FREE ENERGY PREDICTED BY IDOCK:   -6.07 KCAL/MOL
REMARK 924 INTRA-LIGAND FREE ENERGY PREDICTED BY IDOCK:   -0.37 KCAL/MOL
REMARK 927      BINDING AFFINITY PREDICTED BY RF-SCORE:    0.00 PKD
ROOT
HETATM    1  C   UNL     1      -8.172   7.992  63.583  1.00  0.00    -0.040 C  
HETATM    2  C   UNL     1      -8.120   8.497  65.024  1.00  0.00    -0.148 C  
ENDROOT
BRANCH   2   3
HETATM    3  C   UNL     1      -7.990  10.038  65.096  1.00  0.00    -0.145 C  
BRANCH   3   4
HETATM    4  C   UNL     1      -9.298  10.796  65.007  1.00  0.00    -0.261 A  
HETATM    5  C   UNL     1      -9.798  11.208  63.762  1.00  0.00    -0.374 A  
HETATM    6  C   UNL     1     -11.742  12.174  64.829  1.00  0.00    -0.390 A  
HETATM    7  C   UNL     1     -11.013  11.895  63.675  1.00  0.00    -0.511 A  
HETATM    8  C   UNL     1     -11.262  11.761  66.070  1.00  0.00    -0.352 A  
HETATM    9  C   UNL     1     -10.050  11.071  66.158  1.00  0.00    -0.286 A  
ENDBRANCH   3   4
ENDBRANCH   2   3
BRANCH   2  10
HETATM   10  N   UNL     1      -9.315   8.032  65.724  1.00  0.00    -0.413 N  
HETATM   11  H   UNL     1     -10.224   8.213  65.299  1.00  0.00     0.000 HD 
HETATM   12  C   UNL     1      -9.281   7.361  66.927  1.00  0.00    -0.152 C  
HETATM   13  O   UNL     1      -8.246   7.014  67.488  1.00  0.00    -0.115 OA 
BRANCH  12  14
HETATM   14  C   UNL     1     -10.686   7.040  67.491  1.00  0.00    -0.281 C  
HETATM   15  N   UNL     1     -11.366   6.086  66.571  1.00  0.00    -0.694 NA 
HETATM   16  H2  UNL     1     -10.812   5.246  66.403  1.00  0.00     0.000 HD 
HETATM   17  H1  UNL     1     -12.291   5.875  66.942  1.00  0.00     0.000 HD 
BRANCH  14  18
HETATM   18  C   UNL     1     -10.611   6.409  68.889  1.00  0.00    -0.298 C  
BRANCH  18  19
HETATM   19  C   UNL     1     -11.053   7.372  69.996  1.00  0.00    -0.238 C  
BRANCH  19  20
HETATM   20  C   UNL     1     -12.126   6.744  70.893  1.00  0.00    -0.421 C  
BRANCH  20  21
HETATM   21  C   UNL     1     -12.950   7.822  71.597  1.00  0.00    -0.345 C  
HETATM   22  N   UNL     1     -14.295   7.330  71.875  1.00  0.00    -0.606 NA 
HETATM   23  H1  UNL     1     -14.845   8.049  72.344  1.00  0.00     0.000 HD 
HETATM   24  H2  UNL     1     -14.279   6.458  72.404  1.00  0.00     0.000 HD 
ENDBRANCH  20  21
ENDBRANCH  19  20
ENDBRANCH  18  19
ENDBRANCH  14  18
ENDBRANCH  12  14
ENDBRANCH   2  10
TORSDOF 8
ENDMDL
MODEL      212
REMARK 921   NORMALIZED FREE ENERGY PREDICTED BY IDOCK:   -3.84 KCAL/MOL
REMARK 922        TOTAL FREE ENERGY PREDICTED BY IDOCK:   -6.43 KCAL/MOL
REMARK 923 INTER-LIGAND FREE ENERGY PREDICTED BY IDOCK:   -6.50 KCAL/MOL
REMARK 924 INTRA-LIGAND FREE ENERGY PREDICTED BY IDOCK:    0.06 KCAL/MOL
REMARK 927      BINDING AFFINITY PREDICTED BY RF-SCORE:    0.00 PKD
ROOT
HETATM    1  C   UNL     1     -10.737  10.234  67.848  1.00  0.00    -0.310 C  
HETATM    2  C   UNL     1     -11.814  11.138  68.446  1.00  0.00    -0.232 C  
ENDROOT
BRANCH   2   3
HETATM    3  C   UNL     1     -11.559  11.434  69.944  1.00  0.00    -0.402 C  
BRANCH   3   4
HETATM    4  C   UNL     1     -11.685  10.237  70.864  1.00  0.00    -0.472 A  
HETATM    5  C   UNL     1     -10.548   9.511  71.246  1.00  0.00    -0.358 A  
HETATM    6  C   UNL     1     -11.907   8.035  72.597  1.00  0.00    -0.380 A  
HETATM    7  C   UNL     1     -10.659   8.415  72.107  1.00  0.00    -0.400 A  
HETATM    8  C   UNL     1     -13.043   8.755  72.234  1.00  0.00    -0.458 A  
HETATM    9  C   UNL     1     -12.932   9.853  71.376  1.00  0.00    -0.504 A  
ENDBRANCH   3   4
ENDBRANCH   2   3
BRANCH   2  10
HETATM   10  N   UNL     1     -11.876  12.370  67.663  1.00  0.00    -0.347 N  
HETATM   11  H   UNL     1     -12.779  12.659  67.289  1.00  0.00     0.000 HD 
HETATM   12  C   UNL     1     -10.779  13.163  67.402  1.00  0.00    -0.253 C  
HETATM   13  O   UNL     1      -9.662  12.961  67.869  1.00  0.00    -0.204 OA 
BRANCH  12  14
HETATM   14  C   UNL     1     -11.100  14.373  66.492  1.00  0.00    -0.331 C  
HETATM   15  N   UNL     1     -12.373  14.106  65.769  1.00  0.00    -0.458 NA 
HETATM   16  H2  UNL     1     -13.141  13.880  66.401  1.00  0.00     0.000 HD 
HETATM   17  H1  UNL     1     -12.585  14.903  65.169  1.00  0.00     0.000 HD 
BRANCH  14  18
HETATM   18  C   UNL     1     -11.254  15.670  67.299  1.00  0.00    -0.184 C  
BRANCH  18  19
HETATM   19  C   UNL     1     -10.141  16.682  67.010  1.00  0.00    -0.281 C  
BRANCH  19  20
HETATM   20  C   UNL     1      -8.802  16.233  67.607  1.00  0.00    -0.195 C  
BRANCH  20  21
HETATM   21  C   UNL     1      -7.644  17.046  67.030  1.00  0.00    -0.189 C  
HETATM   22  N   UNL     1      -8.040  17.669  65.772  1.00  0.00    -0.538 NA 
HETATM   23  H1  UNL     1      -7.267  18.211  65.386  1.00  0.00     0.000 HD 
HETATM   24  H2  UNL     1      -8.885  18.231  65.875  1.00  0.00     0.000 HD 
ENDBRANCH  20  21
ENDBRANCH  19  20
ENDBRANCH  18  19
ENDBRANCH  14  18
ENDBRANCH  12  14
ENDBRANCH   2  10
TORSDOF 8
ENDMDL
MODEL      213
REMARK 921   NORMALIZED FREE ENERGY PREDICTED BY IDOCK:   -3.84 KCAL/MOL
REMARK 922        TOTAL FREE ENERGY PREDICTED BY IDOCK:   -6.42 KCAL/MOL
REMARK 923 INTER-LIGAND FREE ENERGY PREDICTED BY IDOCK:   -6.12 KCAL/MOL
REMARK 924 INTRA-LIGAND FREE ENERGY PREDICTED BY IDOCK:   -0.30 KCAL/MOL
REMARK 927      BINDING AFFINITY PREDICTED BY RF-SCORE:    0.00 PKD
ROOT
HETATM    1  C   UNL     1     -11.843  12.238  67.579  1.00  0.00    -0.331 C  
HETATM    2  C   UNL     1     -11.404  12.075  69.034  1.00  0.00    -0.275 C  
ENDROOT
BRANCH   2   3
HETATM    3  C   UNL     1     -10.358  10.946  69.203  1.00  0.00    -0.228 C  
BRANCH   3   4
HETATM    4  C   UNL     1     -10.678   9.935  70.286  1.00  0.00    -0.367 A  
HETATM    5  C   UNL     1     -11.991   9.475  70.465  1.00  0.00    -0.197 A  
HETATM    6  C   UNL     1     -11.273   8.034  72.269  1.00  0.00    -0.402 A  
HETATM    7  C   UNL     1     -12.286   8.531  71.453  1.00  0.00    -0.343 A  
HETATM    8  C   UNL     1      -9.962   8.475  72.095  1.00  0.00    -0.387 A  
HETATM    9  C   UNL     1      -9.666   9.416  71.105  1.00  0.00    -0.257 A  
ENDBRANCH   3   4
ENDBRANCH   2   3
BRANCH   2  10
HETATM   10  N   UNL     1     -10.887  13.355  69.510  1.00  0.00    -0.449 N  
HETATM   11  H   UNL     1      -9.980  13.365  69.977  1.00  0.00     0.000 HD 
HETATM   12  C   UNL     1     -11.557  14.550  69.365  1.00  0.00    -0.303 C  
HETATM   13  O   UNL     1     -12.611  14.672  68.748  1.00  0.00     0.052 OA 
BRANCH  12  14
HETATM   14  C   UNL     1     -10.826  15.747  70.017  1.00  0.00    -0.342 C  
HETATM   15  N   UNL     1     -10.668  16.825  69.003  1.00  0.00    -0.336 NA 
HETATM   16  H2  UNL     1     -11.557  17.095  68.580  1.00  0.00     0.000 HD 
HETATM   17  H1  UNL     1     -10.186  17.614  69.432  1.00  0.00     0.000 HD 
BRANCH  14  18
HETATM   18  C   UNL     1     -11.604  16.309  71.216  1.00  0.00    -0.402 C  
BRANCH  18  19
HETATM   19  C   UNL     1     -12.069  15.215  72.184  1.00  0.00    -0.472 C  
BRANCH  19  20
HETATM   20  C   UNL     1     -13.540  15.395  72.574  1.00  0.00    -0.634 C  
BRANCH  20  21
HETATM   21  C   UNL     1     -14.317  14.090  72.401  1.00  0.00    -0.306 C  
HETATM   22  N   UNL     1     -13.611  13.198  71.488  1.00  0.00    -0.140 NA 
HETATM   23  H1  UNL     1     -14.129  12.327  71.372  1.00  0.00     0.000 HD 
HETATM   24  H2  UNL     1     -12.650  13.032  71.786  1.00  0.00     0.000 HD 
ENDBRANCH  20  21
ENDBRANCH  19  20
ENDBRANCH  18  19
ENDBRANCH  14  18
ENDBRANCH  12  14
ENDBRANCH   2  10
TORSDOF 8
ENDMDL
MODEL      214
REMARK 921   NORMALIZED FREE ENERGY PREDICTED BY IDOCK:   -3.84 KCAL/MOL
REMARK 922        TOTAL FREE ENERGY PREDICTED BY IDOCK:   -6.42 KCAL/MOL
REMARK 923 INTER-LIGAND FREE ENERGY PREDICTED BY IDOCK:   -6.09 KCAL/MOL
REMARK 924 INTRA-LIGAND FREE ENERGY PREDICTED BY IDOCK:   -0.33 KCAL/MOL
REMARK 927      BINDING AFFINITY PREDICTED BY RF-SCORE:    0.00 PKD
ROOT
HETATM    1  C   UNL     1      -8.257  11.232  67.206  1.00  0.00    -0.140 C  
HETATM    2  C   UNL     1      -9.478  11.302  66.290  1.00  0.00    -0.204 C  
ENDROOT
BRANCH   2   3
HETATM    3  C   UNL     1     -10.778  10.886  67.020  1.00  0.00    -0.323 C  
BRANCH   3   4
HETATM    4  C   UNL     1     -10.720   9.539  67.714  1.00  0.00    -0.302 A  
HETATM    5  C   UNL     1     -10.638   8.356  66.965  1.00  0.00    -0.316 A  
HETATM    6  C   UNL     1     -10.578   7.041  68.993  1.00  0.00    -0.234 A  
HETATM    7  C   UNL     1     -10.569   7.114  67.602  1.00  0.00    -0.318 A  
HETATM    8  C   UNL     1     -10.648   8.209  69.749  1.00  0.00    -0.231 A  
HETATM    9  C   UNL     1     -10.713   9.452  69.113  1.00  0.00    -0.216 A  
ENDBRANCH   3   4
ENDBRANCH   2   3
BRANCH   2  10
HETATM   10  N   UNL     1      -9.580  12.656  65.753  1.00  0.00    -0.428 N  
HETATM   11  H   UNL     1      -8.921  13.358  66.087  1.00  0.00     0.000 HD 
HETATM   12  C   UNL     1     -10.520  13.037  64.819  1.00  0.00    -0.363 C  
HETATM   13  O   UNL     1     -11.306  12.262  64.284  1.00  0.00    -0.313 OA 
BRANCH  12  14
HETATM   14  C   UNL     1     -10.459  14.543  64.468  1.00  0.00    -0.028 C  
HETATM   15  N   UNL     1     -11.829  15.011  64.120  1.00  0.00    -0.794 NA 
HETATM   16  H2  UNL     1     -12.507  14.810  64.855  1.00  0.00     0.000 HD 
HETATM   17  H1  UNL     1     -11.789  16.003  63.888  1.00  0.00     0.000 HD 
BRANCH  14  18
HETATM   18  C   UNL     1      -9.933  15.384  65.640  1.00  0.00    -0.396 C  
BRANCH  18  19
HETATM   19  C   UNL     1     -10.563  16.780  65.696  1.00  0.00    -0.258 C  
BRANCH  19  20
HETATM   20  C   UNL     1     -10.480  17.379  67.105  1.00  0.00    -0.305 C  
BRANCH  20  21
HETATM   21  C   UNL     1     -10.649  18.898  67.064  1.00  0.00    -0.438 C  
HETATM   22  N   UNL     1     -10.228  19.420  65.769  1.00  0.00    -0.482 NA 
HETATM   23  H1  UNL     1     -10.340  20.434  65.742  1.00  0.00     0.000 HD 
HETATM   24  H2  UNL     1     -10.715  18.963  64.998  1.00  0.00     0.000 HD 
ENDBRANCH  20  21
ENDBRANCH  19  20
ENDBRANCH  18  19
ENDBRANCH  14  18
ENDBRANCH  12  14
ENDBRANCH   2  10
TORSDOF 8
ENDMDL
MODEL      215
REMARK 921   NORMALIZED FREE ENERGY PREDICTED BY IDOCK:   -3.83 KCAL/MOL
REMARK 922        TOTAL FREE ENERGY PREDICTED BY IDOCK:   -6.42 KCAL/MOL
REMARK 923 INTER-LIGAND FREE ENERGY PREDICTED BY IDOCK:   -5.92 KCAL/MOL
REMARK 924 INTRA-LIGAND FREE ENERGY PREDICTED BY IDOCK:   -0.50 KCAL/MOL
REMARK 927      BINDING AFFINITY PREDICTED BY RF-SCORE:    0.00 PKD
ROOT
HETATM    1  C   UNL     1     -12.361  12.070  70.522  1.00  0.00    -0.369 C  
HETATM    2  C   UNL     1     -11.886  12.431  69.115  1.00  0.00    -0.300 C  
ENDROOT
BRANCH   2   3
HETATM    3  C   UNL     1     -12.077  13.936  68.805  1.00  0.00    -0.344 C  
BRANCH   3   4
HETATM    4  C   UNL     1     -11.742  14.344  67.385  1.00  0.00    -0.424 A  
HETATM    5  C   UNL     1     -12.416  13.764  66.300  1.00  0.00    -0.441 A  
HETATM    6  C   UNL     1     -11.150  15.120  64.749  1.00  0.00    -0.395 A  
HETATM    7  C   UNL     1     -12.120  14.150  64.989  1.00  0.00    -0.428 A  
HETATM    8  C   UNL     1     -10.480  15.711  65.818  1.00  0.00    -0.383 A  
HETATM    9  C   UNL     1     -10.778  15.329  67.129  1.00  0.00    -0.316 A  
ENDBRANCH   3   4
ENDBRANCH   2   3
BRANCH   2  10
HETATM   10  N   UNL     1     -10.487  12.033  68.979  1.00  0.00    -0.405 N  
HETATM   11  H   UNL     1      -9.787  12.765  68.861  1.00  0.00     0.000 HD 
HETATM   12  C   UNL     1     -10.062  10.723  69.002  1.00  0.00    -0.211 C  
HETATM   13  O   UNL     1     -10.800   9.767  69.223  1.00  0.00    -0.219 OA 
BRANCH  12  14
HETATM   14  C   UNL     1      -8.540  10.568  68.768  1.00  0.00    -0.146 C  
HETATM   15  N   UNL     1      -8.007   9.560  69.725  1.00  0.00    -0.115 NA 
HETATM   16  H2  UNL     1      -8.502   8.669  69.669  1.00  0.00     0.000 HD 
HETATM   17  H1  UNL     1      -7.004   9.457  69.571  1.00  0.00     0.000 HD 
BRANCH  14  18
HETATM   18  C   UNL     1      -8.226  10.105  67.338  1.00  0.00    -0.114 C  
BRANCH  18  19
HETATM   19  C   UNL     1      -8.136   8.580  67.216  1.00  0.00    -0.105 C  
BRANCH  19  20
HETATM   20  C   UNL     1      -9.325   8.006  66.438  1.00  0.00    -0.259 C  
BRANCH  20  21
HETATM   21  C   UNL     1      -9.922   6.799  67.162  1.00  0.00    -0.167 C  
HETATM   22  N   UNL     1     -11.376   6.806  67.045  1.00  0.00    -0.778 NA 
HETATM   23  H1  UNL     1     -11.774   6.001  67.529  1.00  0.00     0.000 HD 
HETATM   24  H2  UNL     1     -11.678   6.853  66.072  1.00  0.00     0.000 HD 
ENDBRANCH  20  21
ENDBRANCH  19  20
ENDBRANCH  18  19
ENDBRANCH  14  18
ENDBRANCH  12  14
ENDBRANCH   2  10
TORSDOF 8
ENDMDL
MODEL      216
REMARK 921   NORMALIZED FREE ENERGY PREDICTED BY IDOCK:   -3.82 KCAL/MOL
REMARK 922        TOTAL FREE ENERGY PREDICTED BY IDOCK:   -6.40 KCAL/MOL
REMARK 923 INTER-LIGAND FREE ENERGY PREDICTED BY IDOCK:   -6.17 KCAL/MOL
REMARK 924 INTRA-LIGAND FREE ENERGY PREDICTED BY IDOCK:   -0.23 KCAL/MOL
REMARK 927      BINDING AFFINITY PREDICTED BY RF-SCORE:    0.00 PKD
ROOT
HETATM    1  C   UNL     1     -11.916  14.009  69.226  1.00  0.00    -0.396 C  
HETATM    2  C   UNL     1     -11.227  14.275  67.888  1.00  0.00    -0.285 C  
ENDROOT
BRANCH   2   3
HETATM    3  C   UNL     1     -12.201  14.139  66.694  1.00  0.00    -0.450 C  
BRANCH   3   4
HETATM    4  C   UNL     1     -11.757  13.176  65.612  1.00  0.00    -0.402 A  
HETATM    5  C   UNL     1     -10.653  12.335  65.817  1.00  0.00    -0.289 A  
HETATM    6  C   UNL     1     -10.946  11.363  63.622  1.00  0.00    -0.443 A  
HETATM    7  C   UNL     1     -10.250  11.435  64.827  1.00  0.00    -0.338 A  
HETATM    8  C   UNL     1     -12.050  12.186  63.409  1.00  0.00    -0.608 A  
HETATM    9  C   UNL     1     -12.457  13.083  64.401  1.00  0.00    -0.406 A  
ENDBRANCH   3   4
ENDBRANCH   2   3
BRANCH   2  10
HETATM   10  N   UNL     1     -10.622  15.605  67.933  1.00  0.00    -0.271 N  
HETATM   11  H   UNL     1     -10.743  16.161  68.779  1.00  0.00     0.000 HD 
HETATM   12  C   UNL     1      -9.899  16.148  66.893  1.00  0.00    -0.241 C  
HETATM   13  O   UNL     1      -9.618  15.541  65.864  1.00  0.00    -0.316 OA 
BRANCH  12  14
HETATM   14  C   UNL     1      -9.426  17.596  67.166  1.00  0.00    -0.267 C  
HETATM   15  N   UNL     1      -9.042  17.714  68.600  1.00  0.00    -0.281 NA 
HETATM   16  H2  UNL     1      -8.347  17.019  68.875  1.00  0.00     0.000 HD 
HETATM   17  H1  UNL     1      -8.730  18.668  68.780  1.00  0.00     0.000 HD 
BRANCH  14  18
HETATM   18  C   UNL     1      -8.218  17.977  66.299  1.00  0.00    -0.242 C  
BRANCH  18  19
HETATM   19  C   UNL     1      -6.947  17.214  66.688  1.00  0.00    -0.285 C  
BRANCH  19  20
HETATM   20  C   UNL     1      -5.914  18.137  67.344  1.00  0.00    -0.159 C  
BRANCH  20  21
HETATM   21  C   UNL     1      -6.353  19.599  67.255  1.00  0.00    -0.189 C  
HETATM   22  N   UNL     1      -6.828  20.065  68.553  1.00  0.00    -0.306 NA 
HETATM   23  H1  UNL     1      -7.121  21.040  68.493  1.00  0.00     0.000 HD 
HETATM   24  H2  UNL     1      -6.135  19.920  69.286  1.00  0.00     0.000 HD 
ENDBRANCH  20  21
ENDBRANCH  19  20
ENDBRANCH  18  19
ENDBRANCH  14  18
ENDBRANCH  12  14
ENDBRANCH   2  10
TORSDOF 8
ENDMDL
MODEL      217
REMARK 921   NORMALIZED FREE ENERGY PREDICTED BY IDOCK:   -3.82 KCAL/MOL
REMARK 922        TOTAL FREE ENERGY PREDICTED BY IDOCK:   -6.40 KCAL/MOL
REMARK 923 INTER-LIGAND FREE ENERGY PREDICTED BY IDOCK:   -6.04 KCAL/MOL
REMARK 924 INTRA-LIGAND FREE ENERGY PREDICTED BY IDOCK:   -0.36 KCAL/MOL
REMARK 927      BINDING AFFINITY PREDICTED BY RF-SCORE:    0.00 PKD
ROOT
HETATM    1  C   UNL     1     -10.502   8.963  71.754  1.00  0.00    -0.431 C  
HETATM    2  C   UNL     1     -11.743   8.219  71.260  1.00  0.00    -0.283 C  
ENDROOT
BRANCH   2   3
HETATM    3  C   UNL     1     -13.008   9.110  71.294  1.00  0.00    -0.307 C  
BRANCH   3   4
HETATM    4  C   UNL     1     -12.763  10.580  71.019  1.00  0.00    -0.504 A  
HETATM    5  C   UNL     1     -13.196  11.556  71.929  1.00  0.00    -0.479 A  
HETATM    6  C   UNL     1     -12.282  13.307  70.534  1.00  0.00    -0.416 A  
HETATM    7  C   UNL     1     -12.958  12.912  71.686  1.00  0.00    -0.410 A  
HETATM    8  C   UNL     1     -11.837  12.348  69.627  1.00  0.00    -0.380 A  
HETATM    9  C   UNL     1     -12.071  10.992  69.871  1.00  0.00    -0.435 A  
ENDBRANCH   3   4
ENDBRANCH   2   3
BRANCH   2  10
HETATM   10  N   UNL     1     -11.480   7.719  69.913  1.00  0.00    -0.462 N  
HETATM   11  H   UNL     1     -11.644   8.346  69.125  1.00  0.00     0.000 HD 
HETATM   12  C   UNL     1     -11.023   6.447  69.647  1.00  0.00    -0.358 C  
HETATM   13  O   UNL     1     -10.711   5.637  70.515  1.00  0.00    -0.278 OA 
BRANCH  12  14
HETATM   14  C   UNL     1     -10.893   6.144  68.135  1.00  0.00    -0.306 C  
HETATM   15  N   UNL     1     -11.276   7.361  67.367  1.00  0.00    -0.510 NA 
HETATM   16  H2  UNL     1     -10.741   8.183  67.647  1.00  0.00     0.000 HD 
HETATM   17  H1  UNL     1     -11.190   7.162  66.371  1.00  0.00     0.000 HD 
BRANCH  14  18
HETATM   18  C   UNL     1      -9.459   5.751  67.752  1.00  0.00    -0.116 C  
BRANCH  18  19
HETATM   19  C   UNL     1      -8.810   6.748  66.785  1.00  0.00    -0.127 C  
BRANCH  19  20
HETATM   20  C   UNL     1      -7.659   7.510  67.451  1.00  0.00    -0.109 C  
BRANCH  20  21
HETATM   21  C   UNL     1      -7.291   6.882  68.795  1.00  0.00    -0.094 C  
HETATM   22  N   UNL     1      -6.630   7.862  69.648  1.00  0.00    -0.037 NA 
HETATM   23  H1  UNL     1      -6.384   7.443  70.545  1.00  0.00     0.000 HD 
HETATM   24  H2  UNL     1      -7.192   8.705  69.764  1.00  0.00     0.000 HD 
ENDBRANCH  20  21
ENDBRANCH  19  20
ENDBRANCH  18  19
ENDBRANCH  14  18
ENDBRANCH  12  14
ENDBRANCH   2  10
TORSDOF 8
ENDMDL
MODEL      218
REMARK 921   NORMALIZED FREE ENERGY PREDICTED BY IDOCK:   -3.82 KCAL/MOL
REMARK 922        TOTAL FREE ENERGY PREDICTED BY IDOCK:   -6.39 KCAL/MOL
REMARK 923 INTER-LIGAND FREE ENERGY PREDICTED BY IDOCK:   -6.31 KCAL/MOL
REMARK 924 INTRA-LIGAND FREE ENERGY PREDICTED BY IDOCK:   -0.08 KCAL/MOL
REMARK 927      BINDING AFFINITY PREDICTED BY RF-SCORE:    0.00 PKD
ROOT
HETATM    1  C   UNL     1     -10.660  17.913  67.554  1.00  0.00    -0.386 C  
HETATM    2  C   UNL     1      -9.695  17.507  66.441  1.00  0.00    -0.288 C  
ENDROOT
BRANCH   2   3
HETATM    3  C   UNL     1      -8.249  17.324  66.962  1.00  0.00    -0.233 C  
BRANCH   3   4
HETATM    4  C   UNL     1      -7.548  18.604  67.369  1.00  0.00    -0.235 A  
HETATM    5  C   UNL     1      -6.867  18.685  68.592  1.00  0.00    -0.294 A  
HETATM    6  C   UNL     1      -6.216  20.964  68.115  1.00  0.00    -0.374 A  
HETATM    7  C   UNL     1      -6.206  19.859  68.963  1.00  0.00    -0.333 A  
HETATM    8  C   UNL     1      -6.880  20.894  66.892  1.00  0.00    -0.375 A  
HETATM    9  C   UNL     1      -7.537  19.719  66.519  1.00  0.00    -0.295 A  
ENDBRANCH   3   4
ENDBRANCH   2   3
BRANCH   2  10
HETATM   10  N   UNL     1     -10.194  16.285  65.815  1.00  0.00    -0.364 N  
HETATM   11  H   UNL     1     -10.378  16.298  64.812  1.00  0.00     0.000 HD 
HETATM   12  C   UNL     1     -10.429  15.116  66.506  1.00  0.00    -0.291 C  
HETATM   13  O   UNL     1     -10.165  14.958  67.694  1.00  0.00    -0.234 OA 
BRANCH  12  14
HETATM   14  C   UNL     1     -11.021  13.991  65.624  1.00  0.00    -0.300 C  
HETATM   15  N   UNL     1     -10.239  13.910  64.360  1.00  0.00    -0.732 NA 
HETATM   16  H2  UNL     1      -9.240  13.788  64.527  1.00  0.00     0.000 HD 
HETATM   17  H1  UNL     1     -10.629  13.168  63.778  1.00  0.00     0.000 HD 
BRANCH  14  18
HETATM   18  C   UNL     1     -10.968  12.626  66.325  1.00  0.00    -0.314 C  
BRANCH  18  19
HETATM   19  C   UNL     1      -9.635  11.901  66.109  1.00  0.00    -0.250 C  
BRANCH  19  20
HETATM   20  C   UNL     1      -9.849  10.461  65.630  1.00  0.00    -0.321 C  
BRANCH  20  21
HETATM   21  C   UNL     1      -9.662  10.354  64.117  1.00  0.00    -0.324 C  
HETATM   22  N   UNL     1      -9.094   9.057  63.767  1.00  0.00    -0.368 NA 
HETATM   23  H1  UNL     1      -8.968   8.986  62.758  1.00  0.00     0.000 HD 
HETATM   24  H2  UNL     1      -9.649   8.286  64.137  1.00  0.00     0.000 HD 
ENDBRANCH  20  21
ENDBRANCH  19  20
ENDBRANCH  18  19
ENDBRANCH  14  18
ENDBRANCH  12  14
ENDBRANCH   2  10
TORSDOF 8
ENDMDL
MODEL      219
REMARK 921   NORMALIZED FREE ENERGY PREDICTED BY IDOCK:   -3.81 KCAL/MOL
REMARK 922        TOTAL FREE ENERGY PREDICTED BY IDOCK:   -6.39 KCAL/MOL
REMARK 923 INTER-LIGAND FREE ENERGY PREDICTED BY IDOCK:   -6.46 KCAL/MOL
REMARK 924 INTRA-LIGAND FREE ENERGY PREDICTED BY IDOCK:    0.07 KCAL/MOL
REMARK 927      BINDING AFFINITY PREDICTED BY RF-SCORE:    0.00 PKD
ROOT
HETATM    1  C   UNL     1      -9.840  14.651  68.684  1.00  0.00    -0.224 C  
HETATM    2  C   UNL     1     -10.470  13.270  68.502  1.00  0.00    -0.250 C  
ENDROOT
BRANCH   2   3
HETATM    3  C   UNL     1     -11.748  13.096  69.357  1.00  0.00    -0.386 C  
BRANCH   3   4
HETATM    4  C   UNL     1     -11.827  11.797  70.133  1.00  0.00    -0.408 A  
HETATM    5  C   UNL     1     -10.975  10.728  69.819  1.00  0.00    -0.314 A  
HETATM    6  C   UNL     1     -11.945   9.396  71.590  1.00  0.00    -0.465 A  
HETATM    7  C   UNL     1     -11.036   9.533  70.543  1.00  0.00    -0.348 A  
HETATM    8  C   UNL     1     -12.789  10.454  71.919  1.00  0.00    -0.519 A  
HETATM    9  C   UNL     1     -12.727  11.650  71.198  1.00  0.00    -0.426 A  
ENDBRANCH   3   4
ENDBRANCH   2   3
BRANCH   2  10
HETATM   10  N   UNL     1     -10.748  13.068  67.082  1.00  0.00    -0.253 N  
HETATM   11  H   UNL     1     -10.055  12.574  66.521  1.00  0.00     0.000 HD 
HETATM   12  C   UNL     1     -11.895  13.510  66.460  1.00  0.00    -0.399 C  
HETATM   13  O   UNL     1     -12.833  14.039  67.049  1.00  0.00     0.130 OA 
BRANCH  12  14
HETATM   14  C   UNL     1     -11.914  13.230  64.938  1.00  0.00    -0.378 C  
HETATM   15  N   UNL     1     -10.941  14.139  64.271  1.00  0.00    -0.593 NA 
HETATM   16  H2  UNL     1     -10.005  14.067  64.668  1.00  0.00     0.000 HD 
HETATM   17  H1  UNL     1     -10.954  13.955  63.268  1.00  0.00     0.000 HD 
BRANCH  14  18
HETATM   18  C   UNL     1     -11.531  11.778  64.618  1.00  0.00    -0.303 C  
BRANCH  18  19
HETATM   19  C   UNL     1     -10.429  11.677  63.558  1.00  0.00    -0.498 C  
BRANCH  19  20
HETATM   20  C   UNL     1      -9.604  10.395  63.724  1.00  0.00    -0.366 C  
BRANCH  20  21
HETATM   21  C   UNL     1      -8.897  10.026  62.419  1.00  0.00    -0.246 C  
HETATM   22  N   UNL     1      -8.362   8.672  62.498  1.00  0.00    -0.211 NA 
HETATM   23  H1  UNL     1      -7.890   8.426  61.628  1.00  0.00     0.000 HD 
HETATM   24  H2  UNL     1      -9.082   7.993  62.745  1.00  0.00     0.000 HD 
ENDBRANCH  20  21
ENDBRANCH  19  20
ENDBRANCH  18  19
ENDBRANCH  14  18
ENDBRANCH  12  14
ENDBRANCH   2  10
TORSDOF 8
ENDMDL
MODEL      220
REMARK 921   NORMALIZED FREE ENERGY PREDICTED BY IDOCK:   -3.81 KCAL/MOL
REMARK 922        TOTAL FREE ENERGY PREDICTED BY IDOCK:   -6.38 KCAL/MOL
REMARK 923 INTER-LIGAND FREE ENERGY PREDICTED BY IDOCK:   -5.67 KCAL/MOL
REMARK 924 INTRA-LIGAND FREE ENERGY PREDICTED BY IDOCK:   -0.71 KCAL/MOL
REMARK 927      BINDING AFFINITY PREDICTED BY RF-SCORE:    0.00 PKD
ROOT
HETATM    1  C   UNL     1     -12.065  14.555  68.508  1.00  0.00    -0.257 C  
HETATM    2  C   UNL     1     -10.871  15.327  67.947  1.00  0.00    -0.288 C  
ENDROOT
BRANCH   2   3
HETATM    3  C   UNL     1     -10.566  16.603  68.766  1.00  0.00    -0.340 C  
BRANCH   3   4
HETATM    4  C   UNL     1      -9.967  17.746  67.972  1.00  0.00    -0.333 A  
HETATM    5  C   UNL     1      -8.578  17.935  67.933  1.00  0.00    -0.252 A  
HETATM    6  C   UNL     1      -8.847  19.844  66.473  1.00  0.00    -0.432 A  
HETATM    7  C   UNL     1      -8.022  18.979  67.188  1.00  0.00    -0.271 A  
HETATM    8  C   UNL     1     -10.228  19.661  66.494  1.00  0.00    -0.588 A  
HETATM    9  C   UNL     1     -10.785  18.615  67.235  1.00  0.00    -0.449 A  
ENDBRANCH   3   4
ENDBRANCH   2   3
BRANCH   2  10
HETATM   10  N   UNL     1      -9.717  14.432  67.905  1.00  0.00    -0.219 N  
HETATM   11  H   UNL     1      -9.162  14.321  68.753  1.00  0.00     0.000 HD 
HETATM   12  C   UNL     1      -9.336  13.731  66.781  1.00  0.00    -0.266 C  
HETATM   13  O   UNL     1      -9.974  13.720  65.732  1.00  0.00    -0.298 OA 
BRANCH  12  14
HETATM   14  C   UNL     1      -8.040  12.909  66.980  1.00  0.00    -0.049 C  
HETATM   15  N   UNL     1      -6.912  13.846  67.238  1.00  0.00    -0.401 NA 
HETATM   16  H2  UNL     1      -7.099  14.475  68.019  1.00  0.00     0.000 HD 
HETATM   17  H1  UNL     1      -6.058  13.305  67.369  1.00  0.00     0.000 HD 
BRANCH  14  18
HETATM   18  C   UNL     1      -8.155  11.939  68.165  1.00  0.00    -0.155 C  
BRANCH  18  19
HETATM   19  C   UNL     1      -9.165  10.814  67.912  1.00  0.00    -0.151 C  
BRANCH  19  20
HETATM   20  C   UNL     1      -9.827  10.349  69.214  1.00  0.00    -0.243 C  
BRANCH  20  21
HETATM   21  C   UNL     1     -11.100  11.148  69.497  1.00  0.00    -0.252 C  
HETATM   22  N   UNL     1     -12.106  10.294  70.117  1.00  0.00    -0.428 NA 
HETATM   23  H1  UNL     1     -12.956  10.827  70.305  1.00  0.00     0.000 HD 
HETATM   24  H2  UNL     1     -11.751   9.835  70.956  1.00  0.00     0.000 HD 
ENDBRANCH  20  21
ENDBRANCH  19  20
ENDBRANCH  18  19
ENDBRANCH  14  18
ENDBRANCH  12  14
ENDBRANCH   2  10
TORSDOF 8
ENDMDL
MODEL      221
REMARK 921   NORMALIZED FREE ENERGY PREDICTED BY IDOCK:   -3.80 KCAL/MOL
REMARK 922        TOTAL FREE ENERGY PREDICTED BY IDOCK:   -6.37 KCAL/MOL
REMARK 923 INTER-LIGAND FREE ENERGY PREDICTED BY IDOCK:   -5.84 KCAL/MOL
REMARK 924 INTRA-LIGAND FREE ENERGY PREDICTED BY IDOCK:   -0.52 KCAL/MOL
REMARK 927      BINDING AFFINITY PREDICTED BY RF-SCORE:    0.00 PKD
ROOT
HETATM    1  C   UNL     1     -12.476  11.943  63.525  1.00  0.00    -0.609 C  
HETATM    2  C   UNL     1     -11.467  12.808  64.279  1.00  0.00    -0.373 C  
ENDROOT
BRANCH   2   3
HETATM    3  C   UNL     1     -12.140  13.666  65.377  1.00  0.00    -0.429 C  
BRANCH   3   4
HETATM    4  C   UNL     1     -11.210  14.608  66.115  1.00  0.00    -0.341 A  
HETATM    5  C   UNL     1     -11.036  14.495  67.502  1.00  0.00    -0.316 A  
HETATM    6  C   UNL     1      -9.460  16.329  67.484  1.00  0.00    -0.227 A  
HETATM    7  C   UNL     1     -10.167  15.353  68.182  1.00  0.00    -0.230 A  
HETATM    8  C   UNL     1      -9.616  16.445  66.104  1.00  0.00    -0.356 A  
HETATM    9  C   UNL     1     -10.481  15.585  65.423  1.00  0.00    -0.429 A  
ENDBRANCH   3   4
ENDBRANCH   2   3
BRANCH   2  10
HETATM   10  N   UNL     1     -10.436  11.939  64.840  1.00  0.00    -0.274 N  
HETATM   11  H   UNL     1     -10.387  11.842  65.854  1.00  0.00     0.000 HD 
HETATM   12  C   UNL     1      -9.526  11.243  64.075  1.00  0.00    -0.180 C  
HETATM   13  O   UNL     1      -9.543  11.216  62.848  1.00  0.00    -0.330 OA 
BRANCH  12  14
HETATM   14  C   UNL     1      -8.496  10.450  64.915  1.00  0.00    -0.175 C  
HETATM   15  N   UNL     1      -7.153  10.593  64.289  1.00  0.00    -0.349 NA 
HETATM   16  H2  UNL     1      -6.884  11.569  64.164  1.00  0.00     0.000 HD 
HETATM   17  H1  UNL     1      -6.475  10.070  64.843  1.00  0.00     0.000 HD 
BRANCH  14  18
HETATM   18  C   UNL     1      -8.423  10.961  66.361  1.00  0.00    -0.163 C  
BRANCH  18  19
HETATM   19  C   UNL     1      -9.125  10.028  67.354  1.00  0.00    -0.146 C  
BRANCH  19  20
HETATM   20  C   UNL     1      -9.110   8.574  66.869  1.00  0.00    -0.177 C  
BRANCH  20  21
HETATM   21  C   UNL     1     -10.503   7.951  66.959  1.00  0.00    -0.349 C  
HETATM   22  N   UNL     1     -10.770   7.502  68.320  1.00  0.00    -0.391 NA 
HETATM   23  H1  UNL     1     -11.699   7.086  68.380  1.00  0.00     0.000 HD 
HETATM   24  H2  UNL     1     -10.644   8.251  69.000  1.00  0.00     0.000 HD 
ENDBRANCH  20  21
ENDBRANCH  19  20
ENDBRANCH  18  19
ENDBRANCH  14  18
ENDBRANCH  12  14
ENDBRANCH   2  10
TORSDOF 8
ENDMDL
MODEL      222
REMARK 921   NORMALIZED FREE ENERGY PREDICTED BY IDOCK:   -3.78 KCAL/MOL
REMARK 922        TOTAL FREE ENERGY PREDICTED BY IDOCK:   -6.34 KCAL/MOL
REMARK 923 INTER-LIGAND FREE ENERGY PREDICTED BY IDOCK:   -6.25 KCAL/MOL
REMARK 924 INTRA-LIGAND FREE ENERGY PREDICTED BY IDOCK:   -0.09 KCAL/MOL
REMARK 927      BINDING AFFINITY PREDICTED BY RF-SCORE:    0.00 PKD
ROOT
HETATM    1  C   UNL     1      -9.720  15.402  67.717  1.00  0.00    -0.211 C  
HETATM    2  C   UNL     1     -10.264  14.203  68.492  1.00  0.00    -0.247 C  
ENDROOT
BRANCH   2   3
HETATM    3  C   UNL     1     -11.767  14.360  68.827  1.00  0.00    -0.372 C  
BRANCH   3   4
HETATM    4  C   UNL     1     -12.267  13.481  69.956  1.00  0.00    -0.381 A  
HETATM    5  C   UNL     1     -12.098  12.090  69.903  1.00  0.00    -0.334 A  
HETATM    6  C   UNL     1     -13.160  11.848  72.062  1.00  0.00    -0.441 A  
HETATM    7  C   UNL     1     -12.544  11.278  70.950  1.00  0.00    -0.467 A  
HETATM    8  C   UNL     1     -13.325  13.230  72.132  1.00  0.00    -0.618 A  
HETATM    9  C   UNL     1     -12.875  14.042  71.087  1.00  0.00    -0.427 A  
ENDBRANCH   3   4
ENDBRANCH   2   3
BRANCH   2  10
HETATM   10  N   UNL     1     -10.017  12.993  67.712  1.00  0.00    -0.221 N  
HETATM   11  H   UNL     1      -9.357  12.308  68.081  1.00  0.00     0.000 HD 
HETATM   12  C   UNL     1     -10.625  12.726  66.504  1.00  0.00    -0.254 C  
HETATM   13  O   UNL     1     -11.495  13.434  66.006  1.00  0.00    -0.312 OA 
BRANCH  12  14
HETATM   14  C   UNL     1     -10.138  11.412  65.849  1.00  0.00    -0.243 C  
HETATM   15  N   UNL     1      -9.082  11.735  64.851  1.00  0.00    -0.405 NA 
HETATM   16  H2  UNL     1      -8.316  12.275  65.255  1.00  0.00     0.000 HD 
HETATM   17  H1  UNL     1      -8.761  10.869  64.419  1.00  0.00     0.000 HD 
BRANCH  14  18
HETATM   18  C   UNL     1      -9.557  10.438  66.884  1.00  0.00    -0.207 C  
BRANCH  18  19
HETATM   19  C   UNL     1      -9.508   8.993  66.374  1.00  0.00    -0.288 C  
BRANCH  19  20
HETATM   20  C   UNL     1     -10.437   8.079  67.181  1.00  0.00    -0.408 C  
BRANCH  20  21
HETATM   21  C   UNL     1     -10.900   8.766  68.466  1.00  0.00     0.034 C  
HETATM   22  N   UNL     1     -11.155   7.777  69.506  1.00  0.00    -0.445 NA 
HETATM   23  H1  UNL     1     -11.464   8.235  70.363  1.00  0.00     0.000 HD 
HETATM   24  H2  UNL     1     -10.347   7.176  69.666  1.00  0.00     0.000 HD 
ENDBRANCH  20  21
ENDBRANCH  19  20
ENDBRANCH  18  19
ENDBRANCH  14  18
ENDBRANCH  12  14
ENDBRANCH   2  10
TORSDOF 8
ENDMDL
MODEL      223
REMARK 921   NORMALIZED FREE ENERGY PREDICTED BY IDOCK:   -3.77 KCAL/MOL
REMARK 922        TOTAL FREE ENERGY PREDICTED BY IDOCK:   -6.32 KCAL/MOL
REMARK 923 INTER-LIGAND FREE ENERGY PREDICTED BY IDOCK:   -5.34 KCAL/MOL
REMARK 924 INTRA-LIGAND FREE ENERGY PREDICTED BY IDOCK:   -0.98 KCAL/MOL
REMARK 927      BINDING AFFINITY PREDICTED BY RF-SCORE:    0.00 PKD
ROOT
HETATM    1  C   UNL     1      -8.861   8.990  62.702  1.00  0.00    -0.123 C  
HETATM    2  C   UNL     1      -8.583   9.631  64.061  1.00  0.00    -0.200 C  
ENDROOT
BRANCH   2   3
HETATM    3  C   UNL     1      -8.723  11.172  64.017  1.00  0.00     0.182 C  
BRANCH   3   4
HETATM    4  C   UNL     1     -10.110  11.698  64.328  1.00  0.00    -0.328 A  
HETATM    5  C   UNL     1     -11.109  11.693  63.343  1.00  0.00    -0.422 A  
HETATM    6  C   UNL     1     -12.694  12.640  64.905  1.00  0.00    -0.450 A  
HETATM    7  C   UNL     1     -12.394  12.164  63.631  1.00  0.00    -0.673 A  
HETATM    8  C   UNL     1     -11.714  12.640  65.895  1.00  0.00    -0.470 A  
HETATM    9  C   UNL     1     -10.430  12.166  65.609  1.00  0.00    -0.290 A  
ENDBRANCH   3   4
ENDBRANCH   2   3
BRANCH   2  10
HETATM   10  N   UNL     1      -9.486   9.043  65.047  1.00  0.00    -0.430 N  
HETATM   11  H   UNL     1     -10.488   9.067  64.859  1.00  0.00     0.000 HD 
HETATM   12  C   UNL     1      -9.058   8.457  66.219  1.00  0.00    -0.194 C  
HETATM   13  O   UNL     1      -7.877   8.295  66.511  1.00  0.00    -0.091 OA 
BRANCH  12  14
HETATM   14  C   UNL     1     -10.217   7.974  67.123  1.00  0.00    -0.292 C  
HETATM   15  N   UNL     1      -9.656   7.138  68.219  1.00  0.00    -0.135 NA 
HETATM   16  H2  UNL     1      -8.929   7.623  68.746  1.00  0.00     0.000 HD 
HETATM   17  H1  UNL     1     -10.420   6.819  68.814  1.00  0.00     0.000 HD 
BRANCH  14  18
HETATM   18  C   UNL     1     -10.988   9.148  67.743  1.00  0.00    -0.033 C  
BRANCH  18  19
HETATM   19  C   UNL     1     -10.156   9.924  68.770  1.00  0.00    -0.186 C  
BRANCH  19  20
HETATM   20  C   UNL     1     -11.035  10.497  69.888  1.00  0.00    -0.359 C  
BRANCH  20  21
HETATM   21  C   UNL     1     -11.681  11.814  69.457  1.00  0.00    -0.343 C  
HETATM   22  N   UNL     1     -12.046  12.606  70.625  1.00  0.00    -0.507 NA 
HETATM   23  H1  UNL     1     -12.477  13.484  70.337  1.00  0.00     0.000 HD 
HETATM   24  H2  UNL     1     -11.250  12.758  71.245  1.00  0.00     0.000 HD 
ENDBRANCH  20  21
ENDBRANCH  19  20
ENDBRANCH  18  19
ENDBRANCH  14  18
ENDBRANCH  12  14
ENDBRANCH   2  10
TORSDOF 8
ENDMDL
MODEL      224
REMARK 921   NORMALIZED FREE ENERGY PREDICTED BY IDOCK:   -3.76 KCAL/MOL
REMARK 922        TOTAL FREE ENERGY PREDICTED BY IDOCK:   -6.31 KCAL/MOL
REMARK 923 INTER-LIGAND FREE ENERGY PREDICTED BY IDOCK:   -5.55 KCAL/MOL
REMARK 924 INTRA-LIGAND FREE ENERGY PREDICTED BY IDOCK:   -0.77 KCAL/MOL
REMARK 927      BINDING AFFINITY PREDICTED BY RF-SCORE:    0.00 PKD
ROOT
HETATM    1  C   UNL     1     -10.156   9.805  65.878  1.00  0.00    -0.314 C  
HETATM    2  C   UNL     1     -10.467  10.321  67.282  1.00  0.00    -0.253 C  
ENDROOT
BRANCH   2   3
HETATM    3  C   UNL     1     -11.626  11.348  67.281  1.00  0.00    -0.232 C  
BRANCH   3   4
HETATM    4  C   UNL     1     -11.370  12.600  66.467  1.00  0.00    -0.377 A  
HETATM    5  C   UNL     1     -12.321  13.051  65.539  1.00  0.00    -0.527 A  
HETATM    6  C   UNL     1     -10.920  14.941  64.978  1.00  0.00    -0.432 A  
HETATM    7  C   UNL     1     -12.095  14.215  64.798  1.00  0.00    -0.454 A  
HETATM    8  C   UNL     1      -9.973  14.510  65.905  1.00  0.00    -0.352 A  
HETATM    9  C   UNL     1     -10.199  13.349  66.649  1.00  0.00    -0.274 A  
ENDBRANCH   3   4
ENDBRANCH   2   3
BRANCH   2  10
HETATM   10  N   UNL     1     -10.769   9.179  68.141  1.00  0.00    -0.415 N  
HETATM   11  H   UNL     1     -11.452   8.496  67.814  1.00  0.00     0.000 HD 
HETATM   12  C   UNL     1     -10.182   8.974  69.371  1.00  0.00    -0.204 C  
HETATM   13  O   UNL     1      -9.289   9.680  69.829  1.00  0.00    -0.188 OA 
BRANCH  12  14
HETATM   14  C   UNL     1     -10.726   7.728  70.111  1.00  0.00    -0.240 C  
HETATM   15  N   UNL     1     -11.931   8.121  70.892  1.00  0.00    -0.439 NA 
HETATM   16  H2  UNL     1     -12.641   8.571  70.314  1.00  0.00     0.000 HD 
HETATM   17  H1  UNL     1     -12.289   7.301  71.380  1.00  0.00     0.000 HD 
BRANCH  14  18
HETATM   18  C   UNL     1     -11.115   6.608  69.135  1.00  0.00    -0.332 C  
BRANCH  18  19
HETATM   19  C   UNL     1      -9.909   5.784  68.670  1.00  0.00    -0.178 C  
BRANCH  19  20
HETATM   20  C   UNL     1      -9.094   5.260  69.857  1.00  0.00    -0.165 C  
BRANCH  20  21
HETATM   21  C   UNL     1      -7.622   5.652  69.726  1.00  0.00    -0.075 C  
HETATM   22  N   UNL     1      -7.464   6.702  68.726  1.00  0.00    -0.093 NA 
HETATM   23  H1  UNL     1      -6.482   6.963  68.638  1.00  0.00     0.000 HD 
HETATM   24  H2  UNL     1      -8.056   7.508  68.926  1.00  0.00     0.000 HD 
ENDBRANCH  20  21
ENDBRANCH  19  20
ENDBRANCH  18  19
ENDBRANCH  14  18
ENDBRANCH  12  14
ENDBRANCH   2  10
TORSDOF 8
ENDMDL
MODEL      225
REMARK 921   NORMALIZED FREE ENERGY PREDICTED BY IDOCK:   -3.75 KCAL/MOL
REMARK 922        TOTAL FREE ENERGY PREDICTED BY IDOCK:   -6.30 KCAL/MOL
REMARK 923 INTER-LIGAND FREE ENERGY PREDICTED BY IDOCK:   -5.32 KCAL/MOL
REMARK 924 INTRA-LIGAND FREE ENERGY PREDICTED BY IDOCK:   -0.98 KCAL/MOL
REMARK 927      BINDING AFFINITY PREDICTED BY RF-SCORE:    0.00 PKD
ROOT
HETATM    1  C   UNL     1     -11.042   6.226  68.785  1.00  0.00    -0.424 C  
HETATM    2  C   UNL     1     -10.346   7.466  69.345  1.00  0.00    -0.210 C  
ENDROOT
BRANCH   2   3
HETATM    3  C   UNL     1      -9.259   8.006  68.386  1.00  0.00    -0.135 C  
BRANCH   3   4
HETATM    4  C   UNL     1      -8.445   9.164  68.928  1.00  0.00    -0.129 A  
HETATM    5  C   UNL     1      -7.573   8.976  70.010  1.00  0.00    -0.072 A  
HETATM    6  C   UNL     1      -6.907  11.299  69.917  1.00  0.00    -0.017 A  
HETATM    7  C   UNL     1      -6.809  10.039  70.502  1.00  0.00    -0.110 A  
HETATM    8  C   UNL     1      -7.762  11.497  68.835  1.00  0.00    -0.088 A  
HETATM    9  C   UNL     1      -8.522  10.434  68.339  1.00  0.00    -0.124 A  
ENDBRANCH   3   4
ENDBRANCH   2   3
BRANCH   2  10
HETATM   10  N   UNL     1     -11.359   8.480  69.627  1.00  0.00    -0.435 N  
HETATM   11  H   UNL     1     -11.962   8.785  68.863  1.00  0.00     0.000 HD 
HETATM   12  C   UNL     1     -11.543   9.050  70.868  1.00  0.00    -0.290 C  
HETATM   13  O   UNL     1     -10.936   8.703  71.877  1.00  0.00    -0.293 OA 
BRANCH  12  14
HETATM   14  C   UNL     1     -12.633  10.148  70.884  1.00  0.00    -0.360 C  
HETATM   15  N   UNL     1     -13.198  10.244  72.258  1.00  0.00    -0.570 NA 
HETATM   16  H2  UNL     1     -12.479  10.399  72.965  1.00  0.00     0.000 HD 
HETATM   17  H1  UNL     1     -13.917  10.967  72.269  1.00  0.00     0.000 HD 
BRANCH  14  18
HETATM   18  C   UNL     1     -12.069  11.519  70.486  1.00  0.00    -0.472 C  
BRANCH  18  19
HETATM   19  C   UNL     1     -11.903  11.673  68.970  1.00  0.00    -0.391 C  
BRANCH  19  20
HETATM   20  C   UNL     1     -11.484  13.098  68.591  1.00  0.00    -0.342 C  
BRANCH  20  21
HETATM   21  C   UNL     1     -11.468  13.279  67.073  1.00  0.00    -0.339 C  
HETATM   22  N   UNL     1     -12.335  14.385  66.686  1.00  0.00    -0.518 NA 
HETATM   23  H1  UNL     1     -12.325  14.506  65.673  1.00  0.00     0.000 HD 
HETATM   24  H2  UNL     1     -12.093  15.247  67.174  1.00  0.00     0.000 HD 
ENDBRANCH  20  21
ENDBRANCH  19  20
ENDBRANCH  18  19
ENDBRANCH  14  18
ENDBRANCH  12  14
ENDBRANCH   2  10
TORSDOF 8
ENDMDL
MODEL      226
REMARK 921   NORMALIZED FREE ENERGY PREDICTED BY IDOCK:   -3.75 KCAL/MOL
REMARK 922        TOTAL FREE ENERGY PREDICTED BY IDOCK:   -6.29 KCAL/MOL
REMARK 923 INTER-LIGAND FREE ENERGY PREDICTED BY IDOCK:   -6.10 KCAL/MOL
REMARK 924 INTRA-LIGAND FREE ENERGY PREDICTED BY IDOCK:   -0.19 KCAL/MOL
REMARK 927      BINDING AFFINITY PREDICTED BY RF-SCORE:    0.00 PKD
ROOT
HETATM    1  C   UNL     1     -11.778  10.323  69.450  1.00  0.00    -0.166 C  
HETATM    2  C   UNL     1     -11.810  10.600  70.953  1.00  0.00    -0.331 C  
ENDROOT
BRANCH   2   3
HETATM    3  C   UNL     1     -13.121  11.299  71.388  1.00  0.00    -0.395 C  
BRANCH   3   4
HETATM    4  C   UNL     1     -13.057  12.813  71.425  1.00  0.00    -0.318 A  
HETATM    5  C   UNL     1     -13.773  13.532  72.394  1.00  0.00    -0.704 A  
HETATM    6  C   UNL     1     -12.917  15.619  71.523  1.00  0.00    -0.549 A  
HETATM    7  C   UNL     1     -13.704  14.927  72.441  1.00  0.00    -0.576 A  
HETATM    8  C   UNL     1     -12.192  14.916  70.562  1.00  0.00    -0.388 A  
HETATM    9  C   UNL     1     -12.258  13.521  70.517  1.00  0.00    -0.433 A  
ENDBRANCH   3   4
ENDBRANCH   2   3
BRANCH   2  10
HETATM   10  N   UNL     1     -11.619   9.339  71.663  1.00  0.00    -0.372 N  
HETATM   11  H   UNL     1     -12.447   8.820  71.956  1.00  0.00     0.000 HD 
HETATM   12  C   UNL     1     -10.381   8.811  71.961  1.00  0.00    -0.340 C  
HETATM   13  O   UNL     1      -9.320   9.302  71.586  1.00  0.00    -0.301 OA 
BRANCH  12  14
HETATM   14  C   UNL     1     -10.454   7.500  72.780  1.00  0.00    -0.295 C  
HETATM   15  N   UNL     1     -11.856   7.001  72.765  1.00  0.00    -0.521 NA 
HETATM   16  H2  UNL     1     -12.219   6.888  71.818  1.00  0.00     0.000 HD 
HETATM   17  H1  UNL     1     -11.904   6.137  73.305  1.00  0.00     0.000 HD 
BRANCH  14  18
HETATM   18  C   UNL     1      -9.537   6.413  72.202  1.00  0.00    -0.155 C  
BRANCH  18  19
HETATM   19  C   UNL     1      -8.098   6.514  72.722  1.00  0.00    -0.106 C  
BRANCH  19  20
HETATM   20  C   UNL     1      -7.613   5.180  73.301  1.00  0.00    -0.092 C  
BRANCH  20  21
HETATM   21  C   UNL     1      -6.130   4.961  73.003  1.00  0.00    -0.026 C  
HETATM   22  N   UNL     1      -5.527   6.191  72.500  1.00  0.00    -0.031 NA 
HETATM   23  H1  UNL     1      -4.538   6.045  72.302  1.00  0.00     0.000 HD 
HETATM   24  H2  UNL     1      -5.676   6.974  73.136  1.00  0.00     0.000 HD 
ENDBRANCH  20  21
ENDBRANCH  19  20
ENDBRANCH  18  19
ENDBRANCH  14  18
ENDBRANCH  12  14
ENDBRANCH   2  10
TORSDOF 8
ENDMDL
MODEL      227
REMARK 921   NORMALIZED FREE ENERGY PREDICTED BY IDOCK:   -3.73 KCAL/MOL
REMARK 922        TOTAL FREE ENERGY PREDICTED BY IDOCK:   -6.26 KCAL/MOL
REMARK 923 INTER-LIGAND FREE ENERGY PREDICTED BY IDOCK:   -5.72 KCAL/MOL
REMARK 924 INTRA-LIGAND FREE ENERGY PREDICTED BY IDOCK:   -0.55 KCAL/MOL
REMARK 927      BINDING AFFINITY PREDICTED BY RF-SCORE:    0.00 PKD
ROOT
HETATM    1  C   UNL     1     -10.590   9.724  67.602  1.00  0.00    -0.333 C  
HETATM    2  C   UNL     1     -11.092  10.301  68.925  1.00  0.00    -0.231 C  
ENDROOT
BRANCH   2   3
HETATM    3  C   UNL     1     -12.095  11.460  68.712  1.00  0.00    -0.256 C  
BRANCH   3   4
HETATM    4  C   UNL     1     -11.566  12.623  67.896  1.00  0.00    -0.401 A  
HETATM    5  C   UNL     1     -10.345  13.227  68.228  1.00  0.00    -0.252 A  
HETATM    6  C   UNL     1     -10.561  14.757  66.368  1.00  0.00    -0.300 A  
HETATM    7  C   UNL     1      -9.847  14.290  67.468  1.00  0.00    -0.231 A  
HETATM    8  C   UNL     1     -11.771  14.158  66.021  1.00  0.00    -0.389 A  
HETATM    9  C   UNL     1     -12.268  13.094  66.777  1.00  0.00    -0.306 A  
ENDBRANCH   3   4
ENDBRANCH   2   3
BRANCH   2  10
HETATM   10  N   UNL     1     -11.686   9.221  69.709  1.00  0.00    -0.419 N  
HETATM   11  H   UNL     1     -12.445   8.683  69.291  1.00  0.00     0.000 HD 
HETATM   12  C   UNL     1     -11.278   8.890  70.983  1.00  0.00    -0.281 C  
HETATM   13  O   UNL     1     -10.323   9.409  71.552  1.00  0.00    -0.327 OA 
BRANCH  12  14
HETATM   14  C   UNL     1     -12.115   7.755  71.619  1.00  0.00    -0.304 C  
HETATM   15  N   UNL     1     -13.496   7.807  71.064  1.00  0.00    -0.573 NA 
HETATM   16  H2  UNL     1     -13.508   7.774  70.045  1.00  0.00     0.000 HD 
HETATM   17  H1  UNL     1     -14.048   7.059  71.484  1.00  0.00     0.000 HD 
BRANCH  14  18
HETATM   18  C   UNL     1     -11.518   6.370  71.327  1.00  0.00    -0.371 C  
BRANCH  18  19
HETATM   19  C   UNL     1     -11.156   5.602  72.602  1.00  0.00    -0.331 C  
BRANCH  19  20
HETATM   20  C   UNL     1      -9.648   5.641  72.874  1.00  0.00    -0.165 C  
BRANCH  20  21
HETATM   21  C   UNL     1      -9.112   4.246  73.195  1.00  0.00    -0.110 C  
HETATM   22  N   UNL     1      -9.745   3.251  72.338  1.00  0.00    -0.138 NA 
HETATM   23  H1  UNL     1      -9.388   2.319  72.553  1.00  0.00     0.000 HD 
HETATM   24  H2  UNL     1      -9.642   3.479  71.350  1.00  0.00     0.000 HD 
ENDBRANCH  20  21
ENDBRANCH  19  20
ENDBRANCH  18  19
ENDBRANCH  14  18
ENDBRANCH  12  14
ENDBRANCH   2  10
TORSDOF 8
ENDMDL
MODEL      228
REMARK 921   NORMALIZED FREE ENERGY PREDICTED BY IDOCK:   -3.72 KCAL/MOL
REMARK 922        TOTAL FREE ENERGY PREDICTED BY IDOCK:   -6.26 KCAL/MOL
REMARK 923 INTER-LIGAND FREE ENERGY PREDICTED BY IDOCK:   -5.37 KCAL/MOL
REMARK 924 INTRA-LIGAND FREE ENERGY PREDICTED BY IDOCK:   -0.89 KCAL/MOL
REMARK 927      BINDING AFFINITY PREDICTED BY RF-SCORE:    0.00 PKD
ROOT
HETATM    1  C   UNL     1     -11.136   6.282  68.862  1.00  0.00    -0.434 C  
HETATM    2  C   UNL     1     -10.323   7.341  68.119  1.00  0.00    -0.194 C  
ENDROOT
BRANCH   2   3
HETATM    3  C   UNL     1     -10.083   6.959  66.639  1.00  0.00    -0.211 C  
BRANCH   3   4
HETATM    4  C   UNL     1      -8.796   7.490  66.042  1.00  0.00    -0.179 A  
HETATM    5  C   UNL     1      -8.762   8.753  65.432  1.00  0.00    -0.217 A  
HETATM    6  C   UNL     1      -6.404   8.497  64.961  1.00  0.00    -0.060 A  
HETATM    7  C   UNL     1      -7.572   9.252  64.894  1.00  0.00    -0.108 A  
HETATM    8  C   UNL     1      -6.421   7.245  65.573  1.00  0.00    -0.044 A  
HETATM    9  C   UNL     1      -7.609   6.747  66.115  1.00  0.00    -0.086 A  
ENDBRANCH   3   4
ENDBRANCH   2   3
BRANCH   2  10
HETATM   10  N   UNL     1     -11.015   8.623  68.232  1.00  0.00    -0.450 N  
HETATM   11  H   UNL     1     -12.008   8.656  68.002  1.00  0.00     0.000 HD 
HETATM   12  C   UNL     1     -10.400   9.789  68.632  1.00  0.00    -0.201 C  
HETATM   13  O   UNL     1      -9.235   9.852  69.014  1.00  0.00    -0.150 OA 
BRANCH  12  14
HETATM   14  C   UNL     1     -11.338  11.019  68.601  1.00  0.00    -0.281 C  
HETATM   15  N   UNL     1     -11.381  11.626  69.960  1.00  0.00    -0.499 NA 
HETATM   16  H2  UNL     1     -10.452  11.854  70.314  1.00  0.00     0.000 HD 
HETATM   17  H1  UNL     1     -11.999  12.436  69.940  1.00  0.00     0.000 HD 
BRANCH  14  18
HETATM   18  C   UNL     1     -10.856  12.081  67.602  1.00  0.00    -0.273 C  
BRANCH  18  19
HETATM   19  C   UNL     1     -11.706  12.123  66.327  1.00  0.00    -0.389 C  
BRANCH  19  20
HETATM   20  C   UNL     1     -10.868  11.809  65.082  1.00  0.00    -0.351 C  
BRANCH  20  21
HETATM   21  C   UNL     1     -11.678  12.036  63.806  1.00  0.00    -0.481 C  
HETATM   22  N   UNL     1     -13.009  12.534  64.132  1.00  0.00    -0.761 NA 
HETATM   23  H1  UNL     1     -13.550  12.685  63.280  1.00  0.00     0.000 HD 
HETATM   24  H2  UNL     1     -12.970  13.373  64.711  1.00  0.00     0.000 HD 
ENDBRANCH  20  21
ENDBRANCH  19  20
ENDBRANCH  18  19
ENDBRANCH  14  18
ENDBRANCH  12  14
ENDBRANCH   2  10
TORSDOF 8
ENDMDL
MODEL      229
REMARK 921   NORMALIZED FREE ENERGY PREDICTED BY IDOCK:   -3.72 KCAL/MOL
REMARK 922        TOTAL FREE ENERGY PREDICTED BY IDOCK:   -6.26 KCAL/MOL
REMARK 923 INTER-LIGAND FREE ENERGY PREDICTED BY IDOCK:   -5.68 KCAL/MOL
REMARK 924 INTRA-LIGAND FREE ENERGY PREDICTED BY IDOCK:   -0.57 KCAL/MOL
REMARK 927      BINDING AFFINITY PREDICTED BY RF-SCORE:    0.00 PKD
ROOT
HETATM    1  C   UNL     1      -7.906  10.161  69.853  1.00  0.00    -0.164 C  
HETATM    2  C   UNL     1      -9.320  10.249  69.280  1.00  0.00    -0.207 C  
ENDROOT
BRANCH   2   3
HETATM    3  C   UNL     1     -10.399   9.928  70.342  1.00  0.00    -0.322 C  
BRANCH   3   4
HETATM    4  C   UNL     1     -10.610   8.453  70.615  1.00  0.00    -0.234 A  
HETATM    5  C   UNL     1     -10.780   7.550  69.555  1.00  0.00    -0.222 A  
HETATM    6  C   UNL     1     -10.968   5.710  71.112  1.00  0.00    -0.248 A  
HETATM    7  C   UNL     1     -10.959   6.186  69.803  1.00  0.00    -0.459 A  
HETATM    8  C   UNL     1     -10.790   6.594  72.174  1.00  0.00    -0.259 A  
HETATM    9  C   UNL     1     -10.606   7.957  71.926  1.00  0.00    -0.285 A  
ENDBRANCH   3   4
ENDBRANCH   2   3
BRANCH   2  10
HETATM   10  N   UNL     1      -9.510  11.582  68.714  1.00  0.00    -0.362 N  
HETATM   11  H   UNL     1      -9.866  12.318  69.323  1.00  0.00     0.000 HD 
HETATM   12  C   UNL     1      -9.235  11.899  67.401  1.00  0.00    -0.177 C  
HETATM   13  O   UNL     1      -8.725  11.119  66.601  1.00  0.00    -0.154 OA 
BRANCH  12  14
HETATM   14  C   UNL     1      -9.589  13.360  67.036  1.00  0.00    -0.244 C  
HETATM   15  N   UNL     1      -9.758  13.459  65.560  1.00  0.00    -0.499 NA 
HETATM   16  H2  UNL     1     -10.441  12.792  65.200  1.00  0.00     0.000 HD 
HETATM   17  H1  UNL     1      -9.991  14.422  65.319  1.00  0.00     0.000 HD 
BRANCH  14  18
HETATM   18  C   UNL     1     -10.888  13.821  67.713  1.00  0.00    -0.262 C  
BRANCH  18  19
HETATM   19  C   UNL     1     -10.693  15.072  68.576  1.00  0.00    -0.244 C  
BRANCH  19  20
HETATM   20  C   UNL     1     -11.917  15.343  69.458  1.00  0.00    -0.358 C  
BRANCH  20  21
HETATM   21  C   UNL     1     -11.548  15.282  70.941  1.00  0.00    -0.343 C  
HETATM   22  N   UNL     1     -11.908  16.530  71.604  1.00  0.00    -0.641 NA 
HETATM   23  H1  UNL     1     -11.661  16.490  72.593  1.00  0.00     0.000 HD 
HETATM   24  H2  UNL     1     -12.891  16.764  71.466  1.00  0.00     0.000 HD 
ENDBRANCH  20  21
ENDBRANCH  19  20
ENDBRANCH  18  19
ENDBRANCH  14  18
ENDBRANCH  12  14
ENDBRANCH   2  10
TORSDOF 8
ENDMDL
MODEL      230
REMARK 921   NORMALIZED FREE ENERGY PREDICTED BY IDOCK:   -3.72 KCAL/MOL
REMARK 922        TOTAL FREE ENERGY PREDICTED BY IDOCK:   -6.25 KCAL/MOL
REMARK 923 INTER-LIGAND FREE ENERGY PREDICTED BY IDOCK:   -5.64 KCAL/MOL
REMARK 924 INTRA-LIGAND FREE ENERGY PREDICTED BY IDOCK:   -0.61 KCAL/MOL
REMARK 927      BINDING AFFINITY PREDICTED BY RF-SCORE:    0.00 PKD
ROOT
HETATM    1  C   UNL     1     -11.114  12.660  64.649  1.00  0.00    -0.348 C  
HETATM    2  C   UNL     1     -11.088  12.898  66.159  1.00  0.00    -0.286 C  
ENDROOT
BRANCH   2   3
HETATM    3  C   UNL     1     -12.188  13.889  66.611  1.00  0.00    -0.465 C  
BRANCH   3   4
HETATM    4  C   UNL     1     -11.841  14.716  67.833  1.00  0.00    -0.352 A  
HETATM    5  C   UNL     1     -12.248  14.303  69.110  1.00  0.00    -0.272 A  
HETATM    6  C   UNL     1     -11.173  16.226  70.108  1.00  0.00    -0.340 A  
HETATM    7  C   UNL     1     -11.917  15.056  70.241  1.00  0.00    -0.362 A  
HETATM    8  C   UNL     1     -10.753  16.641  68.846  1.00  0.00    -0.337 A  
HETATM    9  C   UNL     1     -11.080  15.887  67.715  1.00  0.00    -0.288 A  
ENDBRANCH   3   4
ENDBRANCH   2   3
BRANCH   2  10
HETATM   10  N   UNL     1     -11.222  11.610  66.835  1.00  0.00    -0.308 N  
HETATM   11  H   UNL     1     -11.913  10.949  66.481  1.00  0.00     0.000 HD 
HETATM   12  C   UNL     1     -10.466  11.240  67.926  1.00  0.00    -0.188 C  
HETATM   13  O   UNL     1      -9.551  11.916  68.385  1.00  0.00    -0.203 OA 
BRANCH  12  14
HETATM   14  C   UNL     1     -10.852   9.854  68.498  1.00  0.00    -0.217 C  
HETATM   15  N   UNL     1     -11.107   8.922  67.365  1.00  0.00    -0.342 NA 
HETATM   16  H2  UNL     1     -10.320   8.870  66.718  1.00  0.00     0.000 HD 
HETATM   17  H1  UNL     1     -11.361   8.009  67.742  1.00  0.00     0.000 HD 
BRANCH  14  18
HETATM   18  C   UNL     1      -9.738   9.268  69.377  1.00  0.00    -0.175 C  
BRANCH  18  19
HETATM   19  C   UNL     1     -10.170   9.087  70.836  1.00  0.00    -0.324 C  
BRANCH  19  20
HETATM   20  C   UNL     1      -9.285   8.068  71.563  1.00  0.00    -0.188 C  
BRANCH  20  21
HETATM   21  C   UNL     1      -9.289   8.316  73.072  1.00  0.00    -0.240 C  
HETATM   22  N   UNL     1      -7.931   8.546  73.551  1.00  0.00    -0.403 NA 
HETATM   23  H1  UNL     1      -7.933   8.711  74.557  1.00  0.00     0.000 HD 
HETATM   24  H2  UNL     1      -7.471   9.301  73.042  1.00  0.00     0.000 HD 
ENDBRANCH  20  21
ENDBRANCH  19  20
ENDBRANCH  18  19
ENDBRANCH  14  18
ENDBRANCH  12  14
ENDBRANCH   2  10
TORSDOF 8
ENDMDL
MODEL      231
REMARK 921   NORMALIZED FREE ENERGY PREDICTED BY IDOCK:   -3.71 KCAL/MOL
REMARK 922        TOTAL FREE ENERGY PREDICTED BY IDOCK:   -6.24 KCAL/MOL
REMARK 923 INTER-LIGAND FREE ENERGY PREDICTED BY IDOCK:   -5.80 KCAL/MOL
REMARK 924 INTRA-LIGAND FREE ENERGY PREDICTED BY IDOCK:   -0.44 KCAL/MOL
REMARK 927      BINDING AFFINITY PREDICTED BY RF-SCORE:    0.00 PKD
ROOT
HETATM    1  C   UNL     1      -7.419  11.241  69.436  1.00  0.00     0.014 C  
HETATM    2  C   UNL     1      -8.110  10.424  68.345  1.00  0.00    -0.112 C  
ENDROOT
BRANCH   2   3
HETATM    3  C   UNL     1      -8.329   8.952  68.770  1.00  0.00    -0.123 C  
BRANCH   3   4
HETATM    4  C   UNL     1      -8.941   8.767  70.144  1.00  0.00    -0.173 A  
HETATM    5  C   UNL     1     -10.314   8.972  70.344  1.00  0.00    -0.253 A  
HETATM    6  C   UNL     1     -10.091   8.393  72.682  1.00  0.00    -0.322 A  
HETATM    7  C   UNL     1     -10.885   8.788  71.607  1.00  0.00    -0.399 A  
HETATM    8  C   UNL     1      -8.728   8.176  72.494  1.00  0.00    -0.266 A  
HETATM    9  C   UNL     1      -8.157   8.356  71.231  1.00  0.00    -0.152 A  
ENDBRANCH   3   4
ENDBRANCH   2   3
BRANCH   2  10
HETATM   10  N   UNL     1      -9.374  11.074  68.007  1.00  0.00    -0.158 N  
HETATM   11  H   UNL     1      -9.981  11.373  68.769  1.00  0.00     0.000 HD 
HETATM   12  C   UNL     1      -9.790  11.304  66.714  1.00  0.00    -0.199 C  
HETATM   13  O   UNL     1      -9.108  11.065  65.722  1.00  0.00    -0.192 OA 
BRANCH  12  14
HETATM   14  C   UNL     1     -11.197  11.944  66.627  1.00  0.00    -0.328 C  
HETATM   15  N   UNL     1     -12.021  11.448  67.763  1.00  0.00    -0.646 NA 
HETATM   16  H2  UNL     1     -11.576  11.608  68.667  1.00  0.00     0.000 HD 
HETATM   17  H1  UNL     1     -12.948  11.869  67.706  1.00  0.00     0.000 HD 
BRANCH  14  18
HETATM   18  C   UNL     1     -11.133  13.477  66.696  1.00  0.00    -0.309 C  
BRANCH  18  19
HETATM   19  C   UNL     1     -12.423  14.145  66.207  1.00  0.00    -0.395 C  
BRANCH  19  20
HETATM   20  C   UNL     1     -12.443  14.281  64.680  1.00  0.00    -0.371 C  
BRANCH  20  21
HETATM   21  C   UNL     1     -11.199  15.015  64.180  1.00  0.00     0.199 C  
HETATM   22  N   UNL     1     -11.501  16.422  63.946  1.00  0.00    -1.618 NA 
HETATM   23  H1  UNL     1     -10.671  16.912  63.612  1.00  0.00     0.000 HD 
HETATM   24  H2  UNL     1     -11.899  16.868  64.773  1.00  0.00     0.000 HD 
ENDBRANCH  20  21
ENDBRANCH  19  20
ENDBRANCH  18  19
ENDBRANCH  14  18
ENDBRANCH  12  14
ENDBRANCH   2  10
TORSDOF 8
ENDMDL
MODEL      232
REMARK 921   NORMALIZED FREE ENERGY PREDICTED BY IDOCK:   -3.70 KCAL/MOL
REMARK 922        TOTAL FREE ENERGY PREDICTED BY IDOCK:   -6.21 KCAL/MOL
REMARK 923 INTER-LIGAND FREE ENERGY PREDICTED BY IDOCK:   -6.25 KCAL/MOL
REMARK 924 INTRA-LIGAND FREE ENERGY PREDICTED BY IDOCK:    0.04 KCAL/MOL
REMARK 927      BINDING AFFINITY PREDICTED BY RF-SCORE:    0.00 PKD
ROOT
HETATM    1  C   UNL     1     -11.893  11.437  67.984  1.00  0.00    -0.273 C  
HETATM    2  C   UNL     1     -10.982  11.787  69.159  1.00  0.00    -0.209 C  
ENDROOT
BRANCH   2   3
HETATM    3  C   UNL     1      -9.973  10.656  69.471  1.00  0.00    -0.138 C  
BRANCH   3   4
HETATM    4  C   UNL     1     -10.366   9.746  70.618  1.00  0.00    -0.330 A  
HETATM    5  C   UNL     1      -9.403   8.954  71.259  1.00  0.00    -0.336 A  
HETATM    6  C   UNL     1     -11.080   8.082  72.767  1.00  0.00    -0.448 A  
HETATM    7  C   UNL     1      -9.759   8.125  72.327  1.00  0.00    -0.322 A  
HETATM    8  C   UNL     1     -12.045   8.872  72.145  1.00  0.00    -0.430 A  
HETATM    9  C   UNL     1     -11.688   9.704  71.080  1.00  0.00    -0.450 A  
ENDBRANCH   3   4
ENDBRANCH   2   3
BRANCH   2  10
HETATM   10  N   UNL     1     -10.297  13.042  68.859  1.00  0.00    -0.431 N  
HETATM   11  H   UNL     1     -10.507  13.856  69.436  1.00  0.00     0.000 HD 
HETATM   12  C   UNL     1      -9.384  13.187  67.837  1.00  0.00    -0.215 C  
HETATM   13  O   UNL     1      -8.991  12.261  67.134  1.00  0.00    -0.178 OA 
BRANCH  12  14
HETATM   14  C   UNL     1      -8.856  14.634  67.686  1.00  0.00    -0.182 C  
HETATM   15  N   UNL     1      -8.562  14.891  66.250  1.00  0.00    -0.414 NA 
HETATM   16  H2  UNL     1      -9.365  14.706  65.649  1.00  0.00     0.000 HD 
HETATM   17  H1  UNL     1      -8.214  15.845  66.150  1.00  0.00     0.000 HD 
BRANCH  14  18
HETATM   18  C   UNL     1      -9.879  15.670  68.174  1.00  0.00    -0.212 C  
BRANCH  18  19
HETATM   19  C   UNL     1     -10.278  16.667  67.080  1.00  0.00    -0.290 C  
BRANCH  19  20
HETATM   20  C   UNL     1     -10.348  18.099  67.622  1.00  0.00    -0.411 C  
BRANCH  20  21
HETATM   21  C   UNL     1     -10.643  19.095  66.500  1.00  0.00    -0.435 C  
HETATM   22  N   UNL     1      -9.753  20.247  66.598  1.00  0.00    -0.548 NA 
HETATM   23  H1  UNL     1      -9.950  20.911  65.850  1.00  0.00     0.000 HD 
HETATM   24  H2  UNL     1      -8.772  19.969  66.611  1.00  0.00     0.000 HD 
ENDBRANCH  20  21
ENDBRANCH  19  20
ENDBRANCH  18  19
ENDBRANCH  14  18
ENDBRANCH  12  14
ENDBRANCH   2  10
TORSDOF 8
ENDMDL
MODEL      233
REMARK 921   NORMALIZED FREE ENERGY PREDICTED BY IDOCK:   -3.70 KCAL/MOL
REMARK 922        TOTAL FREE ENERGY PREDICTED BY IDOCK:   -6.21 KCAL/MOL
REMARK 923 INTER-LIGAND FREE ENERGY PREDICTED BY IDOCK:   -6.93 KCAL/MOL
REMARK 924 INTRA-LIGAND FREE ENERGY PREDICTED BY IDOCK:    0.72 KCAL/MOL
REMARK 927      BINDING AFFINITY PREDICTED BY RF-SCORE:    0.00 PKD
ROOT
HETATM    1  C   UNL     1     -13.315   9.939  70.802  1.00  0.00    -0.179 C  
HETATM    2  C   UNL     1     -11.991  10.534  71.279  1.00  0.00    -0.289 C  
ENDROOT
BRANCH   2   3
HETATM    3  C   UNL     1     -10.876   9.465  71.382  1.00  0.00    -0.430 C  
BRANCH   3   4
HETATM    4  C   UNL     1     -10.132   9.190  70.090  1.00  0.00    -0.233 A  
HETATM    5  C   UNL     1     -10.560   8.170  69.227  1.00  0.00    -0.191 A  
HETATM    6  C   UNL     1      -8.779   8.695  67.677  1.00  0.00    -0.136 A  
HETATM    7  C   UNL     1      -9.885   7.924  68.027  1.00  0.00    -0.195 A  
HETATM    8  C   UNL     1      -8.351   9.718  68.520  1.00  0.00    -0.110 A  
HETATM    9  C   UNL     1      -9.027   9.967  69.718  1.00  0.00    -0.209 A  
ENDBRANCH   3   4
ENDBRANCH   2   3
BRANCH   2  10
HETATM   10  N   UNL     1     -11.611  11.613  70.371  1.00  0.00    -0.503 N  
HETATM   11  H   UNL     1     -11.065  12.389  70.746  1.00  0.00     0.000 HD 
HETATM   12  C   UNL     1     -11.950  11.641  69.036  1.00  0.00    -0.305 C  
HETATM   13  O   UNL     1     -12.530  10.727  68.458  1.00  0.00    -0.289 OA 
BRANCH  12  14
HETATM   14  C   UNL     1     -11.486  12.928  68.312  1.00  0.00    -0.311 C  
HETATM   15  N   UNL     1     -10.255  13.436  68.977  1.00  0.00    -0.432 NA 
HETATM   16  H2  UNL     1      -9.520  12.731  69.027  1.00  0.00     0.000 HD 
HETATM   17  H1  UNL     1      -9.949  14.284  68.500  1.00  0.00     0.000 HD 
BRANCH  14  18
HETATM   18  C   UNL     1     -11.175  12.669  66.830  1.00  0.00    -0.348 C  
BRANCH  18  19
HETATM   19  C   UNL     1     -11.877  13.661  65.897  1.00  0.00    -0.406 C  
BRANCH  19  20
HETATM   20  C   UNL     1     -10.932  14.169  64.802  1.00  0.00    -0.409 C  
BRANCH  20  21
HETATM   21  C   UNL     1     -10.690  15.672  64.941  1.00  0.00    -0.382 C  
HETATM   22  N   UNL     1     -11.519  16.409  63.994  1.00  0.00    -1.573 NA 
HETATM   23  H1  UNL     1     -11.357  17.412  64.087  1.00  0.00     0.000 HD 
HETATM   24  H2  UNL     1     -12.507  16.173  64.090  1.00  0.00     0.000 HD 
ENDBRANCH  20  21
ENDBRANCH  19  20
ENDBRANCH  18  19
ENDBRANCH  14  18
ENDBRANCH  12  14
ENDBRANCH   2  10
TORSDOF 8
ENDMDL
MODEL      234
REMARK 921   NORMALIZED FREE ENERGY PREDICTED BY IDOCK:   -3.69 KCAL/MOL
REMARK 922        TOTAL FREE ENERGY PREDICTED BY IDOCK:   -6.21 KCAL/MOL
REMARK 923 INTER-LIGAND FREE ENERGY PREDICTED BY IDOCK:   -5.67 KCAL/MOL
REMARK 924 INTRA-LIGAND FREE ENERGY PREDICTED BY IDOCK:   -0.54 KCAL/MOL
REMARK 927      BINDING AFFINITY PREDICTED BY RF-SCORE:    0.00 PKD
ROOT
HETATM    1  C   UNL     1     -12.115  12.500  70.155  1.00  0.00    -0.368 C  
HETATM    2  C   UNL     1     -11.652  11.047  70.254  1.00  0.00    -0.322 C  
ENDROOT
BRANCH   2   3
HETATM    3  C   UNL     1     -12.654  10.169  71.041  1.00  0.00    -0.478 C  
BRANCH   3   4
HETATM    4  C   UNL     1     -12.099   8.848  71.534  1.00  0.00    -0.395 A  
HETATM    5  C   UNL     1     -10.828   8.786  72.124  1.00  0.00    -0.400 A  
HETATM    6  C   UNL     1     -11.075   6.407  72.480  1.00  0.00    -0.298 A  
HETATM    7  C   UNL     1     -10.319   7.572  72.593  1.00  0.00    -0.311 A  
HETATM    8  C   UNL     1     -12.343   6.456  71.905  1.00  0.00    -0.279 A  
HETATM    9  C   UNL     1     -12.854   7.671  71.440  1.00  0.00    -0.354 A  
ENDBRANCH   3   4
ENDBRANCH   2   3
BRANCH   2  10
HETATM   10  N   UNL     1     -11.442  10.532  68.903  1.00  0.00    -0.400 N  
HETATM   11  H   UNL     1     -12.244  10.152  68.401  1.00  0.00     0.000 HD 
HETATM   12  C   UNL     1     -10.219  10.532  68.269  1.00  0.00    -0.163 C  
HETATM   13  O   UNL     1      -9.204  11.040  68.739  1.00  0.00    -0.176 OA 
BRANCH  12  14
HETATM   14  C   UNL     1     -10.252   9.868  66.871  1.00  0.00    -0.240 C  
HETATM   15  N   UNL     1     -11.043   8.610  66.956  1.00  0.00    -0.141 NA 
HETATM   16  H2  UNL     1     -11.977   8.763  67.336  1.00  0.00     0.000 HD 
HETATM   17  H1  UNL     1     -11.065   8.172  66.035  1.00  0.00     0.000 HD 
BRANCH  14  18
HETATM   18  C   UNL     1     -10.892  10.784  65.818  1.00  0.00    -0.076 C  
BRANCH  18  19
HETATM   19  C   UNL     1     -10.015  10.956  64.572  1.00  0.00    -0.376 C  
BRANCH  19  20
HETATM   20  C   UNL     1      -8.966   9.843  64.464  1.00  0.00    -0.272 C  
BRANCH  20  21
HETATM   21  C   UNL     1      -8.326   9.827  63.076  1.00  0.00    -0.166 C  
HETATM   22  N   UNL     1      -8.335  11.166  62.499  1.00  0.00    -0.458 NA 
HETATM   23  H1  UNL     1      -7.908  11.156  61.573  1.00  0.00     0.000 HD 
HETATM   24  H2  UNL     1      -7.892  11.848  63.115  1.00  0.00     0.000 HD 
ENDBRANCH  20  21
ENDBRANCH  19  20
ENDBRANCH  18  19
ENDBRANCH  14  18
ENDBRANCH  12  14
ENDBRANCH   2  10
TORSDOF 8
ENDMDL
MODEL      235
REMARK 921   NORMALIZED FREE ENERGY PREDICTED BY IDOCK:   -3.69 KCAL/MOL
REMARK 922        TOTAL FREE ENERGY PREDICTED BY IDOCK:   -6.20 KCAL/MOL
REMARK 923 INTER-LIGAND FREE ENERGY PREDICTED BY IDOCK:   -5.07 KCAL/MOL
REMARK 924 INTRA-LIGAND FREE ENERGY PREDICTED BY IDOCK:   -1.14 KCAL/MOL
REMARK 927      BINDING AFFINITY PREDICTED BY RF-SCORE:    0.00 PKD
ROOT
HETATM    1  C   UNL     1     -10.292   8.997  71.580  1.00  0.00    -0.412 C  
HETATM    2  C   UNL     1     -11.301   9.261  70.462  1.00  0.00    -0.258 C  
ENDROOT
BRANCH   2   3
HETATM    3  C   UNL     1     -11.560  10.773  70.258  1.00  0.00    -0.427 C  
BRANCH   3   4
HETATM    4  C   UNL     1     -11.061  11.336  68.942  1.00  0.00    -0.295 A  
HETATM    5  C   UNL     1     -11.969  11.754  67.958  1.00  0.00    -0.195 A  
HETATM    6  C   UNL     1     -10.145  12.413  66.513  1.00  0.00    -0.246 A  
HETATM    7  C   UNL     1     -11.511  12.288  66.749  1.00  0.00    -0.421 A  
HETATM    8  C   UNL     1      -9.233  12.011  67.487  1.00  0.00    -0.180 A  
HETATM    9  C   UNL     1      -9.689  11.481  68.697  1.00  0.00    -0.172 A  
ENDBRANCH   3   4
ENDBRANCH   2   3
BRANCH   2  10
HETATM   10  N   UNL     1     -10.812   8.635  69.237  1.00  0.00    -0.403 N  
HETATM   11  H   UNL     1     -10.302   9.214  68.570  1.00  0.00     0.000 HD 
HETATM   12  C   UNL     1     -11.003   7.305  68.932  1.00  0.00    -0.018 C  
HETATM   13  O   UNL     1     -11.526   6.496  69.693  1.00  0.00    -0.382 OA 
BRANCH  12  14
HETATM   14  C   UNL     1     -10.448   6.908  67.543  1.00  0.00    -0.247 C  
HETATM   15  N   UNL     1     -11.524   6.225  66.773  1.00  0.00    -0.687 NA 
HETATM   16  H2  UNL     1     -12.373   6.787  66.707  1.00  0.00     0.000 HD 
HETATM   17  H1  UNL     1     -11.159   5.963  65.858  1.00  0.00     0.000 HD 
BRANCH  14  18
HETATM   18  C   UNL     1      -9.973   8.131  66.746  1.00  0.00    -0.349 C  
BRANCH  18  19
HETATM   19  C   UNL     1      -8.488   8.053  66.372  1.00  0.00    -0.138 C  
BRANCH  19  20
HETATM   20  C   UNL     1      -7.625   7.656  67.575  1.00  0.00    -0.109 C  
BRANCH  20  21
HETATM   21  C   UNL     1      -7.040   8.891  68.260  1.00  0.00    -0.078 C  
HETATM   22  N   UNL     1      -7.197   8.790  69.707  1.00  0.00    -0.050 NA 
HETATM   23  H1  UNL     1      -6.807   9.614  70.164  1.00  0.00     0.000 HD 
HETATM   24  H2  UNL     1      -6.796   7.927  70.073  1.00  0.00     0.000 HD 
ENDBRANCH  20  21
ENDBRANCH  19  20
ENDBRANCH  18  19
ENDBRANCH  14  18
ENDBRANCH  12  14
ENDBRANCH   2  10
TORSDOF 8
ENDMDL
MODEL      236
REMARK 921   NORMALIZED FREE ENERGY PREDICTED BY IDOCK:   -3.69 KCAL/MOL
REMARK 922        TOTAL FREE ENERGY PREDICTED BY IDOCK:   -6.20 KCAL/MOL
REMARK 923 INTER-LIGAND FREE ENERGY PREDICTED BY IDOCK:   -5.65 KCAL/MOL
REMARK 924 INTRA-LIGAND FREE ENERGY PREDICTED BY IDOCK:   -0.55 KCAL/MOL
REMARK 927      BINDING AFFINITY PREDICTED BY RF-SCORE:    0.00 PKD
ROOT
HETATM    1  C   UNL     1     -11.383  16.059  70.882  1.00  0.00    -0.421 C  
HETATM    2  C   UNL     1     -11.728  15.342  69.577  1.00  0.00    -0.339 C  
ENDROOT
BRANCH   2   3
HETATM    3  C   UNL     1     -11.406  16.207  68.334  1.00  0.00    -0.345 C  
BRANCH   3   4
HETATM    4  C   UNL     1     -10.174  17.079  68.464  1.00  0.00    -0.324 A  
HETATM    5  C   UNL     1      -8.894  16.505  68.468  1.00  0.00    -0.228 A  
HETATM    6  C   UNL     1      -7.881  18.692  68.669  1.00  0.00    -0.349 A  
HETATM    7  C   UNL     1      -7.754  17.308  68.572  1.00  0.00    -0.261 A  
HETATM    8  C   UNL     1      -9.146  19.275  68.655  1.00  0.00    -0.428 A  
HETATM    9  C   UNL     1     -10.286  18.474  68.547  1.00  0.00    -0.389 A  
ENDBRANCH   3   4
ENDBRANCH   2   3
BRANCH   2  10
HETATM   10  N   UNL     1     -11.010  14.070  69.540  1.00  0.00    -0.418 N  
HETATM   11  H   UNL     1     -10.229  13.939  70.182  1.00  0.00     0.000 HD 
HETATM   12  C   UNL     1     -11.330  13.039  68.684  1.00  0.00    -0.291 C  
HETATM   13  O   UNL     1     -12.298  13.050  67.930  1.00  0.00    -0.129 OA 
BRANCH  12  14
HETATM   14  C   UNL     1     -10.372  11.829  68.797  1.00  0.00    -0.179 C  
HETATM   15  N   UNL     1     -10.819  10.965  69.925  1.00  0.00    -0.446 NA 
HETATM   16  H2  UNL     1     -11.795  10.682  69.834  1.00  0.00     0.000 HD 
HETATM   17  H1  UNL     1     -10.188  10.168  69.999  1.00  0.00     0.000 HD 
BRANCH  14  18
HETATM   18  C   UNL     1     -10.355  10.990  67.511  1.00  0.00    -0.233 C  
BRANCH  18  19
HETATM   19  C   UNL     1      -9.375  11.533  66.465  1.00  0.00    -0.210 C  
BRANCH  19  20
HETATM   20  C   UNL     1      -7.981  10.914  66.624  1.00  0.00    -0.148 C  
BRANCH  20  21
HETATM   21  C   UNL     1      -6.976  11.949  67.129  1.00  0.00    -0.142 C  
HETATM   22  N   UNL     1      -7.546  13.289  67.047  1.00  0.00    -0.369 NA 
HETATM   23  H1  UNL     1      -6.875  13.980  67.383  1.00  0.00     0.000 HD 
HETATM   24  H2  UNL     1      -8.437  13.354  67.538  1.00  0.00     0.000 HD 
ENDBRANCH  20  21
ENDBRANCH  19  20
ENDBRANCH  18  19
ENDBRANCH  14  18
ENDBRANCH  12  14
ENDBRANCH   2  10
TORSDOF 8
ENDMDL
MODEL      237
REMARK 921   NORMALIZED FREE ENERGY PREDICTED BY IDOCK:   -3.68 KCAL/MOL
REMARK 922        TOTAL FREE ENERGY PREDICTED BY IDOCK:   -6.19 KCAL/MOL
REMARK 923 INTER-LIGAND FREE ENERGY PREDICTED BY IDOCK:   -5.32 KCAL/MOL
REMARK 924 INTRA-LIGAND FREE ENERGY PREDICTED BY IDOCK:   -0.87 KCAL/MOL
REMARK 927      BINDING AFFINITY PREDICTED BY RF-SCORE:    0.00 PKD
ROOT
HETATM    1  C   UNL     1     -12.332  14.925  64.187  1.00  0.00    -0.212 C  
HETATM    2  C   UNL     1     -12.118  14.250  65.541  1.00  0.00    -0.394 C  
ENDROOT
BRANCH   2   3
HETATM    3  C   UNL     1     -12.372  12.725  65.479  1.00  0.00    -0.495 C  
BRANCH   3   4
HETATM    4  C   UNL     1     -11.221  11.906  64.930  1.00  0.00    -0.350 A  
HETATM    5  C   UNL     1     -10.728  12.150  63.639  1.00  0.00    -0.518 A  
HETATM    6  C   UNL     1      -9.066  10.415  63.915  1.00  0.00    -0.272 A  
HETATM    7  C   UNL     1      -9.656  11.406  63.135  1.00  0.00    -0.398 A  
HETATM    8  C   UNL     1      -9.539  10.170  65.202  1.00  0.00    -0.354 A  
HETATM    9  C   UNL     1     -10.608  10.916  65.709  1.00  0.00    -0.230 A  
ENDBRANCH   3   4
ENDBRANCH   2   3
BRANCH   2  10
HETATM   10  N   UNL     1     -10.762  14.546  65.999  1.00  0.00    -0.297 N  
HETATM   11  H   UNL     1      -9.982  14.274  65.401  1.00  0.00     0.000 HD 
HETATM   12  C   UNL     1     -10.480  15.171  67.194  1.00  0.00    -0.280 C  
HETATM   13  O   UNL     1     -11.337  15.616  67.952  1.00  0.00    -0.344 OA 
BRANCH  12  14
HETATM   14  C   UNL     1      -8.964  15.303  67.475  1.00  0.00    -0.185 C  
HETATM   15  N   UNL     1      -8.661  16.719  67.819  1.00  0.00    -0.207 NA 
HETATM   16  H2  UNL     1      -9.231  17.062  68.593  1.00  0.00     0.000 HD 
HETATM   17  H1  UNL     1      -7.662  16.807  68.004  1.00  0.00     0.000 HD 
BRANCH  14  18
HETATM   18  C   UNL     1      -8.517  14.406  68.638  1.00  0.00    -0.156 C  
BRANCH  18  19
HETATM   19  C   UNL     1      -8.501  12.919  68.266  1.00  0.00    -0.161 C  
BRANCH  19  20
HETATM   20  C   UNL     1      -7.618  12.655  67.041  1.00  0.00     0.006 C  
BRANCH  20  21
HETATM   21  C   UNL     1      -6.197  12.276  67.461  1.00  0.00    -0.140 C  
HETATM   22  N   UNL     1      -5.349  13.461  67.505  1.00  0.00    -0.335 NA 
HETATM   23  H1  UNL     1      -4.401  13.209  67.785  1.00  0.00     0.000 HD 
HETATM   24  H2  UNL     1      -5.741  14.188  68.103  1.00  0.00     0.000 HD 
ENDBRANCH  20  21
ENDBRANCH  19  20
ENDBRANCH  18  19
ENDBRANCH  14  18
ENDBRANCH  12  14
ENDBRANCH   2  10
TORSDOF 8
ENDMDL
MODEL      238
REMARK 921   NORMALIZED FREE ENERGY PREDICTED BY IDOCK:   -3.68 KCAL/MOL
REMARK 922        TOTAL FREE ENERGY PREDICTED BY IDOCK:   -6.19 KCAL/MOL
REMARK 923 INTER-LIGAND FREE ENERGY PREDICTED BY IDOCK:   -5.61 KCAL/MOL
REMARK 924 INTRA-LIGAND FREE ENERGY PREDICTED BY IDOCK:   -0.57 KCAL/MOL
REMARK 927      BINDING AFFINITY PREDICTED BY RF-SCORE:    0.00 PKD
ROOT
HETATM    1  C   UNL     1      -9.502  10.127  66.567  1.00  0.00    -0.214 C  
HETATM    2  C   UNL     1     -10.306  10.127  67.867  1.00  0.00    -0.194 C  
ENDROOT
BRANCH   2   3
HETATM    3  C   UNL     1     -11.534  11.066  67.793  1.00  0.00    -0.339 C  
BRANCH   3   4
HETATM    4  C   UNL     1     -11.949  11.683  69.113  1.00  0.00    -0.378 A  
HETATM    5  C   UNL     1     -11.817  13.063  69.326  1.00  0.00    -0.370 A  
HETATM    6  C   UNL     1     -12.748  12.841  71.546  1.00  0.00    -0.330 A  
HETATM    7  C   UNL     1     -12.213  13.638  70.537  1.00  0.00    -0.438 A  
HETATM    8  C   UNL     1     -12.894  11.470  71.344  1.00  0.00    -0.489 A  
HETATM    9  C   UNL     1     -12.502  10.896  70.132  1.00  0.00    -0.356 A  
ENDBRANCH   3   4
ENDBRANCH   2   3
BRANCH   2  10
HETATM   10  N   UNL     1     -10.703   8.754  68.168  1.00  0.00    -0.439 N  
HETATM   11  H   UNL     1     -11.525   8.376  67.697  1.00  0.00     0.000 HD 
HETATM   12  C   UNL     1     -10.029   7.942  69.054  1.00  0.00    -0.187 C  
HETATM   13  O   UNL     1      -8.983   8.259  69.613  1.00  0.00    -0.147 OA 
BRANCH  12  14
HETATM   14  C   UNL     1     -10.695   6.558  69.247  1.00  0.00    -0.280 C  
HETATM   15  N   UNL     1     -11.953   6.733  70.022  1.00  0.00    -0.656 NA 
HETATM   16  H2  UNL     1     -12.583   7.412  69.594  1.00  0.00     0.000 HD 
HETATM   17  H1  UNL     1     -12.392   5.822  70.149  1.00  0.00     0.000 HD 
BRANCH  14  18
HETATM   18  C   UNL     1     -11.031   5.894  67.904  1.00  0.00    -0.248 C  
BRANCH  18  19
HETATM   19  C   UNL     1      -9.874   5.052  67.354  1.00  0.00    -0.207 C  
BRANCH  19  20
HETATM   20  C   UNL     1      -9.428   5.544  65.972  1.00  0.00    -0.147 C  
BRANCH  20  21
HETATM   21  C   UNL     1      -8.002   5.088  65.662  1.00  0.00    -0.107 C  
HETATM   22  N   UNL     1      -7.751   3.777  66.251  1.00  0.00    -0.088 NA 
HETATM   23  H1  UNL     1      -6.800   3.473  66.045  1.00  0.00     0.000 HD 
HETATM   24  H2  UNL     1      -8.443   3.089  65.955  1.00  0.00     0.000 HD 
ENDBRANCH  20  21
ENDBRANCH  19  20
ENDBRANCH  18  19
ENDBRANCH  14  18
ENDBRANCH  12  14
ENDBRANCH   2  10
TORSDOF 8
ENDMDL
MODEL      239
REMARK 921   NORMALIZED FREE ENERGY PREDICTED BY IDOCK:   -3.66 KCAL/MOL
REMARK 922        TOTAL FREE ENERGY PREDICTED BY IDOCK:   -6.16 KCAL/MOL
REMARK 923 INTER-LIGAND FREE ENERGY PREDICTED BY IDOCK:   -6.31 KCAL/MOL
REMARK 924 INTRA-LIGAND FREE ENERGY PREDICTED BY IDOCK:    0.15 KCAL/MOL
REMARK 927      BINDING AFFINITY PREDICTED BY RF-SCORE:    0.00 PKD
ROOT
HETATM    1  C   UNL     1     -13.431   9.830  71.007  1.00  0.00    -0.243 C  
HETATM    2  C   UNL     1     -12.073  10.454  71.326  1.00  0.00    -0.362 C  
ENDROOT
BRANCH   2   3
HETATM    3  C   UNL     1     -10.902   9.493  71.007  1.00  0.00    -0.423 C  
BRANCH   3   4
HETATM    4  C   UNL     1     -10.845   8.246  71.866  1.00  0.00    -0.350 A  
HETATM    5  C   UNL     1     -11.499   7.073  71.461  1.00  0.00    -0.306 A  
HETATM    6  C   UNL     1     -10.716   5.919  73.437  1.00  0.00    -0.293 A  
HETATM    7  C   UNL     1     -11.435   5.916  72.244  1.00  0.00    -0.351 A  
HETATM    8  C   UNL     1     -10.054   7.074  73.845  1.00  0.00    -0.386 A  
HETATM    9  C   UNL     1     -10.113   8.230  73.062  1.00  0.00    -0.187 A  
ENDBRANCH   3   4
ENDBRANCH   2   3
BRANCH   2  10
HETATM   10  N   UNL     1     -11.950  11.706  70.584  1.00  0.00    -0.452 N  
HETATM   11  H   UNL     1     -11.853  12.572  71.113  1.00  0.00     0.000 HD 
HETATM   12  C   UNL     1     -11.960  11.782  69.208  1.00  0.00    -0.291 C  
HETATM   13  O   UNL     1     -11.987  10.802  68.469  1.00  0.00    -0.487 OA 
BRANCH  12  14
HETATM   14  C   UNL     1     -11.885  13.231  68.672  1.00  0.00    -0.345 C  
HETATM   15  N   UNL     1     -11.420  14.125  69.768  1.00  0.00    -0.336 NA 
HETATM   16  H2  UNL     1     -10.537  13.815  70.176  1.00  0.00     0.000 HD 
HETATM   17  H1  UNL     1     -11.371  15.081  69.416  1.00  0.00     0.000 HD 
BRANCH  14  18
HETATM   18  C   UNL     1     -10.914  13.355  67.489  1.00  0.00    -0.284 C  
BRANCH  18  19
HETATM   19  C   UNL     1     -10.834  14.782  66.937  1.00  0.00    -0.316 C  
BRANCH  19  20
HETATM   20  C   UNL     1      -9.383  15.269  66.843  1.00  0.00    -0.255 C  
BRANCH  20  21
HETATM   21  C   UNL     1      -9.326  16.755  66.491  1.00  0.00    -0.264 C  
HETATM   22  N   UNL     1      -8.116  17.050  65.732  1.00  0.00    -0.376 NA 
HETATM   23  H1  UNL     1      -8.078  18.042  65.498  1.00  0.00     0.000 HD 
HETATM   24  H2  UNL     1      -8.033  16.460  64.905  1.00  0.00     0.000 HD 
ENDBRANCH  20  21
ENDBRANCH  19  20
ENDBRANCH  18  19
ENDBRANCH  14  18
ENDBRANCH  12  14
ENDBRANCH   2  10
TORSDOF 8
ENDMDL
MODEL      240
REMARK 921   NORMALIZED FREE ENERGY PREDICTED BY IDOCK:   -3.66 KCAL/MOL
REMARK 922        TOTAL FREE ENERGY PREDICTED BY IDOCK:   -6.16 KCAL/MOL
REMARK 923 INTER-LIGAND FREE ENERGY PREDICTED BY IDOCK:   -5.54 KCAL/MOL
REMARK 924 INTRA-LIGAND FREE ENERGY PREDICTED BY IDOCK:   -0.62 KCAL/MOL
REMARK 927      BINDING AFFINITY PREDICTED BY RF-SCORE:    0.00 PKD
ROOT
HETATM    1  C   UNL     1     -11.570  13.776  64.523  1.00  0.00    -0.413 C  
HETATM    2  C   UNL     1     -11.505  14.822  65.635  1.00  0.00    -0.327 C  
ENDROOT
BRANCH   2   3
HETATM    3  C   UNL     1     -11.892  14.233  67.013  1.00  0.00    -0.455 C  
BRANCH   3   4
HETATM    4  C   UNL     1     -11.117  12.996  67.420  1.00  0.00    -0.302 A  
HETATM    5  C   UNL     1      -9.798  13.103  67.884  1.00  0.00    -0.231 A  
HETATM    6  C   UNL     1      -9.685  10.709  68.210  1.00  0.00    -0.169 A  
HETATM    7  C   UNL     1      -9.086  11.965  68.275  1.00  0.00    -0.183 A  
HETATM    8  C   UNL     1     -10.999  10.590  67.761  1.00  0.00    -0.372 A  
HETATM    9  C   UNL     1     -11.712  11.727  67.374  1.00  0.00    -0.304 A  
ENDBRANCH   3   4
ENDBRANCH   2   3
BRANCH   2  10
HETATM   10  N   UNL     1     -10.160  15.393  65.659  1.00  0.00    -0.352 N  
HETATM   11  H   UNL     1      -9.422  14.908  65.150  1.00  0.00     0.000 HD 
HETATM   12  C   UNL     1      -9.835  16.550  66.333  1.00  0.00    -0.293 C  
HETATM   13  O   UNL     1     -10.655  17.261  66.907  1.00  0.00    -0.300 OA 
BRANCH  12  14
HETATM   14  C   UNL     1      -8.330  16.901  66.258  1.00  0.00    -0.296 C  
HETATM   15  N   UNL     1      -8.189  18.327  65.854  1.00  0.00    -0.508 NA 
HETATM   16  H2  UNL     1      -8.706  18.958  66.467  1.00  0.00     0.000 HD 
HETATM   17  H1  UNL     1      -7.197  18.559  65.804  1.00  0.00     0.000 HD 
BRANCH  14  18
HETATM   18  C   UNL     1      -7.627  16.699  67.608  1.00  0.00    -0.170 C  
BRANCH  18  19
HETATM   19  C   UNL     1      -6.099  16.690  67.484  1.00  0.00    -0.180 C  
BRANCH  19  20
HETATM   20  C   UNL     1      -5.459  17.790  68.338  1.00  0.00    -0.158 C  
BRANCH  20  21
HETATM   21  C   UNL     1      -6.523  18.715  68.928  1.00  0.00    -0.245 C  
HETATM   22  N   UNL     1      -6.547  19.983  68.208  1.00  0.00    -0.276 NA 
HETATM   23  H1  UNL     1      -7.257  20.601  68.602  1.00  0.00     0.000 HD 
HETATM   24  H2  UNL     1      -6.674  19.849  67.205  1.00  0.00     0.000 HD 
ENDBRANCH  20  21
ENDBRANCH  19  20
ENDBRANCH  18  19
ENDBRANCH  14  18
ENDBRANCH  12  14
ENDBRANCH   2  10
TORSDOF 8
ENDMDL
MODEL      241
REMARK 921   NORMALIZED FREE ENERGY PREDICTED BY IDOCK:   -3.65 KCAL/MOL
REMARK 922        TOTAL FREE ENERGY PREDICTED BY IDOCK:   -6.15 KCAL/MOL
REMARK 923 INTER-LIGAND FREE ENERGY PREDICTED BY IDOCK:   -5.38 KCAL/MOL
REMARK 924 INTRA-LIGAND FREE ENERGY PREDICTED BY IDOCK:   -0.76 KCAL/MOL
REMARK 927      BINDING AFFINITY PREDICTED BY RF-SCORE:    0.00 PKD
ROOT
HETATM    1  C   UNL     1      -9.191  12.934  67.333  1.00  0.00    -0.197 C  
HETATM    2  C   UNL     1      -9.829  11.972  68.335  1.00  0.00    -0.204 C  
ENDROOT
BRANCH   2   3
HETATM    3  C   UNL     1     -11.371  12.097  68.362  1.00  0.00    -0.336 C  
BRANCH   3   4
HETATM    4  C   UNL     1     -11.992  12.066  69.744  1.00  0.00    -0.370 A  
HETATM    5  C   UNL     1     -12.385  13.255  70.374  1.00  0.00    -0.365 A  
HETATM    6  C   UNL     1     -13.175  12.014  72.293  1.00  0.00    -0.235 A  
HETATM    7  C   UNL     1     -12.972  13.228  71.643  1.00  0.00    -0.441 A  
HETATM    8  C   UNL     1     -12.799  10.824  71.674  1.00  0.00    -0.562 A  
HETATM    9  C   UNL     1     -12.216  10.849  70.404  1.00  0.00    -0.453 A  
ENDBRANCH   3   4
ENDBRANCH   2   3
BRANCH   2  10
HETATM   10  N   UNL     1      -9.410  10.612  68.006  1.00  0.00    -0.145 N  
HETATM   11  H   UNL     1      -9.947  10.099  67.307  1.00  0.00     0.000 HD 
HETATM   12  C   UNL     1      -8.331   9.984  68.588  1.00  0.00    -0.116 C  
HETATM   13  O   UNL     1      -7.564  10.531  69.375  1.00  0.00    -0.123 OA 
BRANCH  12  14
HETATM   14  C   UNL     1      -8.143   8.523  68.115  1.00  0.00    -0.119 C  
HETATM   15  N   UNL     1      -7.638   7.710  69.256  1.00  0.00    -0.094 NA 
HETATM   16  H2  UNL     1      -8.237   7.779  70.079  1.00  0.00     0.000 HD 
HETATM   17  H1  UNL     1      -7.513   6.747  68.945  1.00  0.00     0.000 HD 
BRANCH  14  18
HETATM   18  C   UNL     1      -9.459   7.909  67.618  1.00  0.00    -0.170 C  
BRANCH  18  19
HETATM   19  C   UNL     1      -9.661   6.469  68.103  1.00  0.00    -0.123 C  
BRANCH  19  20
HETATM   20  C   UNL     1     -11.098   6.233  68.582  1.00  0.00    -0.409 C  
BRANCH  20  21
HETATM   21  C   UNL     1     -11.154   6.117  70.106  1.00  0.00    -0.378 C  
HETATM   22  N   UNL     1     -12.074   7.105  70.655  1.00  0.00    -0.543 NA 
HETATM   23  H1  UNL     1     -12.111   7.028  71.672  1.00  0.00     0.000 HD 
HETATM   24  H2  UNL     1     -13.001   7.038  70.234  1.00  0.00     0.000 HD 
ENDBRANCH  20  21
ENDBRANCH  19  20
ENDBRANCH  18  19
ENDBRANCH  14  18
ENDBRANCH  12  14
ENDBRANCH   2  10
TORSDOF 8
ENDMDL
MODEL      242
REMARK 921   NORMALIZED FREE ENERGY PREDICTED BY IDOCK:   -3.64 KCAL/MOL
REMARK 922        TOTAL FREE ENERGY PREDICTED BY IDOCK:   -6.13 KCAL/MOL
REMARK 923 INTER-LIGAND FREE ENERGY PREDICTED BY IDOCK:   -5.22 KCAL/MOL
REMARK 924 INTRA-LIGAND FREE ENERGY PREDICTED BY IDOCK:   -0.91 KCAL/MOL
REMARK 927      BINDING AFFINITY PREDICTED BY RF-SCORE:    0.00 PKD
ROOT
HETATM    1  C   UNL     1     -12.239  13.785  66.613  1.00  0.00    -0.454 C  
HETATM    2  C   UNL     1     -10.842  13.953  66.014  1.00  0.00    -0.290 C  
ENDROOT
BRANCH   2   3
HETATM    3  C   UNL     1      -9.827  14.498  67.048  1.00  0.00    -0.249 C  
BRANCH   3   4
HETATM    4  C   UNL     1      -8.885  13.463  67.627  1.00  0.00    -0.200 A  
HETATM    5  C   UNL     1      -7.500  13.572  67.429  1.00  0.00    -0.136 A  
HETATM    6  C   UNL     1      -7.126  11.565  68.726  1.00  0.00    -0.108 A  
HETATM    7  C   UNL     1      -6.627  12.627  67.975  1.00  0.00    -0.095 A  
HETATM    8  C   UNL     1      -8.499  11.451  68.938  1.00  0.00    -0.028 A  
HETATM    9  C   UNL     1      -9.372  12.398  68.396  1.00  0.00    -0.158 A  
ENDBRANCH   3   4
ENDBRANCH   2   3
BRANCH   2  10
HETATM   10  N   UNL     1     -10.411  12.667  65.472  1.00  0.00    -0.282 N  
HETATM   11  H   UNL     1      -9.679  12.157  65.966  1.00  0.00     0.000 HD 
HETATM   12  C   UNL     1     -10.938  12.106  64.329  1.00  0.00    -0.339 C  
HETATM   13  O   UNL     1     -11.878  12.586  63.702  1.00  0.00    -0.442 OA 
BRANCH  12  14
HETATM   14  C   UNL     1     -10.260  10.773  63.931  1.00  0.00    -0.309 C  
HETATM   15  N   UNL     1      -9.897  10.831  62.488  1.00  0.00    -0.667 NA 
HETATM   16  H2  UNL     1      -9.322  11.643  62.264  1.00  0.00     0.000 HD 
HETATM   17  H1  UNL     1      -9.451   9.953  62.226  1.00  0.00     0.000 HD 
BRANCH  14  18
HETATM   18  C   UNL     1      -8.987  10.512  64.750  1.00  0.00    -0.227 C  
BRANCH  18  19
HETATM   19  C   UNL     1      -9.060   9.212  65.558  1.00  0.00    -0.275 C  
BRANCH  19  20
HETATM   20  C   UNL     1     -10.376   9.105  66.335  1.00  0.00    -0.235 C  
BRANCH  20  21
HETATM   21  C   UNL     1     -10.334   7.941  67.326  1.00  0.00    -0.307 C  
HETATM   22  N   UNL     1     -10.953   8.328  68.588  1.00  0.00    -0.417 NA 
HETATM   23  H1  UNL     1     -10.924   7.552  69.250  1.00  0.00     0.000 HD 
HETATM   24  H2  UNL     1     -11.901   8.680  68.455  1.00  0.00     0.000 HD 
ENDBRANCH  20  21
ENDBRANCH  19  20
ENDBRANCH  18  19
ENDBRANCH  14  18
ENDBRANCH  12  14
ENDBRANCH   2  10
TORSDOF 8
ENDMDL
MODEL      243
REMARK 921   NORMALIZED FREE ENERGY PREDICTED BY IDOCK:   -3.63 KCAL/MOL
REMARK 922        TOTAL FREE ENERGY PREDICTED BY IDOCK:   -6.11 KCAL/MOL
REMARK 923 INTER-LIGAND FREE ENERGY PREDICTED BY IDOCK:   -5.49 KCAL/MOL
REMARK 924 INTRA-LIGAND FREE ENERGY PREDICTED BY IDOCK:   -0.62 KCAL/MOL
REMARK 927      BINDING AFFINITY PREDICTED BY RF-SCORE:    0.00 PKD
ROOT
HETATM    1  C   UNL     1      -9.438  15.422  65.936  1.00  0.00    -0.369 C  
HETATM    2  C   UNL     1     -10.241  15.834  67.169  1.00  0.00    -0.279 C  
ENDROOT
BRANCH   2   3
HETATM    3  C   UNL     1      -9.989  14.892  68.371  1.00  0.00    -0.222 C  
BRANCH   3   4
HETATM    4  C   UNL     1     -10.116  13.414  68.062  1.00  0.00    -0.241 A  
HETATM    5  C   UNL     1     -11.307  12.898  67.531  1.00  0.00    -0.354 A  
HETATM    6  C   UNL     1     -10.349  10.679  67.456  1.00  0.00    -0.254 A  
HETATM    7  C   UNL     1     -11.422  11.537  67.231  1.00  0.00    -0.338 A  
HETATM    8  C   UNL     1      -9.156  11.180  67.973  1.00  0.00    -0.153 A  
HETATM    9  C   UNL     1      -9.039  12.541  68.269  1.00  0.00    -0.183 A  
ENDBRANCH   3   4
ENDBRANCH   2   3
BRANCH   2  10
HETATM   10  N   UNL     1      -9.909  17.218  67.500  1.00  0.00    -0.268 N  
HETATM   11  H   UNL     1      -9.437  17.402  68.384  1.00  0.00     0.000 HD 
HETATM   12  C   UNL     1     -10.200  18.288  66.682  1.00  0.00    -0.384 C  
HETATM   13  O   UNL     1     -10.688  18.180  65.561  1.00  0.00    -0.599 OA 
BRANCH  12  14
HETATM   14  C   UNL     1      -9.806  19.653  67.294  1.00  0.00    -0.371 C  
HETATM   15  N   UNL     1      -9.223  19.424  68.645  1.00  0.00    -0.372 NA 
HETATM   16  H2  UNL     1      -8.443  18.766  68.626  1.00  0.00     0.000 HD 
HETATM   17  H1  UNL     1      -8.964  20.323  69.049  1.00  0.00     0.000 HD 
BRANCH  14  18
HETATM   18  C   UNL     1      -8.774  20.391  66.430  1.00  0.00    -0.150 C  
BRANCH  18  19
HETATM   19  C   UNL     1      -7.507  20.762  67.209  1.00  0.00    -0.381 C  
BRANCH  19  20
HETATM   20  C   UNL     1      -6.254  20.150  66.572  1.00  0.00    -0.201 C  
BRANCH  20  21
HETATM   21  C   UNL     1      -5.991  18.747  67.119  1.00  0.00    -0.162 C  
HETATM   22  N   UNL     1      -6.350  18.678  68.531  1.00  0.00    -0.212 NA 
HETATM   23  H1  UNL     1      -6.174  17.743  68.896  1.00  0.00     0.000 HD 
HETATM   24  H2  UNL     1      -7.312  18.975  68.693  1.00  0.00     0.000 HD 
ENDBRANCH  20  21
ENDBRANCH  19  20
ENDBRANCH  18  19
ENDBRANCH  14  18
ENDBRANCH  12  14
ENDBRANCH   2  10
TORSDOF 8
ENDMDL
MODEL      244
REMARK 921   NORMALIZED FREE ENERGY PREDICTED BY IDOCK:   -3.62 KCAL/MOL
REMARK 922        TOTAL FREE ENERGY PREDICTED BY IDOCK:   -6.09 KCAL/MOL
REMARK 923 INTER-LIGAND FREE ENERGY PREDICTED BY IDOCK:   -5.32 KCAL/MOL
REMARK 924 INTRA-LIGAND FREE ENERGY PREDICTED BY IDOCK:   -0.78 KCAL/MOL
REMARK 927      BINDING AFFINITY PREDICTED BY RF-SCORE:    0.00 PKD
ROOT
HETATM    1  C   UNL     1      -8.261   7.467  66.702  1.00  0.00    -0.125 C  
HETATM    2  C   UNL     1      -9.060   8.466  67.537  1.00  0.00    -0.134 C  
ENDROOT
BRANCH   2   3
HETATM    3  C   UNL     1     -10.391   8.863  66.854  1.00  0.00    -0.332 C  
BRANCH   3   4
HETATM    4  C   UNL     1     -10.659  10.353  66.791  1.00  0.00    -0.270 A  
HETATM    5  C   UNL     1     -11.133  11.039  67.920  1.00  0.00    -0.347 A  
HETATM    6  C   UNL     1     -11.126  13.123  66.694  1.00  0.00    -0.316 A  
HETATM    7  C   UNL     1     -11.367  12.416  67.870  1.00  0.00    -0.344 A  
HETATM    8  C   UNL     1     -10.644  12.457  65.570  1.00  0.00    -0.307 A  
HETATM    9  C   UNL     1     -10.406  11.081  65.620  1.00  0.00    -0.311 A  
ENDBRANCH   3   4
ENDBRANCH   2   3
BRANCH   2  10
HETATM   10  N   UNL     1      -9.292   7.888  68.858  1.00  0.00    -0.150 N  
HETATM   11  H   UNL     1      -9.670   6.943  68.911  1.00  0.00     0.000 HD 
HETATM   12  C   UNL     1      -9.029   8.552  70.037  1.00  0.00    -0.142 C  
HETATM   13  O   UNL     1      -8.497   9.656  70.097  1.00  0.00    -0.182 OA 
BRANCH  12  14
HETATM   14  C   UNL     1      -9.428   7.746  71.297  1.00  0.00    -0.153 C  
HETATM   15  N   UNL     1      -9.085   8.543  72.506  1.00  0.00    -0.312 NA 
HETATM   16  H2  UNL     1      -9.503   9.473  72.491  1.00  0.00     0.000 HD 
HETATM   17  H1  UNL     1      -9.348   8.012  73.336  1.00  0.00     0.000 HD 
BRANCH  14  18
HETATM   18  C   UNL     1     -10.931   7.432  71.323  1.00  0.00    -0.263 C  
BRANCH  18  19
HETATM   19  C   UNL     1     -11.726   8.419  72.185  1.00  0.00    -0.442 C  
BRANCH  19  20
HETATM   20  C   UNL     1     -12.104   9.678  71.397  1.00  0.00    -0.472 C  
BRANCH  20  21
HETATM   21  C   UNL     1     -13.608   9.722  71.122  1.00  0.00    -0.168 C  
HETATM   22  N   UNL     1     -14.224   8.449  71.477  1.00  0.00    -0.549 NA 
HETATM   23  H1  UNL     1     -15.227   8.478  71.293  1.00  0.00     0.000 HD 
HETATM   24  H2  UNL     1     -14.021   8.184  72.441  1.00  0.00     0.000 HD 
ENDBRANCH  20  21
ENDBRANCH  19  20
ENDBRANCH  18  19
ENDBRANCH  14  18
ENDBRANCH  12  14
ENDBRANCH   2  10
TORSDOF 8
ENDMDL
MODEL      245
REMARK 921   NORMALIZED FREE ENERGY PREDICTED BY IDOCK:   -3.60 KCAL/MOL
REMARK 922        TOTAL FREE ENERGY PREDICTED BY IDOCK:   -6.07 KCAL/MOL
REMARK 923 INTER-LIGAND FREE ENERGY PREDICTED BY IDOCK:   -6.12 KCAL/MOL
REMARK 924 INTRA-LIGAND FREE ENERGY PREDICTED BY IDOCK:    0.04 KCAL/MOL
REMARK 927      BINDING AFFINITY PREDICTED BY RF-SCORE:    0.00 PKD
ROOT
HETATM    1  C   UNL     1      -8.450   7.918  69.578  1.00  0.00    -0.133 C  
HETATM    2  C   UNL     1      -9.064   7.256  68.345  1.00  0.00    -0.135 C  
ENDROOT
BRANCH   2   3
HETATM    3  C   UNL     1     -10.495   6.732  68.618  1.00  0.00    -0.232 C  
BRANCH   3   4
HETATM    4  C   UNL     1     -10.750   6.277  70.041  1.00  0.00    -0.346 A  
HETATM    5  C   UNL     1     -11.638   6.983  70.865  1.00  0.00    -0.370 A  
HETATM    6  C   UNL     1     -11.254   5.420  72.670  1.00  0.00    -0.333 A  
HETATM    7  C   UNL     1     -11.887   6.557  72.173  1.00  0.00    -0.348 A  
HETATM    8  C   UNL     1     -10.378   4.702  71.857  1.00  0.00    -0.220 A  
HETATM    9  C   UNL     1     -10.132   5.126  70.548  1.00  0.00    -0.326 A  
ENDBRANCH   3   4
ENDBRANCH   2   3
BRANCH   2  10
HETATM   10  N   UNL     1      -9.050   8.216  67.245  1.00  0.00    -0.136 N  
HETATM   11  H   UNL     1      -8.539   7.971  66.397  1.00  0.00     0.000 HD 
HETATM   12  C   UNL     1      -9.690   9.436  67.290  1.00  0.00    -0.165 C  
HETATM   13  O   UNL     1     -10.403   9.801  68.220  1.00  0.00    -0.179 OA 
BRANCH  12  14
HETATM   14  C   UNL     1      -9.462  10.295  66.022  1.00  0.00    -0.185 C  
HETATM   15  N   UNL     1      -9.517   9.410  64.826  1.00  0.00    -0.446 NA 
HETATM   16  H2  UNL     1     -10.382   8.870  64.781  1.00  0.00     0.000 HD 
HETATM   17  H1  UNL     1      -9.367   9.975  63.991  1.00  0.00     0.000 HD 
BRANCH  14  18
HETATM   18  C   UNL     1     -10.528  11.390  65.875  1.00  0.00    -0.309 C  
BRANCH  18  19
HETATM   19  C   UNL     1      -9.949  12.802  66.017  1.00  0.00    -0.277 C  
BRANCH  19  20
HETATM   20  C   UNL     1     -10.452  13.732  64.907  1.00  0.00    -0.437 C  
BRANCH  20  21
HETATM   21  C   UNL     1     -11.806  13.264  64.373  1.00  0.00    -0.399 C  
HETATM   22  N   UNL     1     -12.321  14.215  63.395  1.00  0.00    -1.144 NA 
HETATM   23  H1  UNL     1     -13.225  13.903  63.039  1.00  0.00     0.000 HD 
HETATM   24  H2  UNL     1     -11.654  14.385  62.642  1.00  0.00     0.000 HD 
ENDBRANCH  20  21
ENDBRANCH  19  20
ENDBRANCH  18  19
ENDBRANCH  14  18
ENDBRANCH  12  14
ENDBRANCH   2  10
TORSDOF 8
ENDMDL
MODEL      246
REMARK 921   NORMALIZED FREE ENERGY PREDICTED BY IDOCK:   -3.60 KCAL/MOL
REMARK 922        TOTAL FREE ENERGY PREDICTED BY IDOCK:   -6.07 KCAL/MOL
REMARK 923 INTER-LIGAND FREE ENERGY PREDICTED BY IDOCK:   -5.69 KCAL/MOL
REMARK 924 INTRA-LIGAND FREE ENERGY PREDICTED BY IDOCK:   -0.37 KCAL/MOL
REMARK 927      BINDING AFFINITY PREDICTED BY RF-SCORE:    0.00 PKD
ROOT
HETATM    1  C   UNL     1     -11.240   6.874  68.009  1.00  0.00    -0.087 C  
HETATM    2  C   UNL     1     -10.168   7.904  68.363  1.00  0.00    -0.202 C  
ENDROOT
BRANCH   2   3
HETATM    3  C   UNL     1     -10.439   9.276  67.701  1.00  0.00    -0.325 C  
BRANCH   3   4
HETATM    4  C   UNL     1      -9.824   9.457  66.328  1.00  0.00    -0.351 A  
HETATM    5  C   UNL     1      -8.837   8.572  65.868  1.00  0.00    -0.219 A  
HETATM    6  C   UNL     1      -8.703   9.763  63.768  1.00  0.00    -0.239 A  
HETATM    7  C   UNL     1      -8.279   8.726  64.596  1.00  0.00    -0.166 A  
HETATM    8  C   UNL     1      -9.691  10.643  64.208  1.00  0.00    -0.372 A  
HETATM    9  C   UNL     1     -10.252  10.487  65.479  1.00  0.00    -0.325 A  
ENDBRANCH   3   4
ENDBRANCH   2   3
BRANCH   2  10
HETATM   10  N   UNL     1     -10.097   8.021  69.818  1.00  0.00    -0.192 N  
HETATM   11  H   UNL     1     -10.460   8.869  70.252  1.00  0.00     0.000 HD 
HETATM   12  C   UNL     1      -9.566   7.047  70.635  1.00  0.00    -0.165 C  
HETATM   13  O   UNL     1      -9.178   5.953  70.235  1.00  0.00    -0.150 OA 
BRANCH  12  14
HETATM   14  C   UNL     1      -9.546   7.445  72.131  1.00  0.00    -0.146 C  
HETATM   15  N   UNL     1      -8.798   8.724  72.278  1.00  0.00    -0.395 NA 
HETATM   16  H2  UNL     1      -9.172   9.464  71.683  1.00  0.00     0.000 HD 
HETATM   17  H1  UNL     1      -8.785   8.986  73.263  1.00  0.00     0.000 HD 
BRANCH  14  18
HETATM   18  C   UNL     1     -10.963   7.635  72.691  1.00  0.00    -0.405 C  
BRANCH  18  19
HETATM   19  C   UNL     1     -12.005   6.775  71.967  1.00  0.00    -0.355 C  
BRANCH  19  20
HETATM   20  C   UNL     1     -13.286   7.567  71.680  1.00  0.00    -0.414 C  
BRANCH  20  21
HETATM   21  C   UNL     1     -13.100   9.048  72.008  1.00  0.00    -0.414 C  
HETATM   22  N   UNL     1     -14.131   9.494  72.938  1.00  0.00    -0.769 NA 
HETATM   23  H1  UNL     1     -14.007  10.483  73.157  1.00  0.00     0.000 HD 
HETATM   24  H2  UNL     1     -14.158   8.919  73.780  1.00  0.00     0.000 HD 
ENDBRANCH  20  21
ENDBRANCH  19  20
ENDBRANCH  18  19
ENDBRANCH  14  18
ENDBRANCH  12  14
ENDBRANCH   2  10
TORSDOF 8
ENDMDL
MODEL      247
REMARK 921   NORMALIZED FREE ENERGY PREDICTED BY IDOCK:   -3.59 KCAL/MOL
REMARK 922        TOTAL FREE ENERGY PREDICTED BY IDOCK:   -6.06 KCAL/MOL
REMARK 923 INTER-LIGAND FREE ENERGY PREDICTED BY IDOCK:   -5.76 KCAL/MOL
REMARK 924 INTRA-LIGAND FREE ENERGY PREDICTED BY IDOCK:   -0.30 KCAL/MOL
REMARK 927      BINDING AFFINITY PREDICTED BY RF-SCORE:    0.00 PKD
ROOT
HETATM    1  C   UNL     1     -12.345  11.008  70.767  1.00  0.00    -0.496 C  
HETATM    2  C   UNL     1     -10.944  10.593  70.319  1.00  0.00    -0.164 C  
ENDROOT
BRANCH   2   3
HETATM    3  C   UNL     1     -10.897   9.121  69.842  1.00  0.00    -0.242 C  
BRANCH   3   4
HETATM    4  C   UNL     1     -10.915   8.088  70.950  1.00  0.00    -0.260 A  
HETATM    5  C   UNL     1     -11.974   7.173  71.053  1.00  0.00    -0.387 A  
HETATM    6  C   UNL     1     -10.940   6.146  72.983  1.00  0.00    -0.278 A  
HETATM    7  C   UNL     1     -11.986   6.209  72.065  1.00  0.00    -0.310 A  
HETATM    8  C   UNL     1      -9.877   7.042  72.885  1.00  0.00    -0.204 A  
HETATM    9  C   UNL     1      -9.862   8.004  71.871  1.00  0.00    -0.251 A  
ENDBRANCH   3   4
ENDBRANCH   2   3
BRANCH   2  10
HETATM   10  N   UNL     1     -10.501  11.507  69.269  1.00  0.00    -0.421 N  
HETATM   11  H   UNL     1      -9.607  11.982  69.390  1.00  0.00     0.000 HD 
HETATM   12  C   UNL     1     -11.225  11.762  68.125  1.00  0.00    -0.260 C  
HETATM   13  O   UNL     1     -12.269  11.186  67.833  1.00  0.00    -0.521 OA 
BRANCH  12  14
HETATM   14  C   UNL     1     -10.568  12.820  67.206  1.00  0.00    -0.233 C  
HETATM   15  N   UNL     1      -9.229  13.169  67.756  1.00  0.00    -0.194 NA 
HETATM   16  H2  UNL     1      -8.637  12.348  67.890  1.00  0.00     0.000 HD 
HETATM   17  H1  UNL     1      -8.796  13.866  67.151  1.00  0.00     0.000 HD 
BRANCH  14  18
HETATM   18  C   UNL     1     -10.392  12.302  65.771  1.00  0.00    -0.287 C  
BRANCH  18  19
HETATM   19  C   UNL     1      -9.291  11.242  65.656  1.00  0.00    -0.245 C  
BRANCH  19  20
HETATM   20  C   UNL     1      -9.846   9.908  65.144  1.00  0.00    -0.348 C  
BRANCH  20  21
HETATM   21  C   UNL     1      -9.993   8.902  66.286  1.00  0.00    -0.266 C  
HETATM   22  N   UNL     1      -9.340   7.644  65.940  1.00  0.00    -0.398 NA 
HETATM   23  H1  UNL     1      -9.439   6.973  66.702  1.00  0.00     0.000 HD 
HETATM   24  H2  UNL     1      -8.364   7.782  65.679  1.00  0.00     0.000 HD 
ENDBRANCH  20  21
ENDBRANCH  19  20
ENDBRANCH  18  19
ENDBRANCH  14  18
ENDBRANCH  12  14
ENDBRANCH   2  10
TORSDOF 8
ENDMDL
MODEL      248
REMARK 921   NORMALIZED FREE ENERGY PREDICTED BY IDOCK:   -3.59 KCAL/MOL
REMARK 922        TOTAL FREE ENERGY PREDICTED BY IDOCK:   -6.06 KCAL/MOL
REMARK 923 INTER-LIGAND FREE ENERGY PREDICTED BY IDOCK:   -5.49 KCAL/MOL
REMARK 924 INTRA-LIGAND FREE ENERGY PREDICTED BY IDOCK:   -0.57 KCAL/MOL
REMARK 927      BINDING AFFINITY PREDICTED BY RF-SCORE:    0.00 PKD
ROOT
HETATM    1  C   UNL     1     -12.503  10.876  70.964  1.00  0.00    -0.514 C  
HETATM    2  C   UNL     1     -11.455   9.808  71.278  1.00  0.00    -0.385 C  
ENDROOT
BRANCH   2   3
HETATM    3  C   UNL     1     -11.991   8.377  71.035  1.00  0.00    -0.255 C  
BRANCH   3   4
HETATM    4  C   UNL     1     -11.288   7.288  71.820  1.00  0.00    -0.285 A  
HETATM    5  C   UNL     1     -10.827   7.534  73.122  1.00  0.00    -0.448 A  
HETATM    6  C   UNL     1     -10.012   5.264  73.296  1.00  0.00    -0.185 A  
HETATM    7  C   UNL     1     -10.191   6.527  73.855  1.00  0.00    -0.353 A  
HETATM    8  C   UNL     1     -10.474   5.003  72.007  1.00  0.00    -0.269 A  
HETATM    9  C   UNL     1     -11.113   6.008  71.276  1.00  0.00    -0.337 A  
ENDBRANCH   3   4
ENDBRANCH   2   3
BRANCH   2  10
HETATM   10  N   UNL     1     -10.264  10.074  70.475  1.00  0.00    -0.396 N  
HETATM   11  H   UNL     1      -9.370  10.167  70.955  1.00  0.00     0.000 HD 
HETATM   12  C   UNL     1     -10.284  10.206  69.103  1.00  0.00    -0.214 C  
HETATM   13  O   UNL     1     -11.284  10.030  68.413  1.00  0.00    -0.218 OA 
BRANCH  12  14
HETATM   14  C   UNL     1      -8.902  10.553  68.500  1.00  0.00    -0.144 C  
HETATM   15  N   UNL     1      -8.056  11.168  69.560  1.00  0.00    -0.353 NA 
HETATM   16  H2  UNL     1      -7.982  10.579  70.390  1.00  0.00     0.000 HD 
HETATM   17  H1  UNL     1      -7.145  11.397  69.163  1.00  0.00     0.000 HD 
BRANCH  14  18
HETATM   18  C   UNL     1      -8.185   9.308  67.958  1.00  0.00    -0.115 C  
BRANCH  18  19
HETATM   19  C   UNL     1      -8.605   8.023  68.679  1.00  0.00    -0.128 C  
BRANCH  19  20
HETATM   20  C   UNL     1      -8.728   6.845  67.705  1.00  0.00    -0.120 C  
BRANCH  20  21
HETATM   21  C   UNL     1     -10.034   6.921  66.915  1.00  0.00    -0.200 C  
HETATM   22  N   UNL     1     -11.176   6.898  67.822  1.00  0.00    -0.570 NA 
HETATM   23  H1  UNL     1     -12.048   6.948  67.296  1.00  0.00     0.000 HD 
HETATM   24  H2  UNL     1     -11.116   7.631  68.529  1.00  0.00     0.000 HD 
ENDBRANCH  20  21
ENDBRANCH  19  20
ENDBRANCH  18  19
ENDBRANCH  14  18
ENDBRANCH  12  14
ENDBRANCH   2  10
TORSDOF 8
ENDMDL
MODEL      249
REMARK 921   NORMALIZED FREE ENERGY PREDICTED BY IDOCK:   -3.58 KCAL/MOL
REMARK 922        TOTAL FREE ENERGY PREDICTED BY IDOCK:   -6.04 KCAL/MOL
REMARK 923 INTER-LIGAND FREE ENERGY PREDICTED BY IDOCK:   -4.86 KCAL/MOL
REMARK 924 INTRA-LIGAND FREE ENERGY PREDICTED BY IDOCK:   -1.18 KCAL/MOL
REMARK 927      BINDING AFFINITY PREDICTED BY RF-SCORE:    0.00 PKD
ROOT
HETATM    1  C   UNL     1     -10.773   2.885  73.111  1.00  0.00    -0.257 C  
HETATM    2  C   UNL     1     -10.126   4.269  73.154  1.00  0.00    -0.148 C  
ENDROOT
BRANCH   2   3
HETATM    3  C   UNL     1      -8.728   4.278  72.491  1.00  0.00    -0.112 C  
BRANCH   3   4
HETATM    4  C   UNL     1      -8.582   5.227  71.318  1.00  0.00    -0.132 A  
HETATM    5  C   UNL     1      -7.845   6.413  71.449  1.00  0.00    -0.104 A  
HETATM    6  C   UNL     1      -8.279   6.975  69.138  1.00  0.00    -0.122 A  
HETATM    7  C   UNL     1      -7.696   7.283  70.365  1.00  0.00    -0.094 A  
HETATM    8  C   UNL     1      -9.004   5.794  68.990  1.00  0.00    -0.117 A  
HETATM    9  C   UNL     1      -9.150   4.922  70.073  1.00  0.00    -0.157 A  
ENDBRANCH   3   4
ENDBRANCH   2   3
BRANCH   2  10
HETATM   10  N   UNL     1     -11.025   5.224  72.512  1.00  0.00    -0.244 N  
HETATM   11  H   UNL     1     -11.568   4.910  71.708  1.00  0.00     0.000 HD 
HETATM   12  C   UNL     1     -11.182   6.526  72.935  1.00  0.00    -0.180 C  
HETATM   13  O   UNL     1     -10.648   6.989  73.939  1.00  0.00    -0.371 OA 
BRANCH  12  14
HETATM   14  C   UNL     1     -12.141   7.350  72.042  1.00  0.00    -0.289 C  
HETATM   15  N   UNL     1     -12.782   8.406  72.873  1.00  0.00    -0.667 NA 
HETATM   16  H2  UNL     1     -12.098   8.992  73.353  1.00  0.00     0.000 HD 
HETATM   17  H1  UNL     1     -13.414   8.949  72.286  1.00  0.00     0.000 HD 
BRANCH  14  18
HETATM   18  C   UNL     1     -11.403   8.020  70.875  1.00  0.00    -0.291 C  
BRANCH  18  19
HETATM   19  C   UNL     1     -10.940   9.443  71.206  1.00  0.00    -0.440 C  
BRANCH  19  20
HETATM   20  C   UNL     1     -10.942  10.340  69.963  1.00  0.00    -0.371 C  
BRANCH  20  21
HETATM   21  C   UNL     1     -12.152  11.274  69.963  1.00  0.00    -0.348 C  
HETATM   22  N   UNL     1     -12.850  11.198  71.241  1.00  0.00    -0.415 NA 
HETATM   23  H1  UNL     1     -13.658  11.821  71.241  1.00  0.00     0.000 HD 
HETATM   24  H2  UNL     1     -12.226  11.384  72.027  1.00  0.00     0.000 HD 
ENDBRANCH  20  21
ENDBRANCH  19  20
ENDBRANCH  18  19
ENDBRANCH  14  18
ENDBRANCH  12  14
ENDBRANCH   2  10
TORSDOF 8
ENDMDL
MODEL      250
REMARK 921   NORMALIZED FREE ENERGY PREDICTED BY IDOCK:   -3.57 KCAL/MOL
REMARK 922        TOTAL FREE ENERGY PREDICTED BY IDOCK:   -6.03 KCAL/MOL
REMARK 923 INTER-LIGAND FREE ENERGY PREDICTED BY IDOCK:   -5.53 KCAL/MOL
REMARK 924 INTRA-LIGAND FREE ENERGY PREDICTED BY IDOCK:   -0.50 KCAL/MOL
REMARK 927      BINDING AFFINITY PREDICTED BY RF-SCORE:    0.00 PKD
ROOT
HETATM    1  C   UNL     1     -12.188  13.844  69.095  1.00  0.00    -0.305 C  
HETATM    2  C   UNL     1     -11.033  13.640  68.115  1.00  0.00    -0.253 C  
ENDROOT
BRANCH   2   3
HETATM    3  C   UNL     1     -11.384  12.621  67.005  1.00  0.00    -0.377 C  
BRANCH   3   4
HETATM    4  C   UNL     1     -10.394  11.486  66.841  1.00  0.00    -0.258 A  
HETATM    5  C   UNL     1     -10.651  10.230  67.411  1.00  0.00    -0.324 A  
HETATM    6  C   UNL     1      -8.578   9.365  66.513  1.00  0.00    -0.142 A  
HETATM    7  C   UNL     1      -9.746   9.176  67.248  1.00  0.00    -0.225 A  
HETATM    8  C   UNL     1      -8.317  10.604  65.932  1.00  0.00    -0.161 A  
HETATM    9  C   UNL     1      -9.222  11.657  66.091  1.00  0.00    -0.228 A  
ENDBRANCH   3   4
ENDBRANCH   2   3
BRANCH   2  10
HETATM   10  N   UNL     1     -10.667  14.936  67.551  1.00  0.00    -0.271 N  
HETATM   11  H   UNL     1     -11.291  15.356  66.863  1.00  0.00     0.000 HD 
HETATM   12  C   UNL     1      -9.523  15.623  67.897  1.00  0.00    -0.204 C  
HETATM   13  O   UNL     1      -8.744  15.257  68.772  1.00  0.00    -0.171 OA 
BRANCH  12  14
HETATM   14  C   UNL     1      -9.334  16.938  67.104  1.00  0.00    -0.234 C  
HETATM   15  N   UNL     1     -10.444  17.869  67.446  1.00  0.00    -0.383 NA 
HETATM   16  H2  UNL     1     -10.523  18.029  68.451  1.00  0.00     0.000 HD 
HETATM   17  H1  UNL     1     -10.319  18.736  66.924  1.00  0.00     0.000 HD 
BRANCH  14  18
HETATM   18  C   UNL     1      -7.998  17.620  67.437  1.00  0.00    -0.217 C  
BRANCH  18  19
HETATM   19  C   UNL     1      -8.158  19.110  67.756  1.00  0.00    -0.310 C  
BRANCH  19  20
HETATM   20  C   UNL     1      -7.068  19.601  68.716  1.00  0.00    -0.381 C  
BRANCH  20  21
HETATM   21  C   UNL     1      -6.366  20.840  68.160  1.00  0.00    -0.313 C  
HETATM   22  N   UNL     1      -7.039  21.304  66.952  1.00  0.00    -0.769 NA 
HETATM   23  H1  UNL     1      -6.571  22.130  66.581  1.00  0.00     0.000 HD 
HETATM   24  H2  UNL     1      -8.033  21.469  67.110  1.00  0.00     0.000 HD 
ENDBRANCH  20  21
ENDBRANCH  19  20
ENDBRANCH  18  19
ENDBRANCH  14  18
ENDBRANCH  12  14
ENDBRANCH   2  10
TORSDOF 8
ENDMDL
MODEL      251
REMARK 921   NORMALIZED FREE ENERGY PREDICTED BY IDOCK:   -3.56 KCAL/MOL
REMARK 922        TOTAL FREE ENERGY PREDICTED BY IDOCK:   -6.02 KCAL/MOL
REMARK 923 INTER-LIGAND FREE ENERGY PREDICTED BY IDOCK:   -6.50 KCAL/MOL
REMARK 924 INTRA-LIGAND FREE ENERGY PREDICTED BY IDOCK:    0.48 KCAL/MOL
REMARK 927      BINDING AFFINITY PREDICTED BY RF-SCORE:    0.00 PKD
ROOT
HETATM    1  C   UNL     1     -11.405  13.441  69.180  1.00  0.00    -0.333 C  
HETATM    2  C   UNL     1     -11.538  14.732  68.373  1.00  0.00    -0.324 C  
ENDROOT
BRANCH   2   3
HETATM    3  C   UNL     1     -12.163  15.878  69.206  1.00  0.00    -0.051 C  
BRANCH   3   4
HETATM    4  C   UNL     1     -12.496  15.518  70.640  1.00  0.00    -0.483 A  
HETATM    5  C   UNL     1     -11.561  15.733  71.663  1.00  0.00    -0.537 A  
HETATM    6  C   UNL     1     -13.119  14.886  73.307  1.00  0.00    -0.585 A  
HETATM    7  C   UNL     1     -11.871  15.417  72.989  1.00  0.00    -0.532 A  
HETATM    8  C   UNL     1     -14.061  14.678  72.302  1.00  0.00    -0.588 A  
HETATM    9  C   UNL     1     -13.754  14.998  70.977  1.00  0.00    -0.417 A  
ENDBRANCH   3   4
ENDBRANCH   2   3
BRANCH   2  10
HETATM   10  N   UNL     1     -10.219  15.102  67.866  1.00  0.00    -0.231 N  
HETATM   11  H   UNL     1      -9.553  14.356  67.667  1.00  0.00     0.000 HD 
HETATM   12  C   UNL     1      -9.826  16.404  67.642  1.00  0.00    -0.243 C  
HETATM   13  O   UNL     1     -10.568  17.373  67.764  1.00  0.00    -0.365 OA 
BRANCH  12  14
HETATM   14  C   UNL     1      -8.357  16.528  67.171  1.00  0.00    -0.180 C  
HETATM   15  N   UNL     1      -7.857  15.178  66.793  1.00  0.00    -0.302 NA 
HETATM   16  H2  UNL     1      -8.451  14.722  66.100  1.00  0.00     0.000 HD 
HETATM   17  H1  UNL     1      -6.890  15.259  66.483  1.00  0.00     0.000 HD 
BRANCH  14  18
HETATM   18  C   UNL     1      -8.223  17.460  65.958  1.00  0.00    -0.161 C  
BRANCH  18  19
HETATM   19  C   UNL     1      -7.549  18.792  66.307  1.00  0.00    -0.287 C  
BRANCH  19  20
HETATM   20  C   UNL     1      -6.053  18.770  65.974  1.00  0.00    -0.218 C  
BRANCH  20  21
HETATM   21  C   UNL     1      -5.500  20.189  65.841  1.00  0.00    -0.164 C  
HETATM   22  N   UNL     1      -6.587  21.161  65.873  1.00  0.00    -0.499 NA 
HETATM   23  H1  UNL     1      -6.219  22.108  65.784  1.00  0.00     0.000 HD 
HETATM   24  H2  UNL     1      -7.167  21.055  66.705  1.00  0.00     0.000 HD 
ENDBRANCH  20  21
ENDBRANCH  19  20
ENDBRANCH  18  19
ENDBRANCH  14  18
ENDBRANCH  12  14
ENDBRANCH   2  10
TORSDOF 8
ENDMDL
MODEL      252
REMARK 921   NORMALIZED FREE ENERGY PREDICTED BY IDOCK:   -3.55 KCAL/MOL
REMARK 922        TOTAL FREE ENERGY PREDICTED BY IDOCK:   -6.00 KCAL/MOL
REMARK 923 INTER-LIGAND FREE ENERGY PREDICTED BY IDOCK:   -5.22 KCAL/MOL
REMARK 924 INTRA-LIGAND FREE ENERGY PREDICTED BY IDOCK:   -0.78 KCAL/MOL
REMARK 927      BINDING AFFINITY PREDICTED BY RF-SCORE:    0.00 PKD
ROOT
HETATM    1  C   UNL     1      -6.427  13.008  69.299  1.00  0.00    -0.103 C  
HETATM    2  C   UNL     1      -7.437  13.141  68.160  1.00  0.00    -0.131 C  
ENDROOT
BRANCH   2   3
HETATM    3  C   UNL     1      -7.799  11.769  67.539  1.00  0.00    -0.148 C  
BRANCH   3   4
HETATM    4  C   UNL     1      -8.918  11.026  68.239  1.00  0.00    -0.155 A  
HETATM    5  C   UNL     1      -8.674  10.332  69.434  1.00  0.00    -0.168 A  
HETATM    6  C   UNL     1     -10.997   9.672  69.561  1.00  0.00    -0.233 A  
HETATM    7  C   UNL     1      -9.709   9.658  70.090  1.00  0.00    -0.301 A  
HETATM    8  C   UNL     1     -11.256  10.366  68.381  1.00  0.00    -0.318 A  
HETATM    9  C   UNL     1     -10.223  11.044  67.727  1.00  0.00    -0.210 A  
ENDBRANCH   3   4
ENDBRANCH   2   3
BRANCH   2  10
HETATM   10  N   UNL     1      -8.624  13.824  68.667  1.00  0.00    -0.329 N  
HETATM   11  H   UNL     1      -8.846  13.733  69.659  1.00  0.00     0.000 HD 
HETATM   12  C   UNL     1      -9.460  14.586  67.880  1.00  0.00    -0.212 C  
HETATM   13  O   UNL     1      -9.247  14.835  66.698  1.00  0.00    -0.247 OA 
BRANCH  12  14
HETATM   14  C   UNL     1     -10.683  15.144  68.646  1.00  0.00    -0.239 C  
HETATM   15  N   UNL     1     -11.090  14.159  69.686  1.00  0.00    -0.417 NA 
HETATM   16  H2  UNL     1     -10.321  13.910  70.309  1.00  0.00     0.000 HD 
HETATM   17  H1  UNL     1     -11.896  14.527  70.190  1.00  0.00     0.000 HD 
BRANCH  14  18
HETATM   18  C   UNL     1     -10.368  16.482  69.331  1.00  0.00    -0.298 C  
BRANCH  18  19
HETATM   19  C   UNL     1      -9.629  17.458  68.409  1.00  0.00    -0.292 C  
BRANCH  19  20
HETATM   20  C   UNL     1     -10.607  18.283  67.564  1.00  0.00    -0.432 C  
BRANCH  20  21
HETATM   21  C   UNL     1     -10.126  18.388  66.117  1.00  0.00    -0.360 C  
HETATM   22  N   UNL     1     -10.617  17.257  65.337  1.00  0.00    -0.631 NA 
HETATM   23  H1  UNL     1     -10.296  17.326  64.371  1.00  0.00     0.000 HD 
HETATM   24  H2  UNL     1     -11.632  17.167  65.395  1.00  0.00     0.000 HD 
ENDBRANCH  20  21
ENDBRANCH  19  20
ENDBRANCH  18  19
ENDBRANCH  14  18
ENDBRANCH  12  14
ENDBRANCH   2  10
TORSDOF 8
ENDMDL
MODEL      253
REMARK 921   NORMALIZED FREE ENERGY PREDICTED BY IDOCK:   -3.55 KCAL/MOL
REMARK 922        TOTAL FREE ENERGY PREDICTED BY IDOCK:   -5.99 KCAL/MOL
REMARK 923 INTER-LIGAND FREE ENERGY PREDICTED BY IDOCK:   -5.63 KCAL/MOL
REMARK 924 INTRA-LIGAND FREE ENERGY PREDICTED BY IDOCK:   -0.37 KCAL/MOL
REMARK 927      BINDING AFFINITY PREDICTED BY RF-SCORE:    0.00 PKD
ROOT
HETATM    1  C   UNL     1     -12.217  14.004  69.875  1.00  0.00    -0.399 C  
HETATM    2  C   UNL     1     -11.548  12.632  69.952  1.00  0.00    -0.177 C  
ENDROOT
BRANCH   2   3
HETATM    3  C   UNL     1     -12.578  11.478  69.887  1.00  0.00    -0.046 C  
BRANCH   3   4
HETATM    4  C   UNL     1     -12.328  10.342  70.859  1.00  0.00    -0.480 A  
HETATM    5  C   UNL     1     -13.343   9.910  71.724  1.00  0.00    -0.501 A  
HETATM    6  C   UNL     1     -11.883   8.213  72.640  1.00  0.00    -0.389 A  
HETATM    7  C   UNL     1     -13.120   8.852  72.611  1.00  0.00    -0.349 A  
HETATM    8  C   UNL     1     -10.869   8.626  71.778  1.00  0.00    -0.395 A  
HETATM    9  C   UNL     1     -11.092   9.681  70.888  1.00  0.00    -0.422 A  
ENDBRANCH   3   4
ENDBRANCH   2   3
BRANCH   2  10
HETATM   10  N   UNL     1     -10.567  12.531  68.875  1.00  0.00    -0.385 N  
HETATM   11  H   UNL     1      -9.585  12.420  69.126  1.00  0.00     0.000 HD 
HETATM   12  C   UNL     1     -10.896  12.578  67.538  1.00  0.00    -0.232 C  
HETATM   13  O   UNL     1     -12.048  12.624  67.117  1.00  0.00    -0.466 OA 
BRANCH  12  14
HETATM   14  C   UNL     1      -9.665  12.519  66.601  1.00  0.00    -0.242 C  
HETATM   15  N   UNL     1      -8.965  13.832  66.645  1.00  0.00    -0.425 NA 
HETATM   16  H2  UNL     1      -8.718  14.110  67.595  1.00  0.00     0.000 HD 
HETATM   17  H1  UNL     1      -8.154  13.794  66.028  1.00  0.00     0.000 HD 
BRANCH  14  18
HETATM   18  C   UNL     1      -8.679  11.420  67.021  1.00  0.00    -0.160 C  
BRANCH  18  19
HETATM   19  C   UNL     1      -9.088  10.033  66.512  1.00  0.00    -0.172 C  
BRANCH  19  20
HETATM   20  C   UNL     1      -9.208   9.025  67.661  1.00  0.00    -0.150 C  
BRANCH  20  21
HETATM   21  C   UNL     1      -7.961   8.144  67.748  1.00  0.00    -0.127 C  
HETATM   22  N   UNL     1      -7.754   7.694  69.120  1.00  0.00    -0.106 NA 
HETATM   23  H1  UNL     1      -6.922   7.107  69.178  1.00  0.00     0.000 HD 
HETATM   24  H2  UNL     1      -8.578   7.225  69.495  1.00  0.00     0.000 HD 
ENDBRANCH  20  21
ENDBRANCH  19  20
ENDBRANCH  18  19
ENDBRANCH  14  18
ENDBRANCH  12  14
ENDBRANCH   2  10
TORSDOF 8
ENDMDL
MODEL      254
REMARK 921   NORMALIZED FREE ENERGY PREDICTED BY IDOCK:   -3.55 KCAL/MOL
REMARK 922        TOTAL FREE ENERGY PREDICTED BY IDOCK:   -5.99 KCAL/MOL
REMARK 923 INTER-LIGAND FREE ENERGY PREDICTED BY IDOCK:   -5.50 KCAL/MOL
REMARK 924 INTRA-LIGAND FREE ENERGY PREDICTED BY IDOCK:   -0.49 KCAL/MOL
REMARK 927      BINDING AFFINITY PREDICTED BY RF-SCORE:    0.00 PKD
ROOT
HETATM    1  C   UNL     1     -10.909   6.413  69.339  1.00  0.00    -0.381 C  
HETATM    2  C   UNL     1     -10.349   7.401  68.316  1.00  0.00    -0.194 C  
ENDROOT
BRANCH   2   3
HETATM    3  C   UNL     1     -10.378   6.829  66.878  1.00  0.00    -0.324 C  
BRANCH   3   4
HETATM    4  C   UNL     1      -9.483   5.628  66.648  1.00  0.00    -0.158 A  
HETATM    5  C   UNL     1     -10.034   4.389  66.287  1.00  0.00    -0.255 A  
HETATM    6  C   UNL     1      -7.828   3.403  66.188  1.00  0.00    -0.085 A  
HETATM    7  C   UNL     1      -9.209   3.283  66.060  1.00  0.00    -0.151 A  
HETATM    8  C   UNL     1      -7.267   4.631  66.535  1.00  0.00    -0.080 A  
HETATM    9  C   UNL     1      -8.090   5.738  66.759  1.00  0.00    -0.102 A  
ENDBRANCH   3   4
ENDBRANCH   2   3
BRANCH   2  10
HETATM   10  N   UNL     1     -11.106   8.647  68.408  1.00  0.00    -0.374 N  
HETATM   11  H   UNL     1     -12.113   8.589  68.559  1.00  0.00     0.000 HD 
HETATM   12  C   UNL     1     -10.534   9.896  68.302  1.00  0.00    -0.210 C  
HETATM   13  O   UNL     1      -9.326  10.090  68.205  1.00  0.00    -0.131 OA 
BRANCH  12  14
HETATM   14  C   UNL     1     -11.564  11.049  68.365  1.00  0.00    -0.302 C  
HETATM   15  N   UNL     1     -12.637  10.683  69.330  1.00  0.00    -0.683 NA 
HETATM   16  H2  UNL     1     -12.268  10.440  70.249  1.00  0.00     0.000 HD 
HETATM   17  H1  UNL     1     -13.316  11.442  69.371  1.00  0.00     0.000 HD 
BRANCH  14  18
HETATM   18  C   UNL     1     -10.920  12.367  68.821  1.00  0.00    -0.287 C  
BRANCH  18  19
HETATM   19  C   UNL     1     -11.930  13.515  68.920  1.00  0.00    -0.378 C  
BRANCH  19  20
HETATM   20  C   UNL     1     -12.042  14.044  70.355  1.00  0.00    -0.426 C  
BRANCH  20  21
HETATM   21  C   UNL     1     -12.445  15.519  70.365  1.00  0.00    -0.402 C  
HETATM   22  N   UNL     1     -11.845  16.200  71.506  1.00  0.00    -0.581 NA 
HETATM   23  H1  UNL     1     -12.114  17.184  71.513  1.00  0.00     0.000 HD 
HETATM   24  H2  UNL     1     -10.832  16.082  71.529  1.00  0.00     0.000 HD 
ENDBRANCH  20  21
ENDBRANCH  19  20
ENDBRANCH  18  19
ENDBRANCH  14  18
ENDBRANCH  12  14
ENDBRANCH   2  10
TORSDOF 8
ENDMDL
MODEL      255
REMARK 921   NORMALIZED FREE ENERGY PREDICTED BY IDOCK:   -3.54 KCAL/MOL
REMARK 922        TOTAL FREE ENERGY PREDICTED BY IDOCK:   -5.99 KCAL/MOL
REMARK 923 INTER-LIGAND FREE ENERGY PREDICTED BY IDOCK:   -4.78 KCAL/MOL
REMARK 924 INTRA-LIGAND FREE ENERGY PREDICTED BY IDOCK:   -1.21 KCAL/MOL
REMARK 927      BINDING AFFINITY PREDICTED BY RF-SCORE:    0.00 PKD
ROOT
HETATM    1  C   UNL     1     -12.283  11.805  70.454  1.00  0.00    -0.416 C  
HETATM    2  C   UNL     1     -11.411  10.668  69.921  1.00  0.00    -0.317 C  
ENDROOT
BRANCH   2   3
HETATM    3  C   UNL     1     -10.341  11.173  68.924  1.00  0.00    -0.220 C  
BRANCH   3   4
HETATM    4  C   UNL     1      -9.842  10.134  67.940  1.00  0.00    -0.176 A  
HETATM    5  C   UNL     1      -8.567  10.252  67.367  1.00  0.00    -0.125 A  
HETATM    6  C   UNL     1      -8.895   8.194  66.140  1.00  0.00    -0.194 A  
HETATM    7  C   UNL     1      -8.097   9.287  66.470  1.00  0.00    -0.104 A  
HETATM    8  C   UNL     1     -10.159   8.059  66.710  1.00  0.00    -0.357 A  
HETATM    9  C   UNL     1     -10.627   9.021  67.609  1.00  0.00    -0.298 A  
ENDBRANCH   3   4
ENDBRANCH   2   3
BRANCH   2  10
HETATM   10  N   UNL     1     -10.799   9.980  71.055  1.00  0.00    -0.318 N  
HETATM   11  H   UNL     1     -10.082  10.473  71.587  1.00  0.00     0.000 HD 
HETATM   12  C   UNL     1     -11.137   8.702  71.444  1.00  0.00    -0.274 C  
HETATM   13  O   UNL     1     -12.041   8.048  70.934  1.00  0.00    -0.263 OA 
BRANCH  12  14
HETATM   14  C   UNL     1     -10.292   8.179  72.631  1.00  0.00    -0.328 C  
HETATM   15  N   UNL     1     -11.132   7.265  73.452  1.00  0.00    -0.581 NA 
HETATM   16  H2  UNL     1     -11.539   6.509  72.901  1.00  0.00     0.000 HD 
HETATM   17  H1  UNL     1     -10.576   6.920  74.235  1.00  0.00     0.000 HD 
BRANCH  14  18
HETATM   18  C   UNL     1      -9.050   7.413  72.155  1.00  0.00    -0.156 C  
BRANCH  18  19
HETATM   19  C   UNL     1      -8.852   7.491  70.637  1.00  0.00    -0.146 C  
BRANCH  19  20
HETATM   20  C   UNL     1      -7.448   7.990  70.278  1.00  0.00    -0.072 C  
BRANCH  20  21
HETATM   21  C   UNL     1      -7.309   9.487  70.559  1.00  0.00    -0.138 C  
HETATM   22  N   UNL     1      -6.324   9.716  71.609  1.00  0.00    -0.303 NA 
HETATM   23  H1  UNL     1      -6.233  10.714  71.797  1.00  0.00     0.000 HD 
HETATM   24  H2  UNL     1      -5.426   9.286  71.388  1.00  0.00     0.000 HD 
ENDBRANCH  20  21
ENDBRANCH  19  20
ENDBRANCH  18  19
ENDBRANCH  14  18
ENDBRANCH  12  14
ENDBRANCH   2  10
TORSDOF 8
ENDMDL
MODEL      256
REMARK 921   NORMALIZED FREE ENERGY PREDICTED BY IDOCK:   -3.54 KCAL/MOL
REMARK 922        TOTAL FREE ENERGY PREDICTED BY IDOCK:   -5.99 KCAL/MOL
REMARK 923 INTER-LIGAND FREE ENERGY PREDICTED BY IDOCK:   -5.58 KCAL/MOL
REMARK 924 INTRA-LIGAND FREE ENERGY PREDICTED BY IDOCK:   -0.41 KCAL/MOL
REMARK 927      BINDING AFFINITY PREDICTED BY RF-SCORE:    0.00 PKD
ROOT
HETATM    1  C   UNL     1     -10.628   8.447  66.992  1.00  0.00    -0.316 C  
HETATM    2  C   UNL     1     -10.109   9.587  67.868  1.00  0.00    -0.191 C  
ENDROOT
BRANCH   2   3
HETATM    3  C   UNL     1     -11.204  10.640  68.162  1.00  0.00    -0.366 C  
BRANCH   3   4
HETATM    4  C   UNL     1     -11.273  11.786  67.173  1.00  0.00    -0.375 A  
HETATM    5  C   UNL     1     -11.888  12.996  67.528  1.00  0.00    -0.408 A  
HETATM    6  C   UNL     1     -11.374  13.929  65.357  1.00  0.00    -0.311 A  
HETATM    7  C   UNL     1     -11.940  14.061  66.623  1.00  0.00    -0.473 A  
HETATM    8  C   UNL     1     -10.750  12.736  64.996  1.00  0.00    -0.321 A  
HETATM    9  C   UNL     1     -10.695  11.673  65.901  1.00  0.00    -0.328 A  
ENDBRANCH   3   4
ENDBRANCH   2   3
BRANCH   2  10
HETATM   10  N   UNL     1      -9.572   9.018  69.101  1.00  0.00    -0.159 N  
HETATM   11  H   UNL     1     -10.138   9.081  69.947  1.00  0.00     0.000 HD 
HETATM   12  C   UNL     1      -8.342   8.403  69.185  1.00  0.00    -0.122 C  
HETATM   13  O   UNL     1      -7.614   8.195  68.219  1.00  0.00    -0.098 OA 
BRANCH  12  14
HETATM   14  C   UNL     1      -7.979   7.949  70.619  1.00  0.00    -0.096 C  
HETATM   15  N   UNL     1      -7.924   9.146  71.503  1.00  0.00    -0.338 NA 
HETATM   16  H2  UNL     1      -8.785   9.692  71.473  1.00  0.00     0.000 HD 
HETATM   17  H1  UNL     1      -7.684   8.847  72.448  1.00  0.00     0.000 HD 
BRANCH  14  18
HETATM   18  C   UNL     1      -9.013   6.965  71.186  1.00  0.00    -0.143 C  
BRANCH  18  19
HETATM   19  C   UNL     1      -9.505   5.956  70.142  1.00  0.00    -0.190 C  
BRANCH  19  20
HETATM   20  C   UNL     1     -11.034   5.960  70.032  1.00  0.00    -0.430 C  
BRANCH  20  21
HETATM   21  C   UNL     1     -11.662   6.773  71.164  1.00  0.00    -0.345 C  
HETATM   22  N   UNL     1     -13.012   7.189  70.800  1.00  0.00    -0.572 NA 
HETATM   23  H1  UNL     1     -13.431   7.732  71.555  1.00  0.00     0.000 HD 
HETATM   24  H2  UNL     1     -13.595   6.396  70.533  1.00  0.00     0.000 HD 
ENDBRANCH  20  21
ENDBRANCH  19  20
ENDBRANCH  18  19
ENDBRANCH  14  18
ENDBRANCH  12  14
ENDBRANCH   2  10
TORSDOF 8
ENDMDL
MODEL      257
REMARK 921   NORMALIZED FREE ENERGY PREDICTED BY IDOCK:   -3.53 KCAL/MOL
REMARK 922        TOTAL FREE ENERGY PREDICTED BY IDOCK:   -5.96 KCAL/MOL
REMARK 923 INTER-LIGAND FREE ENERGY PREDICTED BY IDOCK:   -5.82 KCAL/MOL
REMARK 924 INTRA-LIGAND FREE ENERGY PREDICTED BY IDOCK:   -0.15 KCAL/MOL
REMARK 927      BINDING AFFINITY PREDICTED BY RF-SCORE:    0.00 PKD
ROOT
HETATM    1  C   UNL     1     -11.834  14.433  63.962  1.00  0.00    -0.222 C  
HETATM    2  C   UNL     1     -11.975  14.268  65.475  1.00  0.00    -0.385 C  
ENDROOT
BRANCH   2   3
HETATM    3  C   UNL     1     -12.205  12.792  65.880  1.00  0.00    -0.422 C  
BRANCH   3   4
HETATM    4  C   UNL     1     -10.950  11.946  65.957  1.00  0.00    -0.355 A  
HETATM    5  C   UNL     1     -10.342  11.685  67.194  1.00  0.00    -0.247 A  
HETATM    6  C   UNL     1      -8.642  10.350  66.112  1.00  0.00    -0.151 A  
HETATM    7  C   UNL     1      -9.193  10.893  67.270  1.00  0.00    -0.160 A  
HETATM    8  C   UNL     1      -9.242  10.592  64.878  1.00  0.00    -0.254 A  
HETATM    9  C   UNL     1     -10.393  11.381  64.802  1.00  0.00    -0.349 A  
ENDBRANCH   3   4
ENDBRANCH   2   3
BRANCH   2  10
HETATM   10  N   UNL     1     -10.782  14.815  66.116  1.00  0.00    -0.305 N  
HETATM   11  H   UNL     1     -10.233  14.202  66.718  1.00  0.00     0.000 HD 
HETATM   12  C   UNL     1     -10.356  16.116  65.951  1.00  0.00    -0.367 C  
HETATM   13  O   UNL     1     -10.885  16.917  65.186  1.00  0.00    -0.602 OA 
BRANCH  12  14
HETATM   14  C   UNL     1      -9.105  16.464  66.793  1.00  0.00    -0.234 C  
HETATM   15  N   UNL     1      -8.149  17.223  65.942  1.00  0.00    -0.536 NA 
HETATM   16  H2  UNL     1      -8.575  18.048  65.519  1.00  0.00     0.000 HD 
HETATM   17  H1  UNL     1      -7.325  17.452  66.496  1.00  0.00     0.000 HD 
BRANCH  14  18
HETATM   18  C   UNL     1      -9.460  17.317  68.019  1.00  0.00    -0.271 C  
BRANCH  18  19
HETATM   19  C   UNL     1      -8.298  18.204  68.479  1.00  0.00    -0.314 C  
BRANCH  19  20
HETATM   20  C   UNL     1      -8.692  19.686  68.495  1.00  0.00    -0.344 C  
BRANCH  20  21
HETATM   21  C   UNL     1      -7.551  20.562  67.980  1.00  0.00    -0.096 C  
HETATM   22  N   UNL     1      -6.445  19.732  67.517  1.00  0.00    -0.202 NA 
HETATM   23  H1  UNL     1      -5.683  20.317  67.173  1.00  0.00     0.000 HD 
HETATM   24  H2  UNL     1      -6.746  19.052  66.819  1.00  0.00     0.000 HD 
ENDBRANCH  20  21
ENDBRANCH  19  20
ENDBRANCH  18  19
ENDBRANCH  14  18
ENDBRANCH  12  14
ENDBRANCH   2  10
TORSDOF 8
ENDMDL
MODEL      258
REMARK 921   NORMALIZED FREE ENERGY PREDICTED BY IDOCK:   -3.53 KCAL/MOL
REMARK 922        TOTAL FREE ENERGY PREDICTED BY IDOCK:   -5.96 KCAL/MOL
REMARK 923 INTER-LIGAND FREE ENERGY PREDICTED BY IDOCK:   -5.79 KCAL/MOL
REMARK 924 INTRA-LIGAND FREE ENERGY PREDICTED BY IDOCK:   -0.17 KCAL/MOL
REMARK 927      BINDING AFFINITY PREDICTED BY RF-SCORE:    0.00 PKD
ROOT
HETATM    1  C   UNL     1      -9.680  10.797  69.140  1.00  0.00    -0.181 C  
HETATM    2  C   UNL     1     -10.943  10.123  68.604  1.00  0.00    -0.230 C  
ENDROOT
BRANCH   2   3
HETATM    3  C   UNL     1     -10.630   9.120  67.467  1.00  0.00    -0.317 C  
BRANCH   3   4
HETATM    4  C   UNL     1     -10.228   9.751  66.149  1.00  0.00    -0.278 A  
HETATM    5  C   UNL     1     -10.773  10.982  65.754  1.00  0.00    -0.216 A  
HETATM    6  C   UNL     1      -9.462  10.944  63.722  1.00  0.00    -0.308 A  
HETATM    7  C   UNL     1     -10.393  11.574  64.546  1.00  0.00    -0.354 A  
HETATM    8  C   UNL     1      -8.905   9.727  64.108  1.00  0.00    -0.260 A  
HETATM    9  C   UNL     1      -9.282   9.137  65.317  1.00  0.00    -0.243 A  
ENDBRANCH   3   4
ENDBRANCH   2   3
BRANCH   2  10
HETATM   10  N   UNL     1     -11.629   9.471  69.715  1.00  0.00    -0.446 N  
HETATM   11  H   UNL     1     -11.629   8.451  69.751  1.00  0.00     0.000 HD 
HETATM   12  C   UNL     1     -12.279  10.156  70.718  1.00  0.00    -0.338 C  
HETATM   13  O   UNL     1     -12.274  11.379  70.826  1.00  0.00    -0.368 OA 
BRANCH  12  14
HETATM   14  C   UNL     1     -12.985   9.230  71.737  1.00  0.00    -0.396 C  
HETATM   15  N   UNL     1     -14.154   8.590  71.075  1.00  0.00    -0.606 NA 
HETATM   16  H2  UNL     1     -13.897   8.100  70.218  1.00  0.00     0.000 HD 
HETATM   17  H1  UNL     1     -14.620   7.979  71.746  1.00  0.00     0.000 HD 
BRANCH  14  18
HETATM   18  C   UNL     1     -12.048   8.130  72.255  1.00  0.00    -0.419 C  
BRANCH  18  19
HETATM   19  C   UNL     1     -10.583   8.579  72.314  1.00  0.00    -0.408 C  
BRANCH  19  20
HETATM   20  C   UNL     1      -9.624   7.388  72.208  1.00  0.00    -0.186 C  
BRANCH  20  21
HETATM   21  C   UNL     1      -8.970   7.332  70.828  1.00  0.00    -0.152 C  
HETATM   22  N   UNL     1      -7.624   6.777  70.927  1.00  0.00    -0.087 NA 
HETATM   23  H1  UNL     1      -7.188   6.741  70.006  1.00  0.00     0.000 HD 
HETATM   24  H2  UNL     1      -7.622   5.867  71.386  1.00  0.00     0.000 HD 
ENDBRANCH  20  21
ENDBRANCH  19  20
ENDBRANCH  18  19
ENDBRANCH  14  18
ENDBRANCH  12  14
ENDBRANCH   2  10
TORSDOF 8
ENDMDL
MODEL      259
REMARK 921   NORMALIZED FREE ENERGY PREDICTED BY IDOCK:   -3.51 KCAL/MOL
REMARK 922        TOTAL FREE ENERGY PREDICTED BY IDOCK:   -5.94 KCAL/MOL
REMARK 923 INTER-LIGAND FREE ENERGY PREDICTED BY IDOCK:   -5.67 KCAL/MOL
REMARK 924 INTRA-LIGAND FREE ENERGY PREDICTED BY IDOCK:   -0.27 KCAL/MOL
REMARK 927      BINDING AFFINITY PREDICTED BY RF-SCORE:    0.00 PKD
ROOT
HETATM    1  C   UNL     1      -9.814   7.159  67.070  1.00  0.00    -0.257 C  
HETATM    2  C   UNL     1     -10.565   8.340  67.682  1.00  0.00    -0.194 C  
ENDROOT
BRANCH   2   3
HETATM    3  C   UNL     1      -9.983   8.752  69.056  1.00  0.00    -0.197 C  
BRANCH   3   4
HETATM    4  C   UNL     1     -11.010   9.184  70.083  1.00  0.00    -0.267 A  
HETATM    5  C   UNL     1     -11.441   8.292  71.076  1.00  0.00    -0.303 A  
HETATM    6  C   UNL     1     -12.889   9.988  72.013  1.00  0.00    -0.484 A  
HETATM    7  C   UNL     1     -12.377   8.693  72.035  1.00  0.00    -0.435 A  
HETATM    8  C   UNL     1     -12.461  10.887  71.038  1.00  0.00    -0.514 A  
HETATM    9  C   UNL     1     -11.522  10.489  70.082  1.00  0.00    -0.405 A  
ENDBRANCH   3   4
ENDBRANCH   2   3
BRANCH   2  10
HETATM   10  N   UNL     1     -10.533   9.453  66.736  1.00  0.00    -0.226 N  
HETATM   11  H   UNL     1     -11.421   9.813  66.385  1.00  0.00     0.000 HD 
HETATM   12  C   UNL     1      -9.370  10.043  66.292  1.00  0.00    -0.168 C  
HETATM   13  O   UNL     1      -8.253   9.752  66.708  1.00  0.00    -0.119 OA 
BRANCH  12  14
HETATM   14  C   UNL     1      -9.608  11.154  65.241  1.00  0.00    -0.230 C  
HETATM   15  N   UNL     1     -10.057  10.524  63.969  1.00  0.00    -0.397 NA 
HETATM   16  H2  UNL     1     -10.875   9.928  64.097  1.00  0.00     0.000 HD 
HETATM   17  H1  UNL     1     -10.213  11.256  63.277  1.00  0.00     0.000 HD 
BRANCH  14  18
HETATM   18  C   UNL     1     -10.677  12.156  65.700  1.00  0.00    -0.312 C  
BRANCH  18  19
HETATM   19  C   UNL     1     -10.210  13.023  66.875  1.00  0.00    -0.244 C  
BRANCH  19  20
HETATM   20  C   UNL     1     -11.066  14.287  67.016  1.00  0.00    -0.317 C  
BRANCH  20  21
HETATM   21  C   UNL     1     -11.894  14.247  68.300  1.00  0.00    -0.335 C  
HETATM   22  N   UNL     1     -11.175  14.901  69.387  1.00  0.00    -0.268 NA 
HETATM   23  H1  UNL     1     -11.727  14.874  70.244  1.00  0.00     0.000 HD 
HETATM   24  H2  UNL     1     -10.899  15.852  69.143  1.00  0.00     0.000 HD 
ENDBRANCH  20  21
ENDBRANCH  19  20
ENDBRANCH  18  19
ENDBRANCH  14  18
ENDBRANCH  12  14
ENDBRANCH   2  10
TORSDOF 8
ENDMDL
MODEL      260
REMARK 921   NORMALIZED FREE ENERGY PREDICTED BY IDOCK:   -3.50 KCAL/MOL
REMARK 922        TOTAL FREE ENERGY PREDICTED BY IDOCK:   -5.93 KCAL/MOL
REMARK 923 INTER-LIGAND FREE ENERGY PREDICTED BY IDOCK:   -5.04 KCAL/MOL
REMARK 924 INTRA-LIGAND FREE ENERGY PREDICTED BY IDOCK:   -0.89 KCAL/MOL
REMARK 927      BINDING AFFINITY PREDICTED BY RF-SCORE:    0.00 PKD
ROOT
HETATM    1  C   UNL     1     -10.786   9.733  67.418  1.00  0.00    -0.314 C  
HETATM    2  C   UNL     1      -9.735   9.819  68.524  1.00  0.00    -0.154 C  
ENDROOT
BRANCH   2   3
HETATM    3  C   UNL     1      -9.397  11.283  68.895  1.00  0.00    -0.084 C  
BRANCH   3   4
HETATM    4  C   UNL     1     -10.303  12.326  68.272  1.00  0.00    -0.227 A  
HETATM    5  C   UNL     1      -9.950  12.944  67.063  1.00  0.00    -0.244 A  
HETATM    6  C   UNL     1     -11.994  14.236  67.092  1.00  0.00    -0.449 A  
HETATM    7  C   UNL     1     -10.791  13.896  66.478  1.00  0.00    -0.295 A  
HETATM    8  C   UNL     1     -12.362  13.622  68.287  1.00  0.00     0.044 A  
HETATM    9  C   UNL     1     -11.524  12.668  68.871  1.00  0.00    -0.354 A  
ENDBRANCH   3   4
ENDBRANCH   2   3
BRANCH   2  10
HETATM   10  N   UNL     1     -10.218   9.074  69.684  1.00  0.00    -0.199 N  
HETATM   11  H   UNL     1     -10.777   9.571  70.378  1.00  0.00     0.000 HD 
HETATM   12  C   UNL     1      -9.960   7.737  69.894  1.00  0.00    -0.191 C  
HETATM   13  O   UNL     1      -9.374   7.019  69.089  1.00  0.00    -0.142 OA 
BRANCH  12  14
HETATM   14  C   UNL     1     -10.527   7.205  71.232  1.00  0.00    -0.205 C  
HETATM   15  N   UNL     1     -10.736   8.353  72.156  1.00  0.00    -0.312 NA 
HETATM   16  H2  UNL     1     -11.324   9.080  71.746  1.00  0.00     0.000 HD 
HETATM   17  H1  UNL     1     -11.109   8.003  73.038  1.00  0.00     0.000 HD 
BRANCH  14  18
HETATM   18  C   UNL     1     -11.865   6.477  71.038  1.00  0.00    -0.390 C  
BRANCH  18  19
HETATM   19  C   UNL     1     -12.915   6.883  72.079  1.00  0.00    -0.178 C  
BRANCH  19  20
HETATM   20  C   UNL     1     -14.092   7.622  71.432  1.00  0.00    -0.479 C  
BRANCH  20  21
HETATM   21  C   UNL     1     -13.995   9.128  71.678  1.00  0.00    -0.286 C  
HETATM   22  N   UNL     1     -13.135   9.749  70.678  1.00  0.00    -0.586 NA 
HETATM   23  H1  UNL     1     -13.069  10.754  70.842  1.00  0.00     0.000 HD 
HETATM   24  H2  UNL     1     -13.442   9.538  69.728  1.00  0.00     0.000 HD 
ENDBRANCH  20  21
ENDBRANCH  19  20
ENDBRANCH  18  19
ENDBRANCH  14  18
ENDBRANCH  12  14
ENDBRANCH   2  10
TORSDOF 8
ENDMDL
MODEL      261
REMARK 921   NORMALIZED FREE ENERGY PREDICTED BY IDOCK:   -3.50 KCAL/MOL
REMARK 922        TOTAL FREE ENERGY PREDICTED BY IDOCK:   -5.92 KCAL/MOL
REMARK 923 INTER-LIGAND FREE ENERGY PREDICTED BY IDOCK:   -5.89 KCAL/MOL
REMARK 924 INTRA-LIGAND FREE ENERGY PREDICTED BY IDOCK:   -0.03 KCAL/MOL
REMARK 927      BINDING AFFINITY PREDICTED BY RF-SCORE:    0.00 PKD
ROOT
HETATM    1  C   UNL     1     -12.339  10.779  70.461  1.00  0.00    -0.458 C  
HETATM    2  C   UNL     1     -11.865  10.889  69.013  1.00  0.00    -0.299 C  
ENDROOT
BRANCH   2   3
HETATM    3  C   UNL     1     -10.971  12.132  68.786  1.00  0.00    -0.274 C  
BRANCH   3   4
HETATM    4  C   UNL     1     -11.276  12.919  67.528  1.00  0.00    -0.329 A  
HETATM    5  C   UNL     1     -11.800  12.277  66.396  1.00  0.00    -0.382 A  
HETATM    6  C   UNL     1     -11.878  14.379  65.202  1.00  0.00    -0.386 A  
HETATM    7  C   UNL     1     -12.097  13.004  65.239  1.00  0.00    -0.484 A  
HETATM    8  C   UNL     1     -11.368  15.031  66.323  1.00  0.00    -0.273 A  
HETATM    9  C   UNL     1     -11.074  14.306  67.482  1.00  0.00    -0.309 A  
ENDBRANCH   3   4
ENDBRANCH   2   3
BRANCH   2  10
HETATM   10  N   UNL     1     -11.164   9.658  68.658  1.00  0.00    -0.482 N  
HETATM   11  H   UNL     1     -11.599   9.035  67.977  1.00  0.00     0.000 HD 
HETATM   12  C   UNL     1      -9.948   9.291  69.192  1.00  0.00    -0.179 C  
HETATM   13  O   UNL     1      -9.293   9.998  69.952  1.00  0.00    -0.220 OA 
BRANCH  12  14
HETATM   14  C   UNL     1      -9.454   7.909  68.703  1.00  0.00    -0.149 C  
HETATM   15  N   UNL     1      -8.591   7.306  69.756  1.00  0.00    -0.140 NA 
HETATM   16  H2  UNL     1      -9.060   7.254  70.660  1.00  0.00     0.000 HD 
HETATM   17  H1  UNL     1      -8.266   6.395  69.433  1.00  0.00     0.000 HD 
BRANCH  14  18
HETATM   18  C   UNL     1     -10.621   6.953  68.415  1.00  0.00    -0.249 C  
BRANCH  18  19
HETATM   19  C   UNL     1     -10.581   6.381  66.994  1.00  0.00    -0.396 C  
BRANCH  19  20
HETATM   20  C   UNL     1     -10.151   4.910  66.991  1.00  0.00    -0.243 C  
BRANCH  20  21
HETATM   21  C   UNL     1      -9.693   4.475  65.598  1.00  0.00    -0.199 C  
HETATM   22  N   UNL     1     -10.755   4.699  64.624  1.00  0.00    -0.434 NA 
HETATM   23  H1  UNL     1     -10.450   4.408  63.695  1.00  0.00     0.000 HD 
HETATM   24  H2  UNL     1     -11.082   5.665  64.633  1.00  0.00     0.000 HD 
ENDBRANCH  20  21
ENDBRANCH  19  20
ENDBRANCH  18  19
ENDBRANCH  14  18
ENDBRANCH  12  14
ENDBRANCH   2  10
TORSDOF 8
ENDMDL
MODEL      262
REMARK 921   NORMALIZED FREE ENERGY PREDICTED BY IDOCK:   -3.47 KCAL/MOL
REMARK 922        TOTAL FREE ENERGY PREDICTED BY IDOCK:   -5.89 KCAL/MOL
REMARK 923 INTER-LIGAND FREE ENERGY PREDICTED BY IDOCK:   -5.79 KCAL/MOL
REMARK 924 INTRA-LIGAND FREE ENERGY PREDICTED BY IDOCK:   -0.09 KCAL/MOL
REMARK 927      BINDING AFFINITY PREDICTED BY RF-SCORE:    0.00 PKD
ROOT
HETATM    1  C   UNL     1     -11.217  14.272  64.951  1.00  0.00    -0.381 C  
HETATM    2  C   UNL     1     -11.479  14.597  66.421  1.00  0.00    -0.347 C  
ENDROOT
BRANCH   2   3
HETATM    3  C   UNL     1     -11.148  13.404  67.349  1.00  0.00    -0.297 C  
BRANCH   3   4
HETATM    4  C   UNL     1     -10.192  12.384  66.764  1.00  0.00    -0.234 A  
HETATM    5  C   UNL     1      -8.821  12.444  67.057  1.00  0.00    -0.210 A  
HETATM    6  C   UNL     1      -8.416  10.477  65.711  1.00  0.00    -0.177 A  
HETATM    7  C   UNL     1      -7.939  11.496  66.531  1.00  0.00    -0.095 A  
HETATM    8  C   UNL     1      -9.777  10.399  65.420  1.00  0.00    -0.325 A  
HETATM    9  C   UNL     1     -10.660  11.345  65.949  1.00  0.00    -0.317 A  
ENDBRANCH   3   4
ENDBRANCH   2   3
BRANCH   2  10
HETATM   10  N   UNL     1     -10.705  15.782  66.781  1.00  0.00    -0.313 N  
HETATM   11  H   UNL     1     -10.052  16.159  66.093  1.00  0.00     0.000 HD 
HETATM   12  C   UNL     1     -10.807  16.419  67.999  1.00  0.00    -0.342 C  
HETATM   13  O   UNL     1     -11.616  16.108  68.867  1.00  0.00    -0.357 OA 
BRANCH  12  14
HETATM   14  C   UNL     1      -9.828  17.607  68.153  1.00  0.00    -0.318 C  
HETATM   15  N   UNL     1     -10.402  18.579  69.125  1.00  0.00    -0.424 NA 
HETATM   16  H2  UNL     1     -10.632  18.145  70.019  1.00  0.00     0.000 HD 
HETATM   17  H1  UNL     1      -9.757  19.362  69.227  1.00  0.00     0.000 HD 
BRANCH  14  18
HETATM   18  C   UNL     1      -8.453  17.153  68.664  1.00  0.00    -0.258 C  
BRANCH  18  19
HETATM   19  C   UNL     1      -7.313  18.051  68.170  1.00  0.00    -0.250 C  
BRANCH  19  20
HETATM   20  C   UNL     1      -6.412  18.503  69.325  1.00  0.00    -0.272 C  
BRANCH  20  21
HETATM   21  C   UNL     1      -6.356  20.028  69.412  1.00  0.00    -0.339 C  
HETATM   22  N   UNL     1      -5.933  20.444  70.745  1.00  0.00    -0.536 NA 
HETATM   23  H1  UNL     1      -5.897  21.462  70.803  1.00  0.00     0.000 HD 
HETATM   24  H2  UNL     1      -5.048  20.016  71.013  1.00  0.00     0.000 HD 
ENDBRANCH  20  21
ENDBRANCH  19  20
ENDBRANCH  18  19
ENDBRANCH  14  18
ENDBRANCH  12  14
ENDBRANCH   2  10
TORSDOF 8
ENDMDL
MODEL      263
REMARK 921   NORMALIZED FREE ENERGY PREDICTED BY IDOCK:   -3.47 KCAL/MOL
REMARK 922        TOTAL FREE ENERGY PREDICTED BY IDOCK:   -5.88 KCAL/MOL
REMARK 923 INTER-LIGAND FREE ENERGY PREDICTED BY IDOCK:   -6.13 KCAL/MOL
REMARK 924 INTRA-LIGAND FREE ENERGY PREDICTED BY IDOCK:    0.25 KCAL/MOL
REMARK 927      BINDING AFFINITY PREDICTED BY RF-SCORE:    0.00 PKD
ROOT
HETATM    1  C   UNL     1     -11.659  12.211  67.749  1.00  0.00    -0.410 C  
HETATM    2  C   UNL     1     -10.325  12.831  68.163  1.00  0.00    -0.239 C  
ENDROOT
BRANCH   2   3
HETATM    3  C   UNL     1      -9.345  12.955  66.972  1.00  0.00    -0.235 C  
BRANCH   3   4
HETATM    4  C   UNL     1      -9.836  12.346  65.673  1.00  0.00    -0.235 A  
HETATM    5  C   UNL     1      -9.565  11.004  65.370  1.00  0.00    -0.267 A  
HETATM    6  C   UNL     1     -10.771  11.200  63.283  1.00  0.00    -0.199 A  
HETATM    7  C   UNL     1     -10.029  10.435  64.180  1.00  0.00    -0.337 A  
HETATM    8  C   UNL     1     -11.057  12.532  63.578  1.00  0.00    -0.497 A  
HETATM    9  C   UNL     1     -10.596  13.100  64.769  1.00  0.00    -0.390 A  
ENDBRANCH   3   4
ENDBRANCH   2   3
BRANCH   2  10
HETATM   10  N   UNL     1     -10.587  14.132  68.774  1.00  0.00    -0.250 N  
HETATM   11  H   UNL     1     -10.337  14.264  69.754  1.00  0.00     0.000 HD 
HETATM   12  C   UNL     1     -11.154  15.191  68.099  1.00  0.00    -0.304 C  
HETATM   13  O   UNL     1     -11.417  15.176  66.900  1.00  0.00    -0.314 OA 
BRANCH  12  14
HETATM   14  C   UNL     1     -11.388  16.433  68.991  1.00  0.00    -0.253 C  
HETATM   15  N   UNL     1     -11.592  15.984  70.396  1.00  0.00    -0.372 NA 
HETATM   16  H2  UNL     1     -10.826  15.401  70.734  1.00  0.00     0.000 HD 
HETATM   17  H1  UNL     1     -11.747  16.802  70.984  1.00  0.00     0.000 HD 
BRANCH  14  18
HETATM   18  C   UNL     1     -10.195  17.399  68.951  1.00  0.00    -0.352 C  
BRANCH  18  19
HETATM   19  C   UNL     1     -10.228  18.329  67.733  1.00  0.00    -0.400 C  
BRANCH  19  20
HETATM   20  C   UNL     1      -9.029  18.088  66.809  1.00  0.00    -0.279 C  
BRANCH  20  21
HETATM   21  C   UNL     1      -8.377  19.409  66.402  1.00  0.00    -0.331 C  
HETATM   22  N   UNL     1      -7.254  19.165  65.504  1.00  0.00    -0.469 NA 
HETATM   23  H1  UNL     1      -6.819  20.047  65.233  1.00  0.00     0.000 HD 
HETATM   24  H2  UNL     1      -7.530  18.612  64.693  1.00  0.00     0.000 HD 
ENDBRANCH  20  21
ENDBRANCH  19  20
ENDBRANCH  18  19
ENDBRANCH  14  18
ENDBRANCH  12  14
ENDBRANCH   2  10
TORSDOF 8
ENDMDL
MODEL      264
REMARK 921   NORMALIZED FREE ENERGY PREDICTED BY IDOCK:   -3.47 KCAL/MOL
REMARK 922        TOTAL FREE ENERGY PREDICTED BY IDOCK:   -5.88 KCAL/MOL
REMARK 923 INTER-LIGAND FREE ENERGY PREDICTED BY IDOCK:   -5.00 KCAL/MOL
REMARK 924 INTRA-LIGAND FREE ENERGY PREDICTED BY IDOCK:   -0.87 KCAL/MOL
REMARK 927      BINDING AFFINITY PREDICTED BY RF-SCORE:    0.00 PKD
ROOT
HETATM    1  C   UNL     1      -8.098   7.454  67.466  1.00  0.00    -0.114 C  
HETATM    2  C   UNL     1      -8.729   8.295  68.575  1.00  0.00    -0.133 C  
ENDROOT
BRANCH   2   3
HETATM    3  C   UNL     1     -10.268   8.385  68.433  1.00  0.00    -0.239 C  
BRANCH   3   4
HETATM    4  C   UNL     1     -10.851   9.766  68.656  1.00  0.00    -0.223 A  
HETATM    5  C   UNL     1     -11.305  10.150  69.927  1.00  0.00    -0.335 A  
HETATM    6  C   UNL     1     -11.904  12.337  69.086  1.00  0.00    -0.355 A  
HETATM    7  C   UNL     1     -11.829  11.429  70.139  1.00  0.00    -0.440 A  
HETATM    8  C   UNL     1     -11.447  11.972  67.821  1.00  0.00    -0.394 A  
HETATM    9  C   UNL     1     -10.919  10.695  67.609  1.00  0.00    -0.370 A  
ENDBRANCH   3   4
ENDBRANCH   2   3
BRANCH   2  10
HETATM   10  N   UNL     1      -8.347   7.727  69.865  1.00  0.00    -0.129 N  
HETATM   11  H   UNL     1      -8.371   6.713  69.972  1.00  0.00     0.000 HD 
HETATM   12  C   UNL     1      -7.956   8.486  70.947  1.00  0.00    -0.110 C  
HETATM   13  O   UNL     1      -7.808   9.704  70.911  1.00  0.00    -0.317 OA 
BRANCH  12  14
HETATM   14  C   UNL     1      -7.671   7.646  72.215  1.00  0.00    -0.093 C  
HETATM   15  N   UNL     1      -7.825   8.517  73.413  1.00  0.00    -0.391 NA 
HETATM   16  H2  UNL     1      -8.736   8.975  73.447  1.00  0.00     0.000 HD 
HETATM   17  H1  UNL     1      -7.636   7.963  74.249  1.00  0.00     0.000 HD 
BRANCH  14  18
HETATM   18  C   UNL     1      -8.634   6.457  72.343  1.00  0.00    -0.120 C  
BRANCH  18  19
HETATM   19  C   UNL     1      -9.921   6.816  73.093  1.00  0.00    -0.214 C  
BRANCH  19  20
HETATM   20  C   UNL     1     -10.972   7.418  72.153  1.00  0.00    -0.284 C  
BRANCH  20  21
HETATM   21  C   UNL     1     -12.186   6.498  72.028  1.00  0.00    -0.295 C  
HETATM   22  N   UNL     1     -12.004   5.305  72.847  1.00  0.00    -0.448 NA 
HETATM   23  H1  UNL     1     -12.814   4.691  72.763  1.00  0.00     0.000 HD 
HETATM   24  H2  UNL     1     -11.803   5.539  73.819  1.00  0.00     0.000 HD 
ENDBRANCH  20  21
ENDBRANCH  19  20
ENDBRANCH  18  19
ENDBRANCH  14  18
ENDBRANCH  12  14
ENDBRANCH   2  10
TORSDOF 8
ENDMDL
MODEL      265
REMARK 921   NORMALIZED FREE ENERGY PREDICTED BY IDOCK:   -3.46 KCAL/MOL
REMARK 922        TOTAL FREE ENERGY PREDICTED BY IDOCK:   -5.87 KCAL/MOL
REMARK 923 INTER-LIGAND FREE ENERGY PREDICTED BY IDOCK:   -4.79 KCAL/MOL
REMARK 924 INTRA-LIGAND FREE ENERGY PREDICTED BY IDOCK:   -1.08 KCAL/MOL
REMARK 927      BINDING AFFINITY PREDICTED BY RF-SCORE:    0.00 PKD
ROOT
HETATM    1  C   UNL     1      -5.394  12.138  68.288  1.00  0.00    -0.053 C  
HETATM    2  C   UNL     1      -6.550  12.455  67.339  1.00  0.00    -0.157 C  
ENDROOT
BRANCH   2   3
HETATM    3  C   UNL     1      -7.233  11.173  66.806  1.00  0.00    -0.146 C  
BRANCH   3   4
HETATM    4  C   UNL     1      -8.692  11.020  67.185  1.00  0.00    -0.135 A  
HETATM    5  C   UNL     1      -9.051  10.546  68.456  1.00  0.00    -0.154 A  
HETATM    6  C   UNL     1     -11.396  10.765  67.910  1.00  0.00    -0.372 A  
HETATM    7  C   UNL     1     -10.396  10.418  68.815  1.00  0.00    -0.213 A  
HETATM    8  C   UNL     1     -11.054  11.247  66.648  1.00  0.00    -0.299 A  
HETATM    9  C   UNL     1      -9.709  11.379  66.290  1.00  0.00    -0.239 A  
ENDBRANCH   3   4
ENDBRANCH   2   3
BRANCH   2  10
HETATM   10  N   UNL     1      -7.503  13.314  68.038  1.00  0.00    -0.121 N  
HETATM   11  H   UNL     1      -8.087  12.897  68.762  1.00  0.00     0.000 HD 
HETATM   12  C   UNL     1      -7.656  14.657  67.771  1.00  0.00    -0.160 C  
HETATM   13  O   UNL     1      -6.952  15.283  66.984  1.00  0.00    -0.228 OA 
BRANCH  12  14
HETATM   14  C   UNL     1      -8.779  15.324  68.600  1.00  0.00    -0.182 C  
HETATM   15  N   UNL     1      -8.908  16.746  68.180  1.00  0.00    -0.217 NA 
HETATM   16  H2  UNL     1      -9.056  16.843  67.175  1.00  0.00     0.000 HD 
HETATM   17  H1  UNL     1      -9.648  17.185  68.727  1.00  0.00     0.000 HD 
BRANCH  14  18
HETATM   18  C   UNL     1     -10.131  14.625  68.397  1.00  0.00    -0.237 C  
BRANCH  18  19
HETATM   19  C   UNL     1     -11.126  15.480  67.605  1.00  0.00    -0.311 C  
BRANCH  19  20
HETATM   20  C   UNL     1     -11.828  14.663  66.514  1.00  0.00    -0.317 C  
BRANCH  20  21
HETATM   21  C   UNL     1     -11.059  14.736  65.195  1.00  0.00    -0.384 C  
HETATM   22  N   UNL     1     -11.923  15.237  64.132  1.00  0.00    -0.864 NA 
HETATM   23  H1  UNL     1     -11.410  15.285  63.252  1.00  0.00     0.000 HD 
HETATM   24  H2  UNL     1     -12.345  16.133  64.376  1.00  0.00     0.000 HD 
ENDBRANCH  20  21
ENDBRANCH  19  20
ENDBRANCH  18  19
ENDBRANCH  14  18
ENDBRANCH  12  14
ENDBRANCH   2  10
TORSDOF 8
ENDMDL
MODEL      266
REMARK 921   NORMALIZED FREE ENERGY PREDICTED BY IDOCK:   -3.46 KCAL/MOL
REMARK 922        TOTAL FREE ENERGY PREDICTED BY IDOCK:   -5.86 KCAL/MOL
REMARK 923 INTER-LIGAND FREE ENERGY PREDICTED BY IDOCK:   -5.15 KCAL/MOL
REMARK 924 INTRA-LIGAND FREE ENERGY PREDICTED BY IDOCK:   -0.71 KCAL/MOL
REMARK 927      BINDING AFFINITY PREDICTED BY RF-SCORE:    0.00 PKD
ROOT
HETATM    1  C   UNL     1     -12.918  10.317  71.557  1.00  0.00    -0.556 C  
HETATM    2  C   UNL     1     -12.051  10.725  70.367  1.00  0.00    -0.354 C  
ENDROOT
BRANCH   2   3
HETATM    3  C   UNL     1     -12.082  12.253  70.120  1.00  0.00    -0.364 C  
BRANCH   3   4
HETATM    4  C   UNL     1     -11.960  12.669  68.668  1.00  0.00    -0.264 A  
HETATM    5  C   UNL     1     -11.941  14.027  68.317  1.00  0.00    -0.384 A  
HETATM    6  C   UNL     1     -11.701  13.450  65.980  1.00  0.00    -0.398 A  
HETATM    7  C   UNL     1     -11.814  14.414  66.979  1.00  0.00    -0.437 A  
HETATM    8  C   UNL     1     -11.708  12.098  66.317  1.00  0.00    -0.389 A  
HETATM    9  C   UNL     1     -11.831  11.710  67.654  1.00  0.00    -0.216 A  
ENDBRANCH   3   4
ENDBRANCH   2   3
BRANCH   2  10
HETATM   10  N   UNL     1     -10.689  10.251  70.599  1.00  0.00    -0.406 N  
HETATM   11  H   UNL     1     -10.061  10.838  71.149  1.00  0.00     0.000 HD 
HETATM   12  C   UNL     1     -10.205   9.054  70.117  1.00  0.00    -0.197 C  
HETATM   13  O   UNL     1     -10.891   8.230  69.519  1.00  0.00    -0.210 OA 
BRANCH  12  14
HETATM   14  C   UNL     1      -8.711   8.820  70.445  1.00  0.00    -0.166 C  
HETATM   15  N   UNL     1      -8.540   7.426  70.939  1.00  0.00    -0.134 NA 
HETATM   16  H2  UNL     1      -8.909   6.733  70.286  1.00  0.00     0.000 HD 
HETATM   17  H1  UNL     1      -7.556   7.271  71.155  1.00  0.00     0.000 HD 
BRANCH  14  18
HETATM   18  C   UNL     1      -7.817   9.019  69.213  1.00  0.00    -0.095 C  
BRANCH  18  19
HETATM   19  C   UNL     1      -7.108   7.731  68.781  1.00  0.00    -0.076 C  
BRANCH  19  20
HETATM   20  C   UNL     1      -7.218   7.507  67.269  1.00  0.00    -0.086 C  
BRANCH  20  21
HETATM   21  C   UNL     1      -8.669   7.627  66.801  1.00  0.00    -0.133 C  
HETATM   22  N   UNL     1      -8.985   6.564  65.854  1.00  0.00    -0.285 NA 
HETATM   23  H1  UNL     1      -9.953   6.645  65.542  1.00  0.00     0.000 HD 
HETATM   24  H2  UNL     1      -8.785   5.641  66.238  1.00  0.00     0.000 HD 
ENDBRANCH  20  21
ENDBRANCH  19  20
ENDBRANCH  18  19
ENDBRANCH  14  18
ENDBRANCH  12  14
ENDBRANCH   2  10
TORSDOF 8
ENDMDL
MODEL      267
REMARK 921   NORMALIZED FREE ENERGY PREDICTED BY IDOCK:   -3.46 KCAL/MOL
REMARK 922        TOTAL FREE ENERGY PREDICTED BY IDOCK:   -5.86 KCAL/MOL
REMARK 923 INTER-LIGAND FREE ENERGY PREDICTED BY IDOCK:   -6.18 KCAL/MOL
REMARK 924 INTRA-LIGAND FREE ENERGY PREDICTED BY IDOCK:    0.32 KCAL/MOL
REMARK 927      BINDING AFFINITY PREDICTED BY RF-SCORE:    0.00 PKD
ROOT
HETATM    1  C   UNL     1     -10.612  17.970  67.498  1.00  0.00    -0.402 C  
HETATM    2  C   UNL     1      -9.477  17.396  66.651  1.00  0.00    -0.274 C  
ENDROOT
BRANCH   2   3
HETATM    3  C   UNL     1      -8.305  16.880  67.521  1.00  0.00    -0.201 C  
BRANCH   3   4
HETATM    4  C   UNL     1      -7.424  17.961  68.113  1.00  0.00    -0.250 A  
HETATM    5  C   UNL     1      -7.475  19.272  67.618  1.00  0.00    -0.271 A  
HETATM    6  C   UNL     1      -5.817  19.980  69.229  1.00  0.00    -0.319 A  
HETATM    7  C   UNL     1      -6.674  20.275  68.172  1.00  0.00    -0.330 A  
HETATM    8  C   UNL     1      -5.764  18.684  69.739  1.00  0.00    -0.250 A  
HETATM    9  C   UNL     1      -6.567  17.681  69.187  1.00  0.00    -0.251 A  
ENDBRANCH   3   4
ENDBRANCH   2   3
BRANCH   2  10
HETATM   10  N   UNL     1     -10.017  16.336  65.804  1.00  0.00    -0.335 N  
HETATM   11  H   UNL     1      -9.921  16.430  64.793  1.00  0.00     0.000 HD 
HETATM   12  C   UNL     1     -10.651  15.215  66.297  1.00  0.00    -0.310 C  
HETATM   13  O   UNL     1     -10.749  14.955  67.492  1.00  0.00    -0.266 OA 
BRANCH  12  14
HETATM   14  C   UNL     1     -11.192  14.280  65.189  1.00  0.00    -0.345 C  
HETATM   15  N   UNL     1     -10.076  13.927  64.270  1.00  0.00    -0.687 NA 
HETATM   16  H2  UNL     1      -9.278  13.526  64.763  1.00  0.00     0.000 HD 
HETATM   17  H1  UNL     1     -10.432  13.311  63.540  1.00  0.00     0.000 HD 
BRANCH  14  18
HETATM   18  C   UNL     1     -11.780  12.986  65.770  1.00  0.00    -0.427 C  
BRANCH  18  19
HETATM   19  C   UNL     1     -10.724  12.111  66.453  1.00  0.00    -0.292 C  
BRANCH  19  20
HETATM   20  C   UNL     1     -11.366  10.952  67.224  1.00  0.00    -0.230 C  
BRANCH  20  21
HETATM   21  C   UNL     1     -11.537  11.306  68.702  1.00  0.00    -0.318 C  
HETATM   22  N   UNL     1     -10.248  11.648  69.293  1.00  0.00    -0.425 NA 
HETATM   23  H1  UNL     1     -10.362  11.884  70.279  1.00  0.00     0.000 HD 
HETATM   24  H2  UNL     1      -9.779  12.391  68.776  1.00  0.00     0.000 HD 
ENDBRANCH  20  21
ENDBRANCH  19  20
ENDBRANCH  18  19
ENDBRANCH  14  18
ENDBRANCH  12  14
ENDBRANCH   2  10
TORSDOF 8
ENDMDL
MODEL      268
REMARK 921   NORMALIZED FREE ENERGY PREDICTED BY IDOCK:   -3.44 KCAL/MOL
REMARK 922        TOTAL FREE ENERGY PREDICTED BY IDOCK:   -5.83 KCAL/MOL
REMARK 923 INTER-LIGAND FREE ENERGY PREDICTED BY IDOCK:   -5.22 KCAL/MOL
REMARK 924 INTRA-LIGAND FREE ENERGY PREDICTED BY IDOCK:   -0.61 KCAL/MOL
REMARK 927      BINDING AFFINITY PREDICTED BY RF-SCORE:    0.00 PKD
ROOT
HETATM    1  C   UNL     1      -7.804   8.878  66.321  1.00  0.00    -0.102 C  
HETATM    2  C   UNL     1      -9.119   9.593  66.630  1.00  0.00    -0.148 C  
ENDROOT
BRANCH   2   3
HETATM    3  C   UNL     1     -10.033   9.694  65.385  1.00  0.00    -0.230 C  
BRANCH   3   4
HETATM    4  C   UNL     1     -10.724  11.030  65.205  1.00  0.00    -0.253 A  
HETATM    5  C   UNL     1     -11.215  11.733  66.315  1.00  0.00    -0.370 A  
HETATM    6  C   UNL     1     -11.978  13.525  64.882  1.00  0.00    -0.410 A  
HETATM    7  C   UNL     1     -11.840  12.973  66.153  1.00  0.00    -0.466 A  
HETATM    8  C   UNL     1     -11.485  12.842  63.772  1.00  0.00    -0.519 A  
HETATM    9  C   UNL     1     -10.857  11.604  63.933  1.00  0.00    -0.471 A  
ENDBRANCH   3   4
ENDBRANCH   2   3
BRANCH   2  10
HETATM   10  N   UNL     1      -9.785   8.892  67.724  1.00  0.00    -0.155 N  
HETATM   11  H   UNL     1     -10.239   8.002  67.520  1.00  0.00     0.000 HD 
HETATM   12  C   UNL     1      -9.834   9.367  69.017  1.00  0.00    -0.169 C  
HETATM   13  O   UNL     1      -9.253  10.379  69.396  1.00  0.00    -0.201 OA 
BRANCH  12  14
HETATM   14  C   UNL     1     -10.660   8.469  69.969  1.00  0.00    -0.227 C  
HETATM   15  N   UNL     1     -11.936   9.162  70.297  1.00  0.00    -0.461 NA 
HETATM   16  H2  UNL     1     -12.459   9.429  69.463  1.00  0.00     0.000 HD 
HETATM   17  H1  UNL     1     -12.480   8.571  70.925  1.00  0.00     0.000 HD 
BRANCH  14  18
HETATM   18  C   UNL     1     -10.986   7.109  69.335  1.00  0.00    -0.189 C  
BRANCH  18  19
HETATM   19  C   UNL     1     -10.861   5.948  70.328  1.00  0.00    -0.391 C  
BRANCH  19  20
HETATM   20  C   UNL     1      -9.573   5.149  70.100  1.00  0.00    -0.247 C  
BRANCH  20  21
HETATM   21  C   UNL     1      -8.601   5.332  71.266  1.00  0.00    -0.128 C  
HETATM   22  N   UNL     1      -7.375   5.974  70.806  1.00  0.00    -0.083 NA 
HETATM   23  H1  UNL     1      -6.726   6.096  71.584  1.00  0.00     0.000 HD 
HETATM   24  H2  UNL     1      -7.563   6.854  70.326  1.00  0.00     0.000 HD 
ENDBRANCH  20  21
ENDBRANCH  19  20
ENDBRANCH  18  19
ENDBRANCH  14  18
ENDBRANCH  12  14
ENDBRANCH   2  10
TORSDOF 8
ENDMDL
MODEL      269
REMARK 921   NORMALIZED FREE ENERGY PREDICTED BY IDOCK:   -3.41 KCAL/MOL
REMARK 922        TOTAL FREE ENERGY PREDICTED BY IDOCK:   -5.79 KCAL/MOL
REMARK 923 INTER-LIGAND FREE ENERGY PREDICTED BY IDOCK:   -5.24 KCAL/MOL
REMARK 924 INTRA-LIGAND FREE ENERGY PREDICTED BY IDOCK:   -0.55 KCAL/MOL
REMARK 927      BINDING AFFINITY PREDICTED BY RF-SCORE:    0.00 PKD
ROOT
HETATM    1  C   UNL     1      -7.762   9.560  66.010  1.00  0.00    -0.100 C  
HETATM    2  C   UNL     1      -9.040  10.193  66.560  1.00  0.00    -0.144 C  
ENDROOT
BRANCH   2   3
HETATM    3  C   UNL     1     -10.082  10.463  65.448  1.00  0.00    -0.354 C  
BRANCH   3   4
HETATM    4  C   UNL     1     -10.954  11.682  65.669  1.00  0.00    -0.322 A  
HETATM    5  C   UNL     1     -10.884  12.397  66.875  1.00  0.00    -0.286 A  
HETATM    6  C   UNL     1     -12.543  13.965  66.075  1.00  0.00    -0.467 A  
HETATM    7  C   UNL     1     -11.677  13.531  67.076  1.00  0.00    -0.424 A  
HETATM    8  C   UNL     1     -12.613  13.270  64.869  1.00  0.00    -0.444 A  
HETATM    9  C   UNL     1     -11.819  12.139  64.666  1.00  0.00    -0.400 A  
ENDBRANCH   3   4
ENDBRANCH   2   3
BRANCH   2  10
HETATM   10  N   UNL     1      -9.583   9.320  67.598  1.00  0.00    -0.139 N  
HETATM   11  H   UNL     1     -10.279   8.626  67.327  1.00  0.00     0.000 HD 
HETATM   12  C   UNL     1      -9.206   9.383  68.922  1.00  0.00    -0.140 C  
HETATM   13  O   UNL     1      -8.319  10.118  69.346  1.00  0.00    -0.143 OA 
BRANCH  12  14
HETATM   14  C   UNL     1      -9.981   8.397  69.828  1.00  0.00    -0.191 C  
HETATM   15  N   UNL     1      -9.049   7.327  70.280  1.00  0.00    -0.152 NA 
HETATM   16  H2  UNL     1      -8.217   7.702  70.735  1.00  0.00     0.000 HD 
HETATM   17  H1  UNL     1      -9.559   6.676  70.877  1.00  0.00     0.000 HD 
BRANCH  14  18
HETATM   18  C   UNL     1     -10.567   9.095  71.063  1.00  0.00    -0.362 C  
BRANCH  18  19
HETATM   19  C   UNL     1     -10.038   8.511  72.379  1.00  0.00    -0.365 C  
BRANCH  19  20
HETATM   20  C   UNL     1     -11.075   7.602  73.048  1.00  0.00    -0.437 C  
BRANCH  20  21
HETATM   21  C   UNL     1     -10.661   6.134  72.950  1.00  0.00    -0.232 C  
HETATM   22  N   UNL     1      -9.233   5.992  73.210  1.00  0.00    -0.133 NA 
HETATM   23  H1  UNL     1      -8.956   5.013  73.144  1.00  0.00     0.000 HD 
HETATM   24  H2  UNL     1      -8.967   6.403  74.105  1.00  0.00     0.000 HD 
ENDBRANCH  20  21
ENDBRANCH  19  20
ENDBRANCH  18  19
ENDBRANCH  14  18
ENDBRANCH  12  14
ENDBRANCH   2  10
TORSDOF 8
ENDMDL
MODEL      270
REMARK 921   NORMALIZED FREE ENERGY PREDICTED BY IDOCK:   -3.40 KCAL/MOL
REMARK 922        TOTAL FREE ENERGY PREDICTED BY IDOCK:   -5.78 KCAL/MOL
REMARK 923 INTER-LIGAND FREE ENERGY PREDICTED BY IDOCK:   -4.86 KCAL/MOL
REMARK 924 INTRA-LIGAND FREE ENERGY PREDICTED BY IDOCK:   -0.92 KCAL/MOL
REMARK 927      BINDING AFFINITY PREDICTED BY RF-SCORE:    0.00 PKD
ROOT
HETATM    1  C   UNL     1     -10.733   8.137  67.279  1.00  0.00    -0.263 C  
HETATM    2  C   UNL     1     -10.392   6.711  67.710  1.00  0.00    -0.196 C  
ENDROOT
BRANCH   2   3
HETATM    3  C   UNL     1     -11.285   6.226  68.878  1.00  0.00    -0.387 C  
BRANCH   3   4
HETATM    4  C   UNL     1     -10.930   6.799  70.235  1.00  0.00    -0.339 A  
HETATM    5  C   UNL     1     -11.939   7.200  71.123  1.00  0.00    -0.381 A  
HETATM    6  C   UNL     1     -10.282   7.830  72.769  1.00  0.00    -0.360 A  
HETATM    7  C   UNL     1     -11.616   7.715  72.383  1.00  0.00    -0.386 A  
HETATM    8  C   UNL     1      -9.271   7.425  71.900  1.00  0.00    -0.151 A  
HETATM    9  C   UNL     1      -9.594   6.907  70.643  1.00  0.00    -0.171 A  
ENDBRANCH   3   4
ENDBRANCH   2   3
BRANCH   2  10
HETATM   10  N   UNL     1     -10.511   5.832  66.549  1.00  0.00    -0.389 N  
HETATM   11  H   UNL     1     -11.285   5.988  65.904  1.00  0.00     0.000 HD 
HETATM   12  C   UNL     1      -9.635   4.804  66.278  1.00  0.00    -0.178 C  
HETATM   13  O   UNL     1      -8.623   4.577  66.934  1.00  0.00    -0.105 OA 
BRANCH  12  14
HETATM   14  C   UNL     1     -10.023   3.981  65.027  1.00  0.00    -0.201 C  
HETATM   15  N   UNL     1     -11.457   4.231  64.713  1.00  0.00    -0.992 NA 
HETATM   16  H2  UNL     1     -11.665   5.224  64.605  1.00  0.00     0.000 HD 
HETATM   17  H1  UNL     1     -11.713   3.689  63.888  1.00  0.00     0.000 HD 
BRANCH  14  18
HETATM   18  C   UNL     1      -9.177   4.364  63.804  1.00  0.00    -0.118 C  
BRANCH  18  19
HETATM   19  C   UNL     1      -8.369   3.185  63.251  1.00  0.00    -0.085 C  
BRANCH  19  20
HETATM   20  C   UNL     1      -7.159   2.866  64.136  1.00  0.00    -0.049 C  
BRANCH  20  21
HETATM   21  C   UNL     1      -7.348   1.533  64.861  1.00  0.00    -0.053 C  
HETATM   22  N   UNL     1      -7.534   1.756  66.290  1.00  0.00    -0.060 NA 
HETATM   23  H1  UNL     1      -7.659   0.866  66.774  1.00  0.00     0.000 HD 
HETATM   24  H2  UNL     1      -8.300   2.402  66.477  1.00  0.00     0.000 HD 
ENDBRANCH  20  21
ENDBRANCH  19  20
ENDBRANCH  18  19
ENDBRANCH  14  18
ENDBRANCH  12  14
ENDBRANCH   2  10
TORSDOF 8
ENDMDL
MODEL      271
REMARK 921   NORMALIZED FREE ENERGY PREDICTED BY IDOCK:   -3.40 KCAL/MOL
REMARK 922        TOTAL FREE ENERGY PREDICTED BY IDOCK:   -5.78 KCAL/MOL
REMARK 923 INTER-LIGAND FREE ENERGY PREDICTED BY IDOCK:   -6.16 KCAL/MOL
REMARK 924 INTRA-LIGAND FREE ENERGY PREDICTED BY IDOCK:    0.38 KCAL/MOL
REMARK 927      BINDING AFFINITY PREDICTED BY RF-SCORE:    0.00 PKD
ROOT
HETATM    1  C   UNL     1     -13.402  10.154  71.196  1.00  0.00    -0.372 C  
HETATM    2  C   UNL     1     -12.082   9.563  71.691  1.00  0.00    -0.398 C  
ENDROOT
BRANCH   2   3
HETATM    3  C   UNL     1     -12.261   8.136  72.262  1.00  0.00    -0.397 C  
BRANCH   3   4
HETATM    4  C   UNL     1     -11.425   7.067  71.586  1.00  0.00    -0.299 A  
HETATM    5  C   UNL     1     -11.660   6.721  70.247  1.00  0.00    -0.417 A  
HETATM    6  C   UNL     1      -9.857   5.111  70.316  1.00  0.00    -0.295 A  
HETATM    7  C   UNL     1     -10.881   5.746  69.617  1.00  0.00    -0.418 A  
HETATM    8  C   UNL     1      -9.606   5.453  71.643  1.00  0.00    -0.190 A  
HETATM    9  C   UNL     1     -10.383   6.430  72.273  1.00  0.00    -0.215 A  
ENDBRANCH   3   4
ENDBRANCH   2   3
BRANCH   2  10
HETATM   10  N   UNL     1     -11.123   9.580  70.590  1.00  0.00    -0.275 N  
HETATM   11  H   UNL     1     -10.599   8.727  70.394  1.00  0.00     0.000 HD 
HETATM   12  C   UNL     1     -10.887  10.685  69.801  1.00  0.00    -0.261 C  
HETATM   13  O   UNL     1     -11.516  11.735  69.888  1.00  0.00    -0.272 OA 
BRANCH  12  14
HETATM   14  C   UNL     1      -9.774  10.461  68.749  1.00  0.00    -0.183 C  
HETATM   15  N   UNL     1      -9.126   9.146  69.007  1.00  0.00    -0.142 NA 
HETATM   16  H2  UNL     1      -9.798   8.379  69.031  1.00  0.00     0.000 HD 
HETATM   17  H1  UNL     1      -8.392   8.998  68.315  1.00  0.00     0.000 HD 
BRANCH  14  18
HETATM   18  C   UNL     1     -10.330  10.465  67.318  1.00  0.00    -0.278 C  
BRANCH  18  19
HETATM   19  C   UNL     1      -9.793  11.629  66.478  1.00  0.00    -0.228 C  
BRANCH  19  20
HETATM   20  C   UNL     1      -9.855  11.317  64.978  1.00  0.00    -0.307 C  
BRANCH  20  21
HETATM   21  C   UNL     1     -10.952  12.132  64.294  1.00  0.00    -0.339 C  
HETATM   22  N   UNL     1     -11.539  11.371  63.197  1.00  0.00    -0.873 NA 
HETATM   23  H1  UNL     1     -12.270  11.915  62.740  1.00  0.00     0.000 HD 
HETATM   24  H2  UNL     1     -11.878  10.460  63.506  1.00  0.00     0.000 HD 
ENDBRANCH  20  21
ENDBRANCH  19  20
ENDBRANCH  18  19
ENDBRANCH  14  18
ENDBRANCH  12  14
ENDBRANCH   2  10
TORSDOF 8
ENDMDL
MODEL      272
REMARK 921   NORMALIZED FREE ENERGY PREDICTED BY IDOCK:   -3.39 KCAL/MOL
REMARK 922        TOTAL FREE ENERGY PREDICTED BY IDOCK:   -5.77 KCAL/MOL
REMARK 923 INTER-LIGAND FREE ENERGY PREDICTED BY IDOCK:   -5.15 KCAL/MOL
REMARK 924 INTRA-LIGAND FREE ENERGY PREDICTED BY IDOCK:   -0.61 KCAL/MOL
REMARK 927      BINDING AFFINITY PREDICTED BY RF-SCORE:    0.00 PKD
ROOT
HETATM    1  C   UNL     1     -10.289   4.546  72.816  1.00  0.00    -0.245 C  
HETATM    2  C   UNL     1      -9.689   5.111  71.529  1.00  0.00    -0.166 C  
ENDROOT
BRANCH   2   3
HETATM    3  C   UNL     1     -10.514   4.718  70.280  1.00  0.00    -0.046 C  
BRANCH   3   4
HETATM    4  C   UNL     1     -10.125   5.436  69.004  1.00  0.00    -0.283 A  
HETATM    5  C   UNL     1      -8.966   5.067  68.305  1.00  0.00    -0.120 A  
HETATM    6  C   UNL     1      -9.413   6.740  66.617  1.00  0.00    -0.205 A  
HETATM    7  C   UNL     1      -8.612   5.717  67.119  1.00  0.00    -0.109 A  
HETATM    8  C   UNL     1     -10.573   7.109  67.296  1.00  0.00    -0.398 A  
HETATM    9  C   UNL     1     -10.929   6.457  68.479  1.00  0.00    -0.396 A  
ENDBRANCH   3   4
ENDBRANCH   2   3
BRANCH   2  10
HETATM   10  N   UNL     1      -9.585   6.562  71.662  1.00  0.00    -0.161 N  
HETATM   11  H   UNL     1     -10.408   7.079  71.972  1.00  0.00     0.000 HD 
HETATM   12  C   UNL     1      -8.434   7.272  71.392  1.00  0.00    -0.114 C  
HETATM   13  O   UNL     1      -7.363   6.751  71.096  1.00  0.00    -0.076 OA 
BRANCH  12  14
HETATM   14  C   UNL     1      -8.607   8.802  71.545  1.00  0.00    -0.186 C  
HETATM   15  N   UNL     1      -7.264   9.424  71.699  1.00  0.00    -0.304 NA 
HETATM   16  H2  UNL     1      -6.631   9.178  70.937  1.00  0.00     0.000 HD 
HETATM   17  H1  UNL     1      -7.377  10.432  71.799  1.00  0.00     0.000 HD 
BRANCH  14  18
HETATM   18  C   UNL     1      -9.302   9.423  70.325  1.00  0.00    -0.294 C  
BRANCH  18  19
HETATM   19  C   UNL     1     -10.825   9.252  70.360  1.00  0.00    -0.302 C  
BRANCH  19  20
HETATM   20  C   UNL     1     -11.361   9.277  71.796  1.00  0.00    -0.437 C  
BRANCH  20  21
HETATM   21  C   UNL     1     -12.887   9.357  71.809  1.00  0.00    -0.399 C  
HETATM   22  N   UNL     1     -13.411   8.846  73.071  1.00  0.00    -0.911 NA 
HETATM   23  H1  UNL     1     -14.429   8.899  73.080  1.00  0.00     0.000 HD 
HETATM   24  H2  UNL     1     -12.998   9.322  73.874  1.00  0.00     0.000 HD 
ENDBRANCH  20  21
ENDBRANCH  19  20
ENDBRANCH  18  19
ENDBRANCH  14  18
ENDBRANCH  12  14
ENDBRANCH   2  10
TORSDOF 8
ENDMDL
MODEL      273
REMARK 921   NORMALIZED FREE ENERGY PREDICTED BY IDOCK:   -3.39 KCAL/MOL
REMARK 922        TOTAL FREE ENERGY PREDICTED BY IDOCK:   -5.76 KCAL/MOL
REMARK 923 INTER-LIGAND FREE ENERGY PREDICTED BY IDOCK:   -4.62 KCAL/MOL
REMARK 924 INTRA-LIGAND FREE ENERGY PREDICTED BY IDOCK:   -1.14 KCAL/MOL
REMARK 927      BINDING AFFINITY PREDICTED BY RF-SCORE:    0.00 PKD
ROOT
HETATM    1  C   UNL     1      -8.226   8.513  65.822  1.00  0.00    -0.125 C  
HETATM    2  C   UNL     1      -9.228   7.694  66.635  1.00  0.00    -0.170 C  
ENDROOT
BRANCH   2   3
HETATM    3  C   UNL     1     -10.486   8.515  67.005  1.00  0.00    -0.362 C  
BRANCH   3   4
HETATM    4  C   UNL     1     -10.660   8.788  68.486  1.00  0.00    -0.171 A  
HETATM    5  C   UNL     1     -10.489   7.759  69.424  1.00  0.00    -0.221 A  
HETATM    6  C   UNL     1     -10.946   9.293  71.236  1.00  0.00    -0.421 A  
HETATM    7  C   UNL     1     -10.633   8.011  70.791  1.00  0.00    -0.228 A  
HETATM    8  C   UNL     1     -11.108  10.326  70.316  1.00  0.00    -0.388 A  
HETATM    9  C   UNL     1     -10.960  10.076  68.949  1.00  0.00    -0.244 A  
ENDBRANCH   3   4
ENDBRANCH   2   3
BRANCH   2  10
HETATM   10  N   UNL     1      -9.578   6.498  65.873  1.00  0.00    -0.388 N  
HETATM   11  H   UNL     1      -9.770   6.600  64.876  1.00  0.00     0.000 HD 
HETATM   12  C   UNL     1      -9.665   5.239  66.426  1.00  0.00    -0.169 C  
HETATM   13  O   UNL     1      -9.374   4.983  67.591  1.00  0.00    -0.117 OA 
BRANCH  12  14
HETATM   14  C   UNL     1     -10.121   4.156  65.420  1.00  0.00    -0.197 C  
HETATM   15  N   UNL     1     -11.513   4.459  64.987  1.00  0.00    -1.079 NA 
HETATM   16  H2  UNL     1     -11.607   5.403  64.612  1.00  0.00     0.000 HD 
HETATM   17  H1  UNL     1     -11.814   3.745  64.324  1.00  0.00     0.000 HD 
BRANCH  14  18
HETATM   18  C   UNL     1      -9.217   4.110  64.180  1.00  0.00    -0.149 C  
BRANCH  18  19
HETATM   19  C   UNL     1      -7.798   3.627  64.499  1.00  0.00    -0.085 C  
BRANCH  19  20
HETATM   20  C   UNL     1      -6.754   4.706  64.193  1.00  0.00    -0.044 C  
BRANCH  20  21
HETATM   21  C   UNL     1      -6.029   5.144  65.466  1.00  0.00    -0.025 C  
HETATM   22  N   UNL     1      -6.341   4.237  66.564  1.00  0.00    -0.036 NA 
HETATM   23  H1  UNL     1      -5.858   4.529  67.413  1.00  0.00     0.000 HD 
HETATM   24  H2  UNL     1      -6.136   3.267  66.325  1.00  0.00     0.000 HD 
ENDBRANCH  20  21
ENDBRANCH  19  20
ENDBRANCH  18  19
ENDBRANCH  14  18
ENDBRANCH  12  14
ENDBRANCH   2  10
TORSDOF 8
ENDMDL
MODEL      274
REMARK 921   NORMALIZED FREE ENERGY PREDICTED BY IDOCK:   -3.37 KCAL/MOL
REMARK 922        TOTAL FREE ENERGY PREDICTED BY IDOCK:   -5.73 KCAL/MOL
REMARK 923 INTER-LIGAND FREE ENERGY PREDICTED BY IDOCK:   -5.05 KCAL/MOL
REMARK 924 INTRA-LIGAND FREE ENERGY PREDICTED BY IDOCK:   -0.68 KCAL/MOL
REMARK 927      BINDING AFFINITY PREDICTED BY RF-SCORE:    0.00 PKD
ROOT
HETATM    1  C   UNL     1      -9.246  10.148  66.302  1.00  0.00    -0.191 C  
HETATM    2  C   UNL     1      -9.774  10.076  67.734  1.00  0.00    -0.150 C  
ENDROOT
BRANCH   2   3
HETATM    3  C   UNL     1     -11.242  10.553  67.838  1.00  0.00    -0.358 C  
BRANCH   3   4
HETATM    4  C   UNL     1     -11.420  12.052  67.971  1.00  0.00    -0.392 A  
HETATM    5  C   UNL     1     -11.676  12.842  66.840  1.00  0.00    -0.447 A  
HETATM    6  C   UNL     1     -11.786  14.829  68.214  1.00  0.00    -0.340 A  
HETATM    7  C   UNL     1     -11.855  14.223  66.962  1.00  0.00    -0.455 A  
HETATM    8  C   UNL     1     -11.544  14.055  69.347  1.00  0.00    -0.349 A  
HETATM    9  C   UNL     1     -11.368  12.673  69.227  1.00  0.00    -0.306 A  
ENDBRANCH   3   4
ENDBRANCH   2   3
BRANCH   2  10
HETATM   10  N   UNL     1      -9.625   8.706  68.218  1.00  0.00    -0.145 N  
HETATM   11  H   UNL     1      -9.590   7.953  67.530  1.00  0.00     0.000 HD 
HETATM   12  C   UNL     1      -9.529   8.374  69.552  1.00  0.00    -0.166 C  
HETATM   13  O   UNL     1      -9.474   9.198  70.460  1.00  0.00    -0.202 OA 
BRANCH  12  14
HETATM   14  C   UNL     1      -9.448   6.849  69.800  1.00  0.00    -0.145 C  
HETATM   15  N   UNL     1      -8.505   6.251  68.816  1.00  0.00    -0.119 NA 
HETATM   16  H2  UNL     1      -7.587   6.697  68.835  1.00  0.00     0.000 HD 
HETATM   17  H1  UNL     1      -8.451   5.246  68.980  1.00  0.00     0.000 HD 
BRANCH  14  18
HETATM   18  C   UNL     1      -8.953   6.525  71.217  1.00  0.00    -0.141 C  
BRANCH  18  19
HETATM   19  C   UNL     1      -9.974   5.725  72.033  1.00  0.00    -0.208 C  
BRANCH  19  20
HETATM   20  C   UNL     1     -10.541   6.551  73.193  1.00  0.00    -0.290 C  
BRANCH  20  21
HETATM   21  C   UNL     1     -11.747   7.375  72.740  1.00  0.00    -0.139 C  
HETATM   22  N   UNL     1     -12.673   6.543  71.980  1.00  0.00    -0.505 NA 
HETATM   23  H1  UNL     1     -13.477   7.092  71.678  1.00  0.00     0.000 HD 
HETATM   24  H2  UNL     1     -12.954   5.713  72.502  1.00  0.00     0.000 HD 
ENDBRANCH  20  21
ENDBRANCH  19  20
ENDBRANCH  18  19
ENDBRANCH  14  18
ENDBRANCH  12  14
ENDBRANCH   2  10
TORSDOF 8
ENDMDL
MODEL      275
REMARK 921   NORMALIZED FREE ENERGY PREDICTED BY IDOCK:   -3.36 KCAL/MOL
REMARK 922        TOTAL FREE ENERGY PREDICTED BY IDOCK:   -5.72 KCAL/MOL
REMARK 923 INTER-LIGAND FREE ENERGY PREDICTED BY IDOCK:   -4.38 KCAL/MOL
REMARK 924 INTRA-LIGAND FREE ENERGY PREDICTED BY IDOCK:   -1.34 KCAL/MOL
REMARK 927      BINDING AFFINITY PREDICTED BY RF-SCORE:    0.00 PKD
ROOT
HETATM    1  C   UNL     1      -6.221   8.357  67.950  1.00  0.00    -0.052 C  
HETATM    2  C   UNL     1      -6.956   9.431  68.751  1.00  0.00    -0.064 C  
ENDROOT
BRANCH   2   3
HETATM    3  C   UNL     1      -7.136  10.739  67.943  1.00  0.00    -0.085 C  
BRANCH   3   4
HETATM    4  C   UNL     1      -8.568  11.074  67.578  1.00  0.00    -0.128 A  
HETATM    5  C   UNL     1      -9.228  10.365  66.563  1.00  0.00    -0.184 A  
HETATM    6  C   UNL     1     -11.235  11.667  66.917  1.00  0.00    -0.376 A  
HETATM    7  C   UNL     1     -10.554  10.662  66.234  1.00  0.00    -0.229 A  
HETATM    8  C   UNL     1     -10.594  12.372  67.934  1.00  0.00    -0.231 A  
HETATM    9  C   UNL     1      -9.270  12.073  68.266  1.00  0.00    -0.192 A  
ENDBRANCH   3   4
ENDBRANCH   2   3
BRANCH   2  10
HETATM   10  N   UNL     1      -8.243   8.891  69.181  1.00  0.00    -0.116 N  
HETATM   11  H   UNL     1      -8.962   8.737  68.474  1.00  0.00     0.000 HD 
HETATM   12  C   UNL     1      -8.540   8.578  70.490  1.00  0.00    -0.147 C  
HETATM   13  O   UNL     1      -7.728   8.641  71.409  1.00  0.00    -0.105 OA 
BRANCH  12  14
HETATM   14  C   UNL     1      -9.994   8.089  70.690  1.00  0.00    -0.189 C  
HETATM   15  N   UNL     1     -10.278   8.010  72.149  1.00  0.00    -0.223 NA 
HETATM   16  H2  UNL     1     -10.095   8.892  72.630  1.00  0.00     0.000 HD 
HETATM   17  H1  UNL     1     -11.236   7.687  72.281  1.00  0.00     0.000 HD 
BRANCH  14  18
HETATM   18  C   UNL     1     -11.011   9.037  70.039  1.00  0.00    -0.230 C  
BRANCH  18  19
HETATM   19  C   UNL     1     -11.461  10.158  70.982  1.00  0.00    -0.436 C  
BRANCH  19  20
HETATM   20  C   UNL     1     -12.989  10.224  71.090  1.00  0.00    -0.503 C  
BRANCH  20  21
HETATM   21  C   UNL     1     -13.573   8.852  71.427  1.00  0.00    -0.264 C  
HETATM   22  N   UNL     1     -13.190   8.455  72.776  1.00  0.00    -0.628 NA 
HETATM   23  H1  UNL     1     -13.579   7.539  73.000  1.00  0.00     0.000 HD 
HETATM   24  H2  UNL     1     -13.449   9.158  73.468  1.00  0.00     0.000 HD 
ENDBRANCH  20  21
ENDBRANCH  19  20
ENDBRANCH  18  19
ENDBRANCH  14  18
ENDBRANCH  12  14
ENDBRANCH   2  10
TORSDOF 8
ENDMDL
MODEL      276
REMARK 921   NORMALIZED FREE ENERGY PREDICTED BY IDOCK:   -3.35 KCAL/MOL
REMARK 922        TOTAL FREE ENERGY PREDICTED BY IDOCK:   -5.71 KCAL/MOL
REMARK 923 INTER-LIGAND FREE ENERGY PREDICTED BY IDOCK:   -5.43 KCAL/MOL
REMARK 924 INTRA-LIGAND FREE ENERGY PREDICTED BY IDOCK:   -0.29 KCAL/MOL
REMARK 927      BINDING AFFINITY PREDICTED BY RF-SCORE:    0.00 PKD
ROOT
HETATM    1  C   UNL     1     -13.478  12.424  72.183  1.00  0.00    -0.481 C  
HETATM    2  C   UNL     1     -12.754  12.147  70.866  1.00  0.00    -0.189 C  
ENDROOT
BRANCH   2   3
HETATM    3  C   UNL     1     -11.872  13.340  70.425  1.00  0.00    -0.270 C  
BRANCH   3   4
HETATM    4  C   UNL     1     -11.458  13.326  68.968  1.00  0.00    -0.350 A  
HETATM    5  C   UNL     1     -10.573  14.294  68.469  1.00  0.00    -0.260 A  
HETATM    6  C   UNL     1     -10.658  13.285  66.273  1.00  0.00    -0.294 A  
HETATM    7  C   UNL     1     -10.177  14.273  67.129  1.00  0.00    -0.254 A  
HETATM    8  C   UNL     1     -11.528  12.311  66.758  1.00  0.00    -0.421 A  
HETATM    9  C   UNL     1     -11.922  12.328  68.099  1.00  0.00    -0.256 A  
ENDBRANCH   3   4
ENDBRANCH   2   3
BRANCH   2  10
HETATM   10  N   UNL     1     -11.963  10.929  71.017  1.00  0.00    -0.309 N  
HETATM   11  H   UNL     1     -10.947  11.015  71.059  1.00  0.00     0.000 HD 
HETATM   12  C   UNL     1     -12.513   9.668  71.105  1.00  0.00    -0.332 C  
HETATM   13  O   UNL     1     -13.720   9.451  71.151  1.00  0.00    -0.304 OA 
BRANCH  12  14
HETATM   14  C   UNL     1     -11.456   8.541  71.189  1.00  0.00    -0.276 C  
HETATM   15  N   UNL     1     -11.074   8.137  69.808  1.00  0.00    -0.431 NA 
HETATM   16  H2  UNL     1     -10.757   8.926  69.245  1.00  0.00     0.000 HD 
HETATM   17  H1  UNL     1     -10.377   7.394  69.864  1.00  0.00     0.000 HD 
BRANCH  14  18
HETATM   18  C   UNL     1     -10.194   8.995  71.937  1.00  0.00    -0.342 C  
BRANCH  18  19
HETATM   19  C   UNL     1      -8.967   9.089  71.024  1.00  0.00    -0.304 C  
BRANCH  19  20
HETATM   20  C   UNL     1      -7.683   8.695  71.764  1.00  0.00    -0.131 C  
BRANCH  20  21
HETATM   21  C   UNL     1      -7.995   7.798  72.962  1.00  0.00    -0.126 C  
HETATM   22  N   UNL     1      -7.521   6.441  72.715  1.00  0.00    -0.094 NA 
HETATM   23  H1  UNL     1      -7.729   5.842  73.514  1.00  0.00     0.000 HD 
HETATM   24  H2  UNL     1      -6.530   6.423  72.474  1.00  0.00     0.000 HD 
ENDBRANCH  20  21
ENDBRANCH  19  20
ENDBRANCH  18  19
ENDBRANCH  14  18
ENDBRANCH  12  14
ENDBRANCH   2  10
TORSDOF 8
ENDMDL
MODEL      277
REMARK 921   NORMALIZED FREE ENERGY PREDICTED BY IDOCK:   -3.34 KCAL/MOL
REMARK 922        TOTAL FREE ENERGY PREDICTED BY IDOCK:   -5.69 KCAL/MOL
REMARK 923 INTER-LIGAND FREE ENERGY PREDICTED BY IDOCK:   -4.33 KCAL/MOL
REMARK 924 INTRA-LIGAND FREE ENERGY PREDICTED BY IDOCK:   -1.35 KCAL/MOL
REMARK 927      BINDING AFFINITY PREDICTED BY RF-SCORE:    0.00 PKD
ROOT
HETATM    1  C   UNL     1     -10.006   2.283  72.150  1.00  0.00    -0.231 C  
HETATM    2  C   UNL     1      -9.329   3.652  72.091  1.00  0.00    -0.125 C  
ENDROOT
BRANCH   2   3
HETATM    3  C   UNL     1      -8.117   3.662  71.129  1.00  0.00    -0.068 C  
BRANCH   3   4
HETATM    4  C   UNL     1      -8.411   4.173  69.733  1.00  0.00    -0.079 A  
HETATM    5  C   UNL     1      -7.880   5.395  69.296  1.00  0.00    -0.089 A  
HETATM    6  C   UNL     1      -8.924   5.111  67.134  1.00  0.00    -0.112 A  
HETATM    7  C   UNL     1      -8.137   5.862  68.004  1.00  0.00    -0.105 A  
HETATM    8  C   UNL     1      -9.449   3.890  67.552  1.00  0.00    -0.236 A  
HETATM    9  C   UNL     1      -9.189   3.421  68.842  1.00  0.00    -0.229 A  
ENDBRANCH   3   4
ENDBRANCH   2   3
BRANCH   2  10
HETATM   10  N   UNL     1     -10.325   4.647  71.701  1.00  0.00    -0.161 N  
HETATM   11  H   UNL     1     -10.515   4.776  70.708  1.00  0.00     0.000 HD 
HETATM   12  C   UNL     1     -11.022   5.422  72.603  1.00  0.00    -0.268 C  
HETATM   13  O   UNL     1     -10.939   5.296  73.821  1.00  0.00    -0.295 OA 
BRANCH  12  14
HETATM   14  C   UNL     1     -11.966   6.447  71.930  1.00  0.00    -0.329 C  
HETATM   15  N   UNL     1     -11.932   7.715  72.709  1.00  0.00    -0.592 NA 
HETATM   16  H2  UNL     1     -10.985   8.076  72.824  1.00  0.00     0.000 HD 
HETATM   17  H1  UNL     1     -12.554   8.391  72.266  1.00  0.00     0.000 HD 
BRANCH  14  18
HETATM   18  C   UNL     1     -11.549   6.745  70.483  1.00  0.00    -0.426 C  
BRANCH  18  19
HETATM   19  C   UNL     1     -11.245   8.229  70.249  1.00  0.00    -0.176 C  
BRANCH  19  20
HETATM   20  C   UNL     1      -9.795   8.443  69.798  1.00  0.00    -0.187 C  
BRANCH  20  21
HETATM   21  C   UNL     1      -9.043   9.339  70.782  1.00  0.00    -0.244 C  
HETATM   22  N   UNL     1      -9.041   8.742  72.112  1.00  0.00    -0.383 NA 
HETATM   23  H1  UNL     1      -8.540   9.341  72.769  1.00  0.00     0.000 HD 
HETATM   24  H2  UNL     1      -8.669   7.793  72.102  1.00  0.00     0.000 HD 
ENDBRANCH  20  21
ENDBRANCH  19  20
ENDBRANCH  18  19
ENDBRANCH  14  18
ENDBRANCH  12  14
ENDBRANCH   2  10
TORSDOF 8
ENDMDL
MODEL      278
REMARK 921   NORMALIZED FREE ENERGY PREDICTED BY IDOCK:   -3.34 KCAL/MOL
REMARK 922        TOTAL FREE ENERGY PREDICTED BY IDOCK:   -5.69 KCAL/MOL
REMARK 923 INTER-LIGAND FREE ENERGY PREDICTED BY IDOCK:   -5.13 KCAL/MOL
REMARK 924 INTRA-LIGAND FREE ENERGY PREDICTED BY IDOCK:   -0.56 KCAL/MOL
REMARK 927      BINDING AFFINITY PREDICTED BY RF-SCORE:    0.00 PKD
ROOT
HETATM    1  C   UNL     1     -12.304  14.571  69.530  1.00  0.00    -0.247 C  
HETATM    2  C   UNL     1     -11.266  13.522  69.135  1.00  0.00    -0.260 C  
ENDROOT
BRANCH   2   3
HETATM    3  C   UNL     1     -11.914  12.277  68.482  1.00  0.00    -0.272 C  
BRANCH   3   4
HETATM    4  C   UNL     1     -11.718  10.980  69.242  1.00  0.00    -0.397 A  
HETATM    5  C   UNL     1     -12.419  10.740  70.433  1.00  0.00    -0.430 A  
HETATM    6  C   UNL     1     -11.384   8.564  70.638  1.00  0.00    -0.265 A  
HETATM    7  C   UNL     1     -12.251   9.539  71.127  1.00  0.00    -0.421 A  
HETATM    8  C   UNL     1     -10.690   8.786  69.451  1.00  0.00    -0.180 A  
HETATM    9  C   UNL     1     -10.860   9.985  68.753  1.00  0.00    -0.252 A  
ENDBRANCH   3   4
ENDBRANCH   2   3
BRANCH   2  10
HETATM   10  N   UNL     1     -10.292  14.144  68.241  1.00  0.00    -0.238 N  
HETATM   11  H   UNL     1     -10.558  15.004  67.763  1.00  0.00     0.000 HD 
HETATM   12  C   UNL     1      -9.034  13.632  68.009  1.00  0.00    -0.188 C  
HETATM   13  O   UNL     1      -8.575  12.653  68.591  1.00  0.00    -0.088 OA 
BRANCH  12  14
HETATM   14  C   UNL     1      -8.224  14.442  66.968  1.00  0.00    -0.109 C  
HETATM   15  N   UNL     1      -9.169  15.043  65.986  1.00  0.00    -0.472 NA 
HETATM   16  H2  UNL     1      -9.894  15.602  66.436  1.00  0.00     0.000 HD 
HETATM   17  H1  UNL     1      -8.635  15.576  65.300  1.00  0.00     0.000 HD 
BRANCH  14  18
HETATM   18  C   UNL     1      -7.413  15.568  67.625  1.00  0.00    -0.189 C  
BRANCH  18  19
HETATM   19  C   UNL     1      -8.066  16.944  67.453  1.00  0.00    -0.193 C  
BRANCH  19  20
HETATM   20  C   UNL     1      -7.894  17.809  68.708  1.00  0.00    -0.251 C  
BRANCH  20  21
HETATM   21  C   UNL     1      -7.985  19.296  68.364  1.00  0.00    -0.341 C  
HETATM   22  N   UNL     1      -9.365  19.664  68.068  1.00  0.00    -0.332 NA 
HETATM   23  H1  UNL     1      -9.425  20.656  67.838  1.00  0.00     0.000 HD 
HETATM   24  H2  UNL     1      -9.997  19.410  68.826  1.00  0.00     0.000 HD 
ENDBRANCH  20  21
ENDBRANCH  19  20
ENDBRANCH  18  19
ENDBRANCH  14  18
ENDBRANCH  12  14
ENDBRANCH   2  10
TORSDOF 8
ENDMDL
MODEL      279
REMARK 921   NORMALIZED FREE ENERGY PREDICTED BY IDOCK:   -3.34 KCAL/MOL
REMARK 922        TOTAL FREE ENERGY PREDICTED BY IDOCK:   -5.69 KCAL/MOL
REMARK 923 INTER-LIGAND FREE ENERGY PREDICTED BY IDOCK:   -4.67 KCAL/MOL
REMARK 924 INTRA-LIGAND FREE ENERGY PREDICTED BY IDOCK:   -1.02 KCAL/MOL
REMARK 927      BINDING AFFINITY PREDICTED BY RF-SCORE:    0.00 PKD
ROOT
HETATM    1  C   UNL     1     -10.671   7.147  67.995  1.00  0.00    -0.232 C  
HETATM    2  C   UNL     1     -10.594   8.574  67.455  1.00  0.00    -0.234 C  
ENDROOT
BRANCH   2   3
HETATM    3  C   UNL     1     -10.875   9.629  68.552  1.00  0.00    -0.202 C  
BRANCH   3   4
HETATM    4  C   UNL     1     -10.511   9.200  69.960  1.00  0.00    -0.244 A  
HETATM    5  C   UNL     1     -11.511   8.841  70.875  1.00  0.00    -0.330 A  
HETATM    6  C   UNL     1      -9.842   8.372  72.561  1.00  0.00    -0.359 A  
HETATM    7  C   UNL     1     -11.178   8.431  72.169  1.00  0.00    -0.431 A  
HETATM    8  C   UNL     1      -8.838   8.715  71.658  1.00  0.00    -0.292 A  
HETATM    9  C   UNL     1      -9.171   9.121  70.363  1.00  0.00    -0.271 A  
ENDBRANCH   3   4
ENDBRANCH   2   3
BRANCH   2  10
HETATM   10  N   UNL     1      -9.279   8.773  66.851  1.00  0.00    -0.149 N  
HETATM   11  H   UNL     1      -8.466   8.379  67.325  1.00  0.00     0.000 HD 
HETATM   12  C   UNL     1      -9.076   9.463  65.675  1.00  0.00    -0.207 C  
HETATM   13  O   UNL     1      -9.983   9.905  64.976  1.00  0.00    -0.316 OA 
BRANCH  12  14
HETATM   14  C   UNL     1      -7.583   9.590  65.288  1.00  0.00    -0.111 C  
HETATM   15  N   UNL     1      -7.452  10.605  64.207  1.00  0.00    -0.347 NA 
HETATM   16  H2  UNL     1      -7.865  11.502  64.463  1.00  0.00     0.000 HD 
HETATM   17  H1  UNL     1      -6.468  10.688  63.951  1.00  0.00     0.000 HD 
BRANCH  14  18
HETATM   18  C   UNL     1      -6.718  10.024  66.479  1.00  0.00    -0.082 C  
BRANCH  18  19
HETATM   19  C   UNL     1      -6.810  11.528  66.761  1.00  0.00    -0.114 C  
BRANCH  19  20
HETATM   20  C   UNL     1      -7.657  11.817  68.005  1.00  0.00    -0.116 C  
BRANCH  20  21
HETATM   21  C   UNL     1      -8.937  12.565  67.635  1.00  0.00    -0.185 C  
HETATM   22  N   UNL     1      -8.696  13.451  66.501  1.00  0.00    -0.445 NA 
HETATM   23  H1  UNL     1      -9.550  13.951  66.254  1.00  0.00     0.000 HD 
HETATM   24  H2  UNL     1      -8.304  12.949  65.704  1.00  0.00     0.000 HD 
ENDBRANCH  20  21
ENDBRANCH  19  20
ENDBRANCH  18  19
ENDBRANCH  14  18
ENDBRANCH  12  14
ENDBRANCH   2  10
TORSDOF 8
ENDMDL
MODEL      280
REMARK 921   NORMALIZED FREE ENERGY PREDICTED BY IDOCK:   -3.33 KCAL/MOL
REMARK 922        TOTAL FREE ENERGY PREDICTED BY IDOCK:   -5.68 KCAL/MOL
REMARK 923 INTER-LIGAND FREE ENERGY PREDICTED BY IDOCK:   -5.21 KCAL/MOL
REMARK 924 INTRA-LIGAND FREE ENERGY PREDICTED BY IDOCK:   -0.47 KCAL/MOL
REMARK 927      BINDING AFFINITY PREDICTED BY RF-SCORE:    0.00 PKD
ROOT
HETATM    1  C   UNL     1     -13.369  10.393  71.897  1.00  0.00    -0.469 C  
HETATM    2  C   UNL     1     -12.399  10.759  70.774  1.00  0.00    -0.383 C  
ENDROOT
BRANCH   2   3
HETATM    3  C   UNL     1     -12.300  12.289  70.567  1.00  0.00    -0.349 C  
BRANCH   3   4
HETATM    4  C   UNL     1     -11.839  12.720  69.189  1.00  0.00    -0.352 A  
HETATM    5  C   UNL     1     -11.339  14.013  68.978  1.00  0.00    -0.319 A  
HETATM    6  C   UNL     1     -10.951  13.515  66.644  1.00  0.00    -0.293 A  
HETATM    7  C   UNL     1     -10.899  14.408  67.711  1.00  0.00    -0.263 A  
HETATM    8  C   UNL     1     -11.435  12.224  66.842  1.00  0.00    -0.418 A  
HETATM    9  C   UNL     1     -11.871  11.827  68.109  1.00  0.00    -0.324 A  
ENDBRANCH   3   4
ENDBRANCH   2   3
BRANCH   2  10
HETATM   10  N   UNL     1     -11.094  10.177  71.079  1.00  0.00    -0.321 N  
HETATM   11  H   UNL     1     -10.358  10.796  71.418  1.00  0.00     0.000 HD 
HETATM   12  C   UNL     1     -10.803   8.838  70.934  1.00  0.00    -0.238 C  
HETATM   13  O   UNL     1     -11.631   7.989  70.617  1.00  0.00    -0.272 OA 
BRANCH  12  14
HETATM   14  C   UNL     1      -9.330   8.492  71.257  1.00  0.00    -0.203 C  
HETATM   15  N   UNL     1      -9.187   7.011  71.317  1.00  0.00    -0.152 NA 
HETATM   16  H2  UNL     1      -9.517   6.553  70.467  1.00  0.00     0.000 HD 
HETATM   17  H1  UNL     1      -8.217   6.782  71.531  1.00  0.00     0.000 HD 
BRANCH  14  18
HETATM   18  C   UNL     1      -8.367   9.038  70.193  1.00  0.00    -0.156 C  
BRANCH  18  19
HETATM   19  C   UNL     1      -9.045  10.018  69.230  1.00  0.00    -0.208 C  
BRANCH  19  20
HETATM   20  C   UNL     1      -8.254  11.326  69.109  1.00  0.00     0.045 C  
BRANCH  20  21
HETATM   21  C   UNL     1      -6.860  11.181  69.719  1.00  0.00    -0.089 C  
HETATM   22  N   UNL     1      -6.522  12.367  70.498  1.00  0.00    -0.446 NA 
HETATM   23  H1  UNL     1      -5.591  12.270  70.905  1.00  0.00     0.000 HD 
HETATM   24  H2  UNL     1      -7.227  12.570  71.206  1.00  0.00     0.000 HD 
ENDBRANCH  20  21
ENDBRANCH  19  20
ENDBRANCH  18  19
ENDBRANCH  14  18
ENDBRANCH  12  14
ENDBRANCH   2  10
TORSDOF 8
ENDMDL
MODEL      281
REMARK 921   NORMALIZED FREE ENERGY PREDICTED BY IDOCK:   -3.32 KCAL/MOL
REMARK 922        TOTAL FREE ENERGY PREDICTED BY IDOCK:   -5.67 KCAL/MOL
REMARK 923 INTER-LIGAND FREE ENERGY PREDICTED BY IDOCK:   -4.62 KCAL/MOL
REMARK 924 INTRA-LIGAND FREE ENERGY PREDICTED BY IDOCK:   -1.05 KCAL/MOL
REMARK 927      BINDING AFFINITY PREDICTED BY RF-SCORE:    0.00 PKD
ROOT
HETATM    1  C   UNL     1     -10.583  13.894  69.162  1.00  0.00    -0.124 C  
HETATM    2  C   UNL     1     -11.546  12.747  68.857  1.00  0.00    -0.316 C  
ENDROOT
BRANCH   2   3
HETATM    3  C   UNL     1     -11.635  12.450  67.340  1.00  0.00    -0.433 C  
BRANCH   3   4
HETATM    4  C   UNL     1     -10.599  11.477  66.817  1.00  0.00    -0.289 A  
HETATM    5  C   UNL     1      -9.355  11.938  66.362  1.00  0.00    -0.233 A  
HETATM    6  C   UNL     1      -8.657   9.674  65.877  1.00  0.00    -0.146 A  
HETATM    7  C   UNL     1      -8.391  11.041  65.892  1.00  0.00    -0.119 A  
HETATM    8  C   UNL     1      -9.885   9.201  66.337  1.00  0.00    -0.350 A  
HETATM    9  C   UNL     1     -10.848  10.097  66.809  1.00  0.00    -0.129 A  
ENDBRANCH   3   4
ENDBRANCH   2   3
BRANCH   2  10
HETATM   10  N   UNL     1     -11.119  11.568  69.605  1.00  0.00    -0.443 N  
HETATM   11  H   UNL     1     -10.183  11.201  69.433  1.00  0.00     0.000 HD 
HETATM   12  C   UNL     1     -11.911  10.925  70.532  1.00  0.00    -0.360 C  
HETATM   13  O   UNL     1     -13.017  11.325  70.882  1.00  0.00    -0.273 OA 
BRANCH  12  14
HETATM   14  C   UNL     1     -11.249   9.662  71.133  1.00  0.00    -0.384 C  
HETATM   15  N   UNL     1     -12.194   9.038  72.099  1.00  0.00    -0.369 NA 
HETATM   16  H2  UNL     1     -13.104   8.839  71.682  1.00  0.00     0.000 HD 
HETATM   17  H1  UNL     1     -11.758   8.206  72.496  1.00  0.00     0.000 HD 
BRANCH  14  18
HETATM   18  C   UNL     1     -10.897   8.630  70.052  1.00  0.00    -0.226 C  
BRANCH  18  19
HETATM   19  C   UNL     1      -9.563   7.925  70.319  1.00  0.00    -0.171 C  
BRANCH  19  20
HETATM   20  C   UNL     1      -8.373   8.781  69.871  1.00  0.00    -0.125 C  
BRANCH  20  21
HETATM   21  C   UNL     1      -7.444   7.988  68.952  1.00  0.00    -0.093 C  
HETATM   22  N   UNL     1      -6.056   8.160  69.365  1.00  0.00    -0.033 NA 
HETATM   23  H1  UNL     1      -5.435   7.632  68.752  1.00  0.00     0.000 HD 
HETATM   24  H2  UNL     1      -5.918   7.918  70.346  1.00  0.00     0.000 HD 
ENDBRANCH  20  21
ENDBRANCH  19  20
ENDBRANCH  18  19
ENDBRANCH  14  18
ENDBRANCH  12  14
ENDBRANCH   2  10
TORSDOF 8
ENDMDL
MODEL      282
REMARK 921   NORMALIZED FREE ENERGY PREDICTED BY IDOCK:   -3.32 KCAL/MOL
REMARK 922        TOTAL FREE ENERGY PREDICTED BY IDOCK:   -5.67 KCAL/MOL
REMARK 923 INTER-LIGAND FREE ENERGY PREDICTED BY IDOCK:   -5.87 KCAL/MOL
REMARK 924 INTRA-LIGAND FREE ENERGY PREDICTED BY IDOCK:    0.20 KCAL/MOL
REMARK 927      BINDING AFFINITY PREDICTED BY RF-SCORE:    0.00 PKD
ROOT
HETATM    1  C   UNL     1      -8.366   8.581  69.798  1.00  0.00    -0.124 C  
HETATM    2  C   UNL     1      -9.311   8.297  68.631  1.00  0.00    -0.143 C  
ENDROOT
BRANCH   2   3
HETATM    3  C   UNL     1     -10.722   7.882  69.113  1.00  0.00    -0.130 C  
BRANCH   3   4
HETATM    4  C   UNL     1     -10.786   7.364  70.535  1.00  0.00    -0.259 A  
HETATM    5  C   UNL     1     -10.401   6.048  70.832  1.00  0.00    -0.277 A  
HETATM    6  C   UNL     1     -10.870   6.406  73.177  1.00  0.00    -0.282 A  
HETATM    7  C   UNL     1     -10.445   5.572  72.145  1.00  0.00    -0.272 A  
HETATM    8  C   UNL     1     -11.245   7.719  72.898  1.00  0.00    -0.434 A  
HETATM    9  C   UNL     1     -11.198   8.197  71.585  1.00  0.00    -0.314 A  
ENDBRANCH   3   4
ENDBRANCH   2   3
BRANCH   2  10
HETATM   10  N   UNL     1      -9.368   9.483  67.779  1.00  0.00    -0.128 N  
HETATM   11  H   UNL     1      -8.870   9.461  66.889  1.00  0.00     0.000 HD 
HETATM   12  C   UNL     1     -10.056  10.629  68.112  1.00  0.00    -0.158 C  
HETATM   13  O   UNL     1     -10.758  10.739  69.113  1.00  0.00    -0.201 OA 
BRANCH  12  14
HETATM   14  C   UNL     1      -9.900  11.763  67.071  1.00  0.00    -0.197 C  
HETATM   15  N   UNL     1      -9.431  11.174  65.786  1.00  0.00    -0.213 NA 
HETATM   16  H2  UNL     1     -10.040  10.425  65.456  1.00  0.00     0.000 HD 
HETATM   17  H1  UNL     1      -9.328  11.921  65.100  1.00  0.00     0.000 HD 
BRANCH  14  18
HETATM   18  C   UNL     1     -11.225  12.498  66.822  1.00  0.00    -0.347 C  
BRANCH  18  19
HETATM   19  C   UNL     1     -11.179  13.396  65.581  1.00  0.00    -0.307 C  
BRANCH  19  20
HETATM   20  C   UNL     1     -11.638  14.823  65.902  1.00  0.00    -0.286 C  
BRANCH  20  21
HETATM   21  C   UNL     1     -10.997  15.832  64.949  1.00  0.00    -0.427 C  
HETATM   22  N   UNL     1     -11.882  16.096  63.821  1.00  0.00    -1.368 NA 
HETATM   23  H1  UNL     1     -11.454  16.769  63.184  1.00  0.00     0.000 HD 
HETATM   24  H2  UNL     1     -12.808  16.397  64.126  1.00  0.00     0.000 HD 
ENDBRANCH  20  21
ENDBRANCH  19  20
ENDBRANCH  18  19
ENDBRANCH  14  18
ENDBRANCH  12  14
ENDBRANCH   2  10
TORSDOF 8
ENDMDL
MODEL      283
REMARK 921   NORMALIZED FREE ENERGY PREDICTED BY IDOCK:   -3.32 KCAL/MOL
REMARK 922        TOTAL FREE ENERGY PREDICTED BY IDOCK:   -5.66 KCAL/MOL
REMARK 923 INTER-LIGAND FREE ENERGY PREDICTED BY IDOCK:   -5.01 KCAL/MOL
REMARK 924 INTRA-LIGAND FREE ENERGY PREDICTED BY IDOCK:   -0.65 KCAL/MOL
REMARK 927      BINDING AFFINITY PREDICTED BY RF-SCORE:    0.00 PKD
ROOT
HETATM    1  C   UNL     1     -10.532   5.048  70.342  1.00  0.00    -0.237 C  
HETATM    2  C   UNL     1     -10.309   6.470  70.856  1.00  0.00    -0.207 C  
ENDROOT
BRANCH   2   3
HETATM    3  C   UNL     1      -9.321   7.262  69.967  1.00  0.00    -0.154 C  
BRANCH   3   4
HETATM    4  C   UNL     1      -7.863   7.135  70.360  1.00  0.00    -0.100 A  
HETATM    5  C   UNL     1      -6.949   6.497  69.507  1.00  0.00    -0.067 A  
HETATM    6  C   UNL     1      -5.150   6.925  71.066  1.00  0.00    -0.023 A  
HETATM    7  C   UNL     1      -5.600   6.392  69.860  1.00  0.00    -0.014 A  
HETATM    8  C   UNL     1      -6.045   7.570  71.917  1.00  0.00    -0.036 A  
HETATM    9  C   UNL     1      -7.393   7.679  71.563  1.00  0.00    -0.071 A  
ENDBRANCH   3   4
ENDBRANCH   2   3
BRANCH   2  10
HETATM   10  N   UNL     1     -11.603   7.142  70.942  1.00  0.00    -0.298 N  
HETATM   11  H   UNL     1     -12.357   6.816  70.338  1.00  0.00     0.000 HD 
HETATM   12  C   UNL     1     -11.860   8.193  71.795  1.00  0.00    -0.300 C  
HETATM   13  O   UNL     1     -11.059   8.613  72.625  1.00  0.00    -0.260 OA 
BRANCH  12  14
HETATM   14  C   UNL     1     -13.287   8.772  71.643  1.00  0.00    -0.359 C  
HETATM   15  N   UNL     1     -14.028   8.567  72.918  1.00  0.00    -0.827 NA 
HETATM   16  H2  UNL     1     -13.535   8.955  73.722  1.00  0.00     0.000 HD 
HETATM   17  H1  UNL     1     -14.968   8.948  72.817  1.00  0.00     0.000 HD 
BRANCH  14  18
HETATM   18  C   UNL     1     -13.264  10.273  71.322  1.00  0.00    -0.447 C  
BRANCH  18  19
HETATM   19  C   UNL     1     -12.467  10.595  70.053  1.00  0.00    -0.294 C  
BRANCH  19  20
HETATM   20  C   UNL     1     -12.010  12.058  70.030  1.00  0.00    -0.400 C  
BRANCH  20  21
HETATM   21  C   UNL     1     -11.341  12.402  68.700  1.00  0.00    -0.288 C  
HETATM   22  N   UNL     1     -11.927  11.617  67.620  1.00  0.00    -0.625 NA 
HETATM   23  H1  UNL     1     -11.480  11.846  66.732  1.00  0.00     0.000 HD 
HETATM   24  H2  UNL     1     -12.940  11.728  67.575  1.00  0.00     0.000 HD 
ENDBRANCH  20  21
ENDBRANCH  19  20
ENDBRANCH  18  19
ENDBRANCH  14  18
ENDBRANCH  12  14
ENDBRANCH   2  10
TORSDOF 8
ENDMDL
MODEL      284
REMARK 921   NORMALIZED FREE ENERGY PREDICTED BY IDOCK:   -3.32 KCAL/MOL
REMARK 922        TOTAL FREE ENERGY PREDICTED BY IDOCK:   -5.66 KCAL/MOL
REMARK 923 INTER-LIGAND FREE ENERGY PREDICTED BY IDOCK:   -5.45 KCAL/MOL
REMARK 924 INTRA-LIGAND FREE ENERGY PREDICTED BY IDOCK:   -0.21 KCAL/MOL
REMARK 927      BINDING AFFINITY PREDICTED BY RF-SCORE:    0.00 PKD
ROOT
HETATM    1  C   UNL     1      -7.178  16.126  69.054  1.00  0.00    -0.195 C  
HETATM    2  C   UNL     1      -8.685  16.385  69.064  1.00  0.00    -0.233 C  
ENDROOT
BRANCH   2   3
HETATM    3  C   UNL     1      -9.023  17.864  68.758  1.00  0.00    -0.203 C  
BRANCH   3   4
HETATM    4  C   UNL     1      -7.909  18.654  68.102  1.00  0.00    -0.309 A  
HETATM    5  C   UNL     1      -7.704  18.579  66.717  1.00  0.00    -0.252 A  
HETATM    6  C   UNL     1      -5.865  20.142  66.873  1.00  0.00    -0.191 A  
HETATM    7  C   UNL     1      -6.686  19.318  66.107  1.00  0.00    -0.237 A  
HETATM    8  C   UNL     1      -6.065  20.233  68.249  1.00  0.00    -0.315 A  
HETATM    9  C   UNL     1      -7.084  19.498  68.859  1.00  0.00    -0.394 A  
ENDBRANCH   3   4
ENDBRANCH   2   3
BRANCH   2  10
HETATM   10  N   UNL     1      -9.318  15.485  68.104  1.00  0.00    -0.196 N  
HETATM   11  H   UNL     1      -8.791  14.673  67.785  1.00  0.00     0.000 HD 
HETATM   12  C   UNL     1     -10.589  15.674  67.605  1.00  0.00    -0.294 C  
HETATM   13  O   UNL     1     -11.345  16.565  67.980  1.00  0.00    -0.269 OA 
BRANCH  12  14
HETATM   14  C   UNL     1     -10.998  14.617  66.551  1.00  0.00    -0.318 C  
HETATM   15  N   UNL     1      -9.872  14.432  65.595  1.00  0.00    -0.471 NA 
HETATM   16  H2  UNL     1      -8.997  14.195  66.064  1.00  0.00     0.000 HD 
HETATM   17  H1  UNL     1     -10.141  13.736  64.900  1.00  0.00     0.000 HD 
BRANCH  14  18
HETATM   18  C   UNL     1     -11.325  13.263  67.196  1.00  0.00    -0.351 C  
BRANCH  18  19
HETATM   19  C   UNL     1     -12.340  13.381  68.338  1.00  0.00     0.077 C  
BRANCH  19  20
HETATM   20  C   UNL     1     -11.715  13.013  69.688  1.00  0.00    -0.364 C  
BRANCH  20  21
HETATM   21  C   UNL     1     -11.927  14.128  70.712  1.00  0.00    -0.306 C  
HETATM   22  N   UNL     1     -12.825  15.144  70.176  1.00  0.00    -0.625 NA 
HETATM   23  H1  UNL     1     -12.966  15.888  70.859  1.00  0.00     0.000 HD 
HETATM   24  H2  UNL     1     -13.709  14.743  69.864  1.00  0.00     0.000 HD 
ENDBRANCH  20  21
ENDBRANCH  19  20
ENDBRANCH  18  19
ENDBRANCH  14  18
ENDBRANCH  12  14
ENDBRANCH   2  10
TORSDOF 8
ENDMDL
MODEL      285
REMARK 921   NORMALIZED FREE ENERGY PREDICTED BY IDOCK:   -3.30 KCAL/MOL
REMARK 922        TOTAL FREE ENERGY PREDICTED BY IDOCK:   -5.63 KCAL/MOL
REMARK 923 INTER-LIGAND FREE ENERGY PREDICTED BY IDOCK:   -5.03 KCAL/MOL
REMARK 924 INTRA-LIGAND FREE ENERGY PREDICTED BY IDOCK:   -0.60 KCAL/MOL
REMARK 927      BINDING AFFINITY PREDICTED BY RF-SCORE:    0.00 PKD
ROOT
HETATM    1  C   UNL     1     -12.357  11.943  70.976  1.00  0.00    -0.362 C  
HETATM    2  C   UNL     1     -12.527  10.868  69.903  1.00  0.00    -0.224 C  
ENDROOT
BRANCH   2   3
HETATM    3  C   UNL     1     -11.636  11.133  68.667  1.00  0.00    -0.383 C  
BRANCH   3   4
HETATM    4  C   UNL     1     -10.543  10.109  68.434  1.00  0.00    -0.249 A  
HETATM    5  C   UNL     1      -9.435  10.043  69.292  1.00  0.00    -0.227 A  
HETATM    6  C   UNL     1      -8.529   8.190  68.029  1.00  0.00    -0.133 A  
HETATM    7  C   UNL     1      -8.433   9.089  69.089  1.00  0.00    -0.128 A  
HETATM    8  C   UNL     1      -9.630   8.238  67.176  1.00  0.00    -0.234 A  
HETATM    9  C   UNL     1     -10.634   9.189  67.381  1.00  0.00    -0.315 A  
ENDBRANCH   3   4
ENDBRANCH   2   3
BRANCH   2  10
HETATM   10  N   UNL     1     -12.238   9.566  70.499  1.00  0.00    -0.472 N  
HETATM   11  H   UNL     1     -11.288   9.202  70.425  1.00  0.00     0.000 HD 
HETATM   12  C   UNL     1     -13.178   8.801  71.154  1.00  0.00    -0.056 C  
HETATM   13  O   UNL     1     -14.327   9.172  71.378  1.00  0.00    -0.211 OA 
BRANCH  12  14
HETATM   14  C   UNL     1     -12.633   7.434  71.631  1.00  0.00    -0.358 C  
HETATM   15  N   UNL     1     -12.129   6.679  70.451  1.00  0.00    -0.543 NA 
HETATM   16  H2  UNL     1     -11.439   7.208  69.916  1.00  0.00     0.000 HD 
HETATM   17  H1  UNL     1     -11.770   5.778  70.764  1.00  0.00     0.000 HD 
BRANCH  14  18
HETATM   18  C   UNL     1     -11.486   7.595  72.640  1.00  0.00    -0.403 C  
BRANCH  18  19
HETATM   19  C   UNL     1     -10.105   7.559  71.976  1.00  0.00    -0.225 C  
BRANCH  19  20
HETATM   20  C   UNL     1      -9.034   8.192  72.870  1.00  0.00    -0.328 C  
BRANCH  20  21
HETATM   21  C   UNL     1      -8.031   7.143  73.351  1.00  0.00    -0.103 C  
HETATM   22  N   UNL     1      -6.722   7.751  73.559  1.00  0.00    -0.082 NA 
HETATM   23  H1  UNL     1      -6.053   7.051  73.879  1.00  0.00     0.000 HD 
HETATM   24  H2  UNL     1      -6.770   8.549  74.192  1.00  0.00     0.000 HD 
ENDBRANCH  20  21
ENDBRANCH  19  20
ENDBRANCH  18  19
ENDBRANCH  14  18
ENDBRANCH  12  14
ENDBRANCH   2  10
TORSDOF 8
ENDMDL
MODEL      286
REMARK 921   NORMALIZED FREE ENERGY PREDICTED BY IDOCK:   -3.30 KCAL/MOL
REMARK 922        TOTAL FREE ENERGY PREDICTED BY IDOCK:   -5.63 KCAL/MOL
REMARK 923 INTER-LIGAND FREE ENERGY PREDICTED BY IDOCK:   -4.89 KCAL/MOL
REMARK 924 INTRA-LIGAND FREE ENERGY PREDICTED BY IDOCK:   -0.75 KCAL/MOL
REMARK 927      BINDING AFFINITY PREDICTED BY RF-SCORE:    0.00 PKD
ROOT
HETATM    1  C   UNL     1      -9.606  10.298  66.340  1.00  0.00    -0.233 C  
HETATM    2  C   UNL     1     -10.194  10.435  67.744  1.00  0.00    -0.193 C  
ENDROOT
BRANCH   2   3
HETATM    3  C   UNL     1     -11.612  11.055  67.724  1.00  0.00    -0.277 C  
BRANCH   3   4
HETATM    4  C   UNL     1     -11.925  11.975  68.887  1.00  0.00    -0.303 A  
HETATM    5  C   UNL     1     -12.383  11.451  70.105  1.00  0.00    -0.344 A  
HETATM    6  C   UNL     1     -12.475  13.671  71.059  1.00  0.00    -0.456 A  
HETATM    7  C   UNL     1     -12.658  12.296  71.184  1.00  0.00    -0.353 A  
HETATM    8  C   UNL     1     -12.011  14.203  69.858  1.00  0.00    -0.398 A  
HETATM    9  C   UNL     1     -11.732  13.359  68.780  1.00  0.00    -0.377 A  
ENDBRANCH   3   4
ENDBRANCH   2   3
BRANCH   2  10
HETATM   10  N   UNL     1     -10.197   9.119  68.377  1.00  0.00    -0.194 N  
HETATM   11  H   UNL     1     -10.562   8.329  67.845  1.00  0.00     0.000 HD 
HETATM   12  C   UNL     1      -9.735   8.886  69.654  1.00  0.00    -0.174 C  
HETATM   13  O   UNL     1      -9.197   9.739  70.354  1.00  0.00    -0.237 OA 
BRANCH  12  14
HETATM   14  C   UNL     1      -9.914   7.419  70.113  1.00  0.00    -0.184 C  
HETATM   15  N   UNL     1     -10.617   7.409  71.425  1.00  0.00    -0.215 NA 
HETATM   16  H2  UNL     1     -11.501   7.918  71.398  1.00  0.00     0.000 HD 
HETATM   17  H1  UNL     1     -10.735   6.442  71.728  1.00  0.00     0.000 HD 
BRANCH  14  18
HETATM   18  C   UNL     1     -10.736   6.601  69.107  1.00  0.00    -0.304 C  
BRANCH  18  19
HETATM   19  C   UNL     1     -10.039   5.299  68.694  1.00  0.00    -0.238 C  
BRANCH  19  20
HETATM   20  C   UNL     1      -9.884   4.342  69.881  1.00  0.00    -0.290 C  
BRANCH  20  21
HETATM   21  C   UNL     1      -8.411   4.024  70.139  1.00  0.00    -0.060 C  
HETATM   22  N   UNL     1      -7.571   4.656  69.128  1.00  0.00    -0.056 NA 
HETATM   23  H1  UNL     1      -6.589   4.443  69.299  1.00  0.00     0.000 HD 
HETATM   24  H2  UNL     1      -7.739   5.661  69.069  1.00  0.00     0.000 HD 
ENDBRANCH  20  21
ENDBRANCH  19  20
ENDBRANCH  18  19
ENDBRANCH  14  18
ENDBRANCH  12  14
ENDBRANCH   2  10
TORSDOF 8
ENDMDL
MODEL      287
REMARK 921   NORMALIZED FREE ENERGY PREDICTED BY IDOCK:   -3.29 KCAL/MOL
REMARK 922        TOTAL FREE ENERGY PREDICTED BY IDOCK:   -5.62 KCAL/MOL
REMARK 923 INTER-LIGAND FREE ENERGY PREDICTED BY IDOCK:   -4.96 KCAL/MOL
REMARK 924 INTRA-LIGAND FREE ENERGY PREDICTED BY IDOCK:   -0.66 KCAL/MOL
REMARK 927      BINDING AFFINITY PREDICTED BY RF-SCORE:    0.00 PKD
ROOT
HETATM    1  C   UNL     1      -8.533   9.037  69.697  1.00  0.00    -0.128 C  
HETATM    2  C   UNL     1      -9.867   9.253  70.411  1.00  0.00    -0.241 C  
ENDROOT
BRANCH   2   3
HETATM    3  C   UNL     1      -9.718   9.202  71.951  1.00  0.00    -0.076 C  
BRANCH   3   4
HETATM    4  C   UNL     1      -9.769   7.812  72.553  1.00  0.00    -0.262 A  
HETATM    5  C   UNL     1      -8.684   7.316  73.291  1.00  0.00    -0.176 A  
HETATM    6  C   UNL     1      -9.869   5.249  73.702  1.00  0.00    -0.171 A  
HETATM    7  C   UNL     1      -8.734   6.040  73.861  1.00  0.00    -0.123 A  
HETATM    8  C   UNL     1     -10.958   5.733  72.980  1.00  0.00    -0.314 A  
HETATM    9  C   UNL     1     -10.910   7.010  72.413  1.00  0.00    -0.272 A  
ENDBRANCH   3   4
ENDBRANCH   2   3
BRANCH   2  10
HETATM   10  N   UNL     1     -10.428  10.529  69.974  1.00  0.00    -0.449 N  
HETATM   11  H   UNL     1      -9.816  11.182  69.484  1.00  0.00     0.000 HD 
HETATM   12  C   UNL     1     -11.738  10.899  70.186  1.00  0.00    -0.347 C  
HETATM   13  O   UNL     1     -12.584  10.163  70.686  1.00  0.00    -0.305 OA 
BRANCH  12  14
HETATM   14  C   UNL     1     -12.061  12.327  69.687  1.00  0.00    -0.212 C  
HETATM   15  N   UNL     1     -12.148  13.238  70.861  1.00  0.00    -0.484 NA 
HETATM   16  H2  UNL     1     -11.308  13.209  71.439  1.00  0.00     0.000 HD 
HETATM   17  H1  UNL     1     -12.361  14.180  70.532  1.00  0.00     0.000 HD 
BRANCH  14  18
HETATM   18  C   UNL     1     -10.984  12.856  68.730  1.00  0.00    -0.292 C  
BRANCH  18  19
HETATM   19  C   UNL     1     -11.523  13.910  67.756  1.00  0.00    -0.354 C  
BRANCH  19  20
HETATM   20  C   UNL     1     -10.578  15.113  67.648  1.00  0.00    -0.263 C  
BRANCH  20  21
HETATM   21  C   UNL     1      -9.696  15.230  68.892  1.00  0.00    -0.220 C  
HETATM   22  N   UNL     1     -10.335  16.083  69.887  1.00  0.00    -0.276 NA 
HETATM   23  H1  UNL     1      -9.746  16.161  70.717  1.00  0.00     0.000 HD 
HETATM   24  H2  UNL     1     -11.275  15.761  70.117  1.00  0.00     0.000 HD 
ENDBRANCH  20  21
ENDBRANCH  19  20
ENDBRANCH  18  19
ENDBRANCH  14  18
ENDBRANCH  12  14
ENDBRANCH   2  10
TORSDOF 8
ENDMDL
MODEL      288
REMARK 921   NORMALIZED FREE ENERGY PREDICTED BY IDOCK:   -3.29 KCAL/MOL
REMARK 922        TOTAL FREE ENERGY PREDICTED BY IDOCK:   -5.62 KCAL/MOL
REMARK 923 INTER-LIGAND FREE ENERGY PREDICTED BY IDOCK:   -5.24 KCAL/MOL
REMARK 924 INTRA-LIGAND FREE ENERGY PREDICTED BY IDOCK:   -0.38 KCAL/MOL
REMARK 927      BINDING AFFINITY PREDICTED BY RF-SCORE:    0.00 PKD
ROOT
HETATM    1  C   UNL     1     -11.133   6.426  68.742  1.00  0.00    -0.404 C  
HETATM    2  C   UNL     1     -10.162   7.585  68.518  1.00  0.00    -0.197 C  
ENDROOT
BRANCH   2   3
HETATM    3  C   UNL     1      -9.281   7.371  67.264  1.00  0.00    -0.150 C  
BRANCH   3   4
HETATM    4  C   UNL     1      -8.879   5.934  67.001  1.00  0.00    -0.112 A  
HETATM    5  C   UNL     1      -7.782   5.369  67.669  1.00  0.00    -0.092 A  
HETATM    6  C   UNL     1      -8.146   3.259  66.545  1.00  0.00    -0.088 A  
HETATM    7  C   UNL     1      -7.418   4.038  67.441  1.00  0.00    -0.068 A  
HETATM    8  C   UNL     1      -9.244   3.805  65.883  1.00  0.00    -0.159 A  
HETATM    9  C   UNL     1      -9.611   5.133  66.114  1.00  0.00    -0.177 A  
ENDBRANCH   3   4
ENDBRANCH   2   3
BRANCH   2  10
HETATM   10  N   UNL     1     -10.930   8.824  68.424  1.00  0.00    -0.451 N  
HETATM   11  H   UNL     1     -11.565   8.939  67.634  1.00  0.00     0.000 HD 
HETATM   12  C   UNL     1     -10.843   9.846  69.344  1.00  0.00    -0.237 C  
HETATM   13  O   UNL     1     -10.180   9.784  70.375  1.00  0.00    -0.269 OA 
BRANCH  12  14
HETATM   14  C   UNL     1     -11.707  11.077  68.977  1.00  0.00    -0.333 C  
HETATM   15  N   UNL     1     -11.606  12.078  70.074  1.00  0.00    -0.510 NA 
HETATM   16  H2  UNL     1     -10.640  12.330  70.284  1.00  0.00     0.000 HD 
HETATM   17  H1  UNL     1     -12.176  12.889  69.833  1.00  0.00     0.000 HD 
BRANCH  14  18
HETATM   18  C   UNL     1     -11.244  11.731  67.668  1.00  0.00    -0.345 C  
BRANCH  18  19
HETATM   19  C   UNL     1     -11.904  13.092  67.421  1.00  0.00    -0.411 C  
BRANCH  19  20
HETATM   20  C   UNL     1     -10.863  14.176  67.119  1.00  0.00    -0.291 C  
BRANCH  20  21
HETATM   21  C   UNL     1     -10.890  14.566  65.642  1.00  0.00    -0.326 C  
HETATM   22  N   UNL     1      -9.930  13.767  64.889  1.00  0.00    -0.620 NA 
HETATM   23  H1  UNL     1      -9.948  14.027  63.903  1.00  0.00     0.000 HD 
HETATM   24  H2  UNL     1     -10.082  12.767  65.021  1.00  0.00     0.000 HD 
ENDBRANCH  20  21
ENDBRANCH  19  20
ENDBRANCH  18  19
ENDBRANCH  14  18
ENDBRANCH  12  14
ENDBRANCH   2  10
TORSDOF 8
ENDMDL
MODEL      289
REMARK 921   NORMALIZED FREE ENERGY PREDICTED BY IDOCK:   -3.28 KCAL/MOL
REMARK 922        TOTAL FREE ENERGY PREDICTED BY IDOCK:   -5.60 KCAL/MOL
REMARK 923 INTER-LIGAND FREE ENERGY PREDICTED BY IDOCK:   -5.10 KCAL/MOL
REMARK 924 INTRA-LIGAND FREE ENERGY PREDICTED BY IDOCK:   -0.50 KCAL/MOL
REMARK 927      BINDING AFFINITY PREDICTED BY RF-SCORE:    0.00 PKD
ROOT
HETATM    1  C   UNL     1      -6.600  13.057  69.111  1.00  0.00    -0.104 C  
HETATM    2  C   UNL     1      -7.041  13.300  67.668  1.00  0.00    -0.159 C  
ENDROOT
BRANCH   2   3
HETATM    3  C   UNL     1      -7.834  12.103  67.092  1.00  0.00    -0.160 C  
BRANCH   3   4
HETATM    4  C   UNL     1      -9.291  12.388  66.787  1.00  0.00    -0.220 A  
HETATM    5  C   UNL     1     -10.224  12.510  67.827  1.00  0.00    -0.217 A  
HETATM    6  C   UNL     1     -11.989  12.949  66.232  1.00  0.00    -0.472 A  
HETATM    7  C   UNL     1     -11.566  12.788  67.550  1.00  0.00    -0.412 A  
HETATM    8  C   UNL     1     -11.070  12.840  65.191  1.00  0.00    -0.323 A  
HETATM    9  C   UNL     1      -9.727  12.567  65.467  1.00  0.00    -0.133 A  
ENDBRANCH   3   4
ENDBRANCH   2   3
BRANCH   2  10
HETATM   10  N   UNL     1      -7.827  14.531  67.622  1.00  0.00    -0.164 N  
HETATM   11  H   UNL     1      -8.804  14.489  67.910  1.00  0.00     0.000 HD 
HETATM   12  C   UNL     1      -7.320  15.744  67.211  1.00  0.00    -0.222 C  
HETATM   13  O   UNL     1      -6.141  15.932  66.924  1.00  0.00    -0.297 OA 
BRANCH  12  14
HETATM   14  C   UNL     1      -8.377  16.875  67.189  1.00  0.00    -0.193 C  
HETATM   15  N   UNL     1      -9.725  16.269  67.012  1.00  0.00    -0.234 NA 
HETATM   16  H2  UNL     1      -9.929  15.559  67.716  1.00  0.00     0.000 HD 
HETATM   17  H1  UNL     1     -10.421  17.014  66.997  1.00  0.00     0.000 HD 
BRANCH  14  18
HETATM   18  C   UNL     1      -8.369  17.690  68.491  1.00  0.00    -0.291 C  
BRANCH  18  19
HETATM   19  C   UNL     1      -7.903  19.134  68.281  1.00  0.00    -0.351 C  
BRANCH  19  20
HETATM   20  C   UNL     1      -9.023  20.010  67.707  1.00  0.00    -0.396 C  
BRANCH  20  21
HETATM   21  C   UNL     1     -10.383  19.598  68.269  1.00  0.00    -0.420 C  
HETATM   22  N   UNL     1     -10.576  20.168  69.597  1.00  0.00    -0.331 NA 
HETATM   23  H1  UNL     1     -11.483  19.892  69.973  1.00  0.00     0.000 HD 
HETATM   24  H2  UNL     1     -10.455  21.180  69.598  1.00  0.00     0.000 HD 
ENDBRANCH  20  21
ENDBRANCH  19  20
ENDBRANCH  18  19
ENDBRANCH  14  18
ENDBRANCH  12  14
ENDBRANCH   2  10
TORSDOF 8
ENDMDL
MODEL      290
REMARK 921   NORMALIZED FREE ENERGY PREDICTED BY IDOCK:   -3.26 KCAL/MOL
REMARK 922        TOTAL FREE ENERGY PREDICTED BY IDOCK:   -5.58 KCAL/MOL
REMARK 923 INTER-LIGAND FREE ENERGY PREDICTED BY IDOCK:   -4.95 KCAL/MOL
REMARK 924 INTRA-LIGAND FREE ENERGY PREDICTED BY IDOCK:   -0.63 KCAL/MOL
REMARK 927      BINDING AFFINITY PREDICTED BY RF-SCORE:    0.00 PKD
ROOT
HETATM    1  C   UNL     1     -11.319  14.481  69.282  1.00  0.00    -0.317 C  
HETATM    2  C   UNL     1     -10.444  14.510  68.030  1.00  0.00    -0.236 C  
ENDROOT
BRANCH   2   3
HETATM    3  C   UNL     1      -8.936  14.563  68.374  1.00  0.00    -0.186 C  
BRANCH   3   4
HETATM    4  C   UNL     1      -8.211  15.802  67.890  1.00  0.00    -0.151 A  
HETATM    5  C   UNL     1      -8.296  16.197  66.547  1.00  0.00    -0.352 A  
HETATM    6  C   UNL     1      -6.898  18.119  66.991  1.00  0.00    -0.207 A  
HETATM    7  C   UNL     1      -7.641  17.349  66.100  1.00  0.00    -0.321 A  
HETATM    8  C   UNL     1      -6.815  17.745  68.331  1.00  0.00    -0.221 A  
HETATM    9  C   UNL     1      -7.472  16.596  68.779  1.00  0.00    -0.224 A  
ENDBRANCH   3   4
ENDBRANCH   2   3
BRANCH   2  10
HETATM   10  N   UNL     1     -10.762  13.343  67.212  1.00  0.00    -0.258 N  
HETATM   11  H   UNL     1     -10.917  12.452  67.683  1.00  0.00     0.000 HD 
HETATM   12  C   UNL     1     -10.865  13.380  65.838  1.00  0.00    -0.274 C  
HETATM   13  O   UNL     1     -10.784  14.408  65.173  1.00  0.00    -0.347 OA 
BRANCH  12  14
HETATM   14  C   UNL     1     -11.143  11.995  65.206  1.00  0.00    -0.317 C  
HETATM   15  N   UNL     1     -11.280  12.158  63.733  1.00  0.00    -0.396 NA 
HETATM   16  H2  UNL     1     -10.473  12.621  63.315  1.00  0.00     0.000 HD 
HETATM   17  H1  UNL     1     -11.464  11.245  63.316  1.00  0.00     0.000 HD 
BRANCH  14  18
HETATM   18  C   UNL     1     -10.009  10.999  65.489  1.00  0.00    -0.308 C  
BRANCH  18  19
HETATM   19  C   UNL     1      -9.053  10.839  64.302  1.00  0.00    -0.216 C  
BRANCH  19  20
HETATM   20  C   UNL     1      -7.725  10.204  64.730  1.00  0.00    -0.141 C  
BRANCH  20  21
HETATM   21  C   UNL     1      -6.876   9.836  63.513  1.00  0.00    -0.117 C  
HETATM   22  N   UNL     1      -6.942  10.893  62.511  1.00  0.00    -0.359 NA 
HETATM   23  H1  UNL     1      -6.377  10.647  61.698  1.00  0.00     0.000 HD 
HETATM   24  H2  UNL     1      -6.680  11.800  62.897  1.00  0.00     0.000 HD 
ENDBRANCH  20  21
ENDBRANCH  19  20
ENDBRANCH  18  19
ENDBRANCH  14  18
ENDBRANCH  12  14
ENDBRANCH   2  10
TORSDOF 8
ENDMDL
MODEL      291
REMARK 921   NORMALIZED FREE ENERGY PREDICTED BY IDOCK:   -3.26 KCAL/MOL
REMARK 922        TOTAL FREE ENERGY PREDICTED BY IDOCK:   -5.57 KCAL/MOL
REMARK 923 INTER-LIGAND FREE ENERGY PREDICTED BY IDOCK:   -5.42 KCAL/MOL
REMARK 924 INTRA-LIGAND FREE ENERGY PREDICTED BY IDOCK:   -0.15 KCAL/MOL
REMARK 927      BINDING AFFINITY PREDICTED BY RF-SCORE:    0.00 PKD
ROOT
HETATM    1  C   UNL     1      -9.016   7.308  69.153  1.00  0.00    -0.135 C  
HETATM    2  C   UNL     1     -10.295   6.996  68.378  1.00  0.00    -0.193 C  
ENDROOT
BRANCH   2   3
HETATM    3  C   UNL     1     -11.398   6.404  69.288  1.00  0.00    -0.405 C  
BRANCH   3   4
HETATM    4  C   UNL     1     -11.080   6.416  70.769  1.00  0.00    -0.365 A  
HETATM    5  C   UNL     1     -11.358   7.549  71.548  1.00  0.00    -0.283 A  
HETATM    6  C   UNL     1     -10.524   6.433  73.525  1.00  0.00    -0.300 A  
HETATM    7  C   UNL     1     -11.080   7.557  72.918  1.00  0.00    -0.426 A  
HETATM    8  C   UNL     1     -10.253   5.297  72.765  1.00  0.00    -0.228 A  
HETATM    9  C   UNL     1     -10.534   5.287  71.396  1.00  0.00    -0.273 A  
ENDBRANCH   3   4
ENDBRANCH   2   3
BRANCH   2  10
HETATM   10  N   UNL     1     -10.750   8.218  67.719  1.00  0.00    -0.467 N  
HETATM   11  H   UNL     1     -11.220   8.134  66.818  1.00  0.00     0.000 HD 
HETATM   12  C   UNL     1     -10.577   9.479  68.248  1.00  0.00    -0.216 C  
HETATM   13  O   UNL     1     -10.104   9.696  69.359  1.00  0.00    -0.181 OA 
BRANCH  12  14
HETATM   14  C   UNL     1     -11.086  10.609  67.320  1.00  0.00    -0.243 C  
HETATM   15  N   UNL     1     -12.159  11.363  68.025  1.00  0.00    -0.615 NA 
HETATM   16  H2  UNL     1     -11.856  11.713  68.934  1.00  0.00     0.000 HD 
HETATM   17  H1  UNL     1     -12.494  12.107  67.414  1.00  0.00     0.000 HD 
BRANCH  14  18
HETATM   18  C   UNL     1      -9.964  11.586  66.941  1.00  0.00    -0.231 C  
BRANCH  18  19
HETATM   19  C   UNL     1      -9.095  11.071  65.788  1.00  0.00    -0.219 C  
BRANCH  19  20
HETATM   20  C   UNL     1      -7.810  10.413  66.303  1.00  0.00    -0.132 C  
BRANCH  20  21
HETATM   21  C   UNL     1      -7.733   8.948  65.871  1.00  0.00    -0.098 C  
HETATM   22  N   UNL     1      -8.968   8.552  65.204  1.00  0.00    -0.411 NA 
HETATM   23  H1  UNL     1      -8.917   7.574  64.916  1.00  0.00     0.000 HD 
HETATM   24  H2  UNL     1      -9.193   9.167  64.422  1.00  0.00     0.000 HD 
ENDBRANCH  20  21
ENDBRANCH  19  20
ENDBRANCH  18  19
ENDBRANCH  14  18
ENDBRANCH  12  14
ENDBRANCH   2  10
TORSDOF 8
ENDMDL
MODEL      292
REMARK 921   NORMALIZED FREE ENERGY PREDICTED BY IDOCK:   -3.25 KCAL/MOL
REMARK 922        TOTAL FREE ENERGY PREDICTED BY IDOCK:   -5.56 KCAL/MOL
REMARK 923 INTER-LIGAND FREE ENERGY PREDICTED BY IDOCK:   -5.16 KCAL/MOL
REMARK 924 INTRA-LIGAND FREE ENERGY PREDICTED BY IDOCK:   -0.40 KCAL/MOL
REMARK 927      BINDING AFFINITY PREDICTED BY RF-SCORE:    0.00 PKD
ROOT
HETATM    1  C   UNL     1      -9.834   6.255  66.990  1.00  0.00    -0.185 C  
HETATM    2  C   UNL     1     -10.546   7.580  67.258  1.00  0.00    -0.324 C  
ENDROOT
BRANCH   2   3
HETATM    3  C   UNL     1     -10.120   8.208  68.607  1.00  0.00    -0.211 C  
BRANCH   3   4
HETATM    4  C   UNL     1     -10.280   7.305  69.813  1.00  0.00    -0.214 A  
HETATM    5  C   UNL     1      -9.157   6.731  70.426  1.00  0.00    -0.153 A  
HETATM    6  C   UNL     1     -10.566   5.654  72.070  1.00  0.00    -0.283 A  
HETATM    7  C   UNL     1      -9.300   5.909  71.548  1.00  0.00    -0.160 A  
HETATM    8  C   UNL     1     -11.690   6.226  71.477  1.00  0.00    -0.329 A  
HETATM    9  C   UNL     1     -11.547   7.051  70.357  1.00  0.00    -0.341 A  
ENDBRANCH   3   4
ENDBRANCH   2   3
BRANCH   2  10
HETATM   10  N   UNL     1     -10.280   8.485  66.142  1.00  0.00    -0.393 N  
HETATM   11  H   UNL     1     -11.049   8.712  65.512  1.00  0.00     0.000 HD 
HETATM   12  C   UNL     1      -9.048   9.049  65.895  1.00  0.00    -0.212 C  
HETATM   13  O   UNL     1      -8.075   8.917  66.632  1.00  0.00    -0.105 OA 
BRANCH  12  14
HETATM   14  C   UNL     1      -9.015   9.915  64.613  1.00  0.00    -0.222 C  
HETATM   15  N   UNL     1      -8.898   9.017  63.431  1.00  0.00    -0.429 NA 
HETATM   16  H2  UNL     1      -9.633   8.310  63.404  1.00  0.00     0.000 HD 
HETATM   17  H1  UNL     1      -8.876   9.587  62.586  1.00  0.00     0.000 HD 
BRANCH  14  18
HETATM   18  C   UNL     1     -10.285  10.764  64.463  1.00  0.00    -0.428 C  
BRANCH  18  19
HETATM   19  C   UNL     1     -10.256  12.028  65.330  1.00  0.00    -0.304 C  
BRANCH  19  20
HETATM   20  C   UNL     1     -11.581  12.231  66.073  1.00  0.00    -0.451 C  
BRANCH  20  21
HETATM   21  C   UNL     1     -11.566  11.516  67.424  1.00  0.00    -0.228 C  
HETATM   22  N   UNL     1     -10.274  11.695  68.077  1.00  0.00    -0.185 NA 
HETATM   23  H1  UNL     1     -10.264  11.217  68.979  1.00  0.00     0.000 HD 
HETATM   24  H2  UNL     1     -10.026  12.680  68.166  1.00  0.00     0.000 HD 
ENDBRANCH  20  21
ENDBRANCH  19  20
ENDBRANCH  18  19
ENDBRANCH  14  18
ENDBRANCH  12  14
ENDBRANCH   2  10
TORSDOF 8
ENDMDL
MODEL      293
REMARK 921   NORMALIZED FREE ENERGY PREDICTED BY IDOCK:   -3.24 KCAL/MOL
REMARK 922        TOTAL FREE ENERGY PREDICTED BY IDOCK:   -5.55 KCAL/MOL
REMARK 923 INTER-LIGAND FREE ENERGY PREDICTED BY IDOCK:   -5.86 KCAL/MOL
REMARK 924 INTRA-LIGAND FREE ENERGY PREDICTED BY IDOCK:    0.30 KCAL/MOL
REMARK 927      BINDING AFFINITY PREDICTED BY RF-SCORE:    0.00 PKD
ROOT
HETATM    1  C   UNL     1     -10.660   8.988  71.726  1.00  0.00    -0.426 C  
HETATM    2  C   UNL     1     -11.929   8.341  71.173  1.00  0.00    -0.265 C  
ENDROOT
BRANCH   2   3
HETATM    3  C   UNL     1     -13.109   9.339  71.102  1.00  0.00    -0.251 C  
BRANCH   3   4
HETATM    4  C   UNL     1     -12.728  10.753  70.710  1.00  0.00    -0.451 A  
HETATM    5  C   UNL     1     -13.031  11.831  71.554  1.00  0.00    -0.446 A  
HETATM    6  C   UNL     1     -11.996  13.374  70.006  1.00  0.00    -0.407 A  
HETATM    7  C   UNL     1     -12.668  13.135  71.202  1.00  0.00    -0.386 A  
HETATM    8  C   UNL     1     -11.679  12.310  69.163  1.00  0.00    -0.377 A  
HETATM    9  C   UNL     1     -12.038  11.006  69.516  1.00  0.00    -0.400 A  
ENDBRANCH   3   4
ENDBRANCH   2   3
BRANCH   2  10
HETATM   10  N   UNL     1     -11.629   7.777  69.859  1.00  0.00    -0.457 N  
HETATM   11  H   UNL     1     -11.653   8.398  69.051  1.00  0.00     0.000 HD 
HETATM   12  C   UNL     1     -11.316   6.451  69.652  1.00  0.00    -0.412 C  
HETATM   13  O   UNL     1     -11.174   5.632  70.555  1.00  0.00    -0.216 OA 
BRANCH  12  14
HETATM   14  C   UNL     1     -11.110   6.095  68.160  1.00  0.00    -0.227 C  
HETATM   15  N   UNL     1     -11.357   7.311  67.338  1.00  0.00    -0.454 NA 
HETATM   16  H2  UNL     1     -10.785   8.103  67.632  1.00  0.00     0.000 HD 
HETATM   17  H1  UNL     1     -11.221   7.077  66.355  1.00  0.00     0.000 HD 
BRANCH  14  18
HETATM   18  C   UNL     1      -9.685   5.594  67.884  1.00  0.00    -0.145 C  
BRANCH  18  19
HETATM   19  C   UNL     1      -9.215   4.553  68.906  1.00  0.00    -0.190 C  
BRANCH  19  20
HETATM   20  C   UNL     1      -9.200   3.142  68.306  1.00  0.00    -0.247 C  
BRANCH  20  21
HETATM   21  C   UNL     1      -7.772   2.605  68.206  1.00  0.00    -0.055 C  
HETATM   22  N   UNL     1      -7.368   2.001  69.470  1.00  0.00    -0.043 NA 
HETATM   23  H1  UNL     1      -6.415   1.643  69.403  1.00  0.00     0.000 HD 
HETATM   24  H2  UNL     1      -8.024   1.282  69.775  1.00  0.00     0.000 HD 
ENDBRANCH  20  21
ENDBRANCH  19  20
ENDBRANCH  18  19
ENDBRANCH  14  18
ENDBRANCH  12  14
ENDBRANCH   2  10
TORSDOF 8
ENDMDL
MODEL      294
REMARK 921   NORMALIZED FREE ENERGY PREDICTED BY IDOCK:   -3.24 KCAL/MOL
REMARK 922        TOTAL FREE ENERGY PREDICTED BY IDOCK:   -5.54 KCAL/MOL
REMARK 923 INTER-LIGAND FREE ENERGY PREDICTED BY IDOCK:   -5.49 KCAL/MOL
REMARK 924 INTRA-LIGAND FREE ENERGY PREDICTED BY IDOCK:   -0.05 KCAL/MOL
REMARK 927      BINDING AFFINITY PREDICTED BY RF-SCORE:    0.00 PKD
ROOT
HETATM    1  C   UNL     1     -11.871  11.730  70.048  1.00  0.00    -0.422 C  
HETATM    2  C   UNL     1     -11.814  11.292  68.585  1.00  0.00    -0.300 C  
ENDROOT
BRANCH   2   3
HETATM    3  C   UNL     1     -10.897  12.208  67.739  1.00  0.00    -0.263 C  
BRANCH   3   4
HETATM    4  C   UNL     1     -11.104  12.112  66.241  1.00  0.00    -0.353 A  
HETATM    5  C   UNL     1     -10.337  11.224  65.472  1.00  0.00    -0.321 A  
HETATM    6  C   UNL     1     -11.504  11.904  63.466  1.00  0.00    -0.523 A  
HETATM    7  C   UNL     1     -10.536  11.122  64.092  1.00  0.00    -0.442 A  
HETATM    8  C   UNL     1     -12.280  12.783  64.220  1.00  0.00    -0.499 A  
HETATM    9  C   UNL     1     -12.084  12.882  65.600  1.00  0.00    -0.511 A  
ENDBRANCH   3   4
ENDBRANCH   2   3
BRANCH   2  10
HETATM   10  N   UNL     1     -11.371   9.901  68.532  1.00  0.00    -0.514 N  
HETATM   11  H   UNL     1     -11.964   9.224  68.053  1.00  0.00     0.000 HD 
HETATM   12  C   UNL     1     -10.196   9.453  69.096  1.00  0.00    -0.202 C  
HETATM   13  O   UNL     1      -9.365  10.189  69.622  1.00  0.00    -0.218 OA 
BRANCH  12  14
HETATM   14  C   UNL     1      -9.993   7.925  68.960  1.00  0.00    -0.187 C  
HETATM   15  N   UNL     1     -11.324   7.277  68.795  1.00  0.00    -0.362 NA 
HETATM   16  H2  UNL     1     -11.854   7.670  68.018  1.00  0.00     0.000 HD 
HETATM   17  H1  UNL     1     -11.191   6.270  68.707  1.00  0.00     0.000 HD 
BRANCH  14  18
HETATM   18  C   UNL     1      -9.118   7.569  67.750  1.00  0.00    -0.130 C  
BRANCH  18  19
HETATM   19  C   UNL     1      -7.667   8.036  67.911  1.00  0.00    -0.114 C  
BRANCH  19  20
HETATM   20  C   UNL     1      -6.804   6.968  68.591  1.00  0.00    -0.076 C  
BRANCH  20  21
HETATM   21  C   UNL     1      -5.715   7.609  69.452  1.00  0.00    -0.023 C  
HETATM   22  N   UNL     1      -6.182   7.767  70.824  1.00  0.00    -0.034 NA 
HETATM   23  H1  UNL     1      -5.456   8.196  71.399  1.00  0.00     0.000 HD 
HETATM   24  H2  UNL     1      -6.508   6.885  71.219  1.00  0.00     0.000 HD 
ENDBRANCH  20  21
ENDBRANCH  19  20
ENDBRANCH  18  19
ENDBRANCH  14  18
ENDBRANCH  12  14
ENDBRANCH   2  10
TORSDOF 8
ENDMDL
MODEL      295
REMARK 921   NORMALIZED FREE ENERGY PREDICTED BY IDOCK:   -3.23 KCAL/MOL
REMARK 922        TOTAL FREE ENERGY PREDICTED BY IDOCK:   -5.53 KCAL/MOL
REMARK 923 INTER-LIGAND FREE ENERGY PREDICTED BY IDOCK:   -5.06 KCAL/MOL
REMARK 924 INTRA-LIGAND FREE ENERGY PREDICTED BY IDOCK:   -0.48 KCAL/MOL
REMARK 927      BINDING AFFINITY PREDICTED BY RF-SCORE:    0.00 PKD
ROOT
HETATM    1  C   UNL     1      -8.076  10.181  65.396  1.00  0.00    -0.149 C  
HETATM    2  C   UNL     1      -9.102   9.864  66.483  1.00  0.00    -0.152 C  
ENDROOT
BRANCH   2   3
HETATM    3  C   UNL     1      -8.685   8.645  67.340  1.00  0.00    -0.136 C  
BRANCH   3   4
HETATM    4  C   UNL     1      -9.245   7.315  66.877  1.00  0.00    -0.180 A  
HETATM    5  C   UNL     1      -8.639   6.617  65.822  1.00  0.00    -0.147 A  
HETATM    6  C   UNL     1     -10.258   4.832  66.033  1.00  0.00    -0.308 A  
HETATM    7  C   UNL     1      -9.144   5.382  65.402  1.00  0.00    -0.097 A  
HETATM    8  C   UNL     1     -10.863   5.511  67.089  1.00  0.00    -0.166 A  
HETATM    9  C   UNL     1     -10.356   6.743  67.512  1.00  0.00    -0.267 A  
ENDBRANCH   3   4
ENDBRANCH   2   3
BRANCH   2  10
HETATM   10  N   UNL     1      -9.288  11.055  67.308  1.00  0.00    -0.156 N  
HETATM   11  H   UNL     1      -8.458  11.542  67.646  1.00  0.00     0.000 HD 
HETATM   12  C   UNL     1     -10.524  11.557  67.655  1.00  0.00    -0.189 C  
HETATM   13  O   UNL     1     -11.587  11.106  67.239  1.00  0.00    -0.514 OA 
BRANCH  12  14
HETATM   14  C   UNL     1     -10.446  12.786  68.592  1.00  0.00    -0.211 C  
HETATM   15  N   UNL     1      -9.097  13.403  68.465  1.00  0.00    -0.344 NA 
HETATM   16  H2  UNL     1      -8.865  13.635  67.499  1.00  0.00     0.000 HD 
HETATM   17  H1  UNL     1      -9.045  14.212  69.082  1.00  0.00     0.000 HD 
BRANCH  14  18
HETATM   18  C   UNL     1     -11.506  13.841  68.242  1.00  0.00    -0.348 C  
BRANCH  18  19
HETATM   19  C   UNL     1     -11.834  14.764  69.421  1.00  0.00    -0.360 C  
BRANCH  19  20
HETATM   20  C   UNL     1     -12.247  13.965  70.663  1.00  0.00    -0.443 C  
BRANCH  20  21
HETATM   21  C   UNL     1     -12.273  14.858  71.904  1.00  0.00    -0.352 C  
HETATM   22  N   UNL     1     -11.724  16.173  71.593  1.00  0.00    -0.537 NA 
HETATM   23  H1  UNL     1     -11.741  16.768  72.422  1.00  0.00     0.000 HD 
HETATM   24  H2  UNL     1     -12.201  16.607  70.803  1.00  0.00     0.000 HD 
ENDBRANCH  20  21
ENDBRANCH  19  20
ENDBRANCH  18  19
ENDBRANCH  14  18
ENDBRANCH  12  14
ENDBRANCH   2  10
TORSDOF 8
ENDMDL
MODEL      296
REMARK 921   NORMALIZED FREE ENERGY PREDICTED BY IDOCK:   -3.20 KCAL/MOL
REMARK 922        TOTAL FREE ENERGY PREDICTED BY IDOCK:   -5.49 KCAL/MOL
REMARK 923 INTER-LIGAND FREE ENERGY PREDICTED BY IDOCK:   -5.16 KCAL/MOL
REMARK 924 INTRA-LIGAND FREE ENERGY PREDICTED BY IDOCK:   -0.33 KCAL/MOL
REMARK 927      BINDING AFFINITY PREDICTED BY RF-SCORE:    0.00 PKD
ROOT
HETATM    1  C   UNL     1     -10.800  12.981  64.316  1.00  0.00    -0.430 C  
HETATM    2  C   UNL     1     -10.682  13.043  65.839  1.00  0.00    -0.276 C  
ENDROOT
BRANCH   2   3
HETATM    3  C   UNL     1     -11.954  13.626  66.498  1.00  0.00    -0.465 C  
BRANCH   3   4
HETATM    4  C   UNL     1     -11.724  14.335  67.818  1.00  0.00    -0.408 A  
HETATM    5  C   UNL     1     -11.180  15.627  67.846  1.00  0.00    -0.328 A  
HETATM    6  C   UNL     1     -11.325  15.668  70.260  1.00  0.00    -0.357 A  
HETATM    7  C   UNL     1     -10.981  16.289  69.062  1.00  0.00    -0.325 A  
HETATM    8  C   UNL     1     -11.876  14.389  70.245  1.00  0.00    -0.382 A  
HETATM    9  C   UNL     1     -12.079  13.728  69.031  1.00  0.00    -0.359 A  
ENDBRANCH   3   4
ENDBRANCH   2   3
BRANCH   2  10
HETATM   10  N   UNL     1     -10.392  11.701  66.338  1.00  0.00    -0.223 N  
HETATM   11  H   UNL     1     -10.868  10.911  65.902  1.00  0.00     0.000 HD 
HETATM   12  C   UNL     1      -9.510  11.444  67.365  1.00  0.00    -0.167 C  
HETATM   13  O   UNL     1      -8.820  12.303  67.905  1.00  0.00    -0.163 OA 
BRANCH  12  14
HETATM   14  C   UNL     1      -9.435   9.946  67.749  1.00  0.00    -0.140 C  
HETATM   15  N   UNL     1      -9.808   9.798  69.182  1.00  0.00    -0.178 NA 
HETATM   16  H2  UNL     1     -10.719  10.208  69.392  1.00  0.00     0.000 HD 
HETATM   17  H1  UNL     1      -9.758   8.812  69.435  1.00  0.00     0.000 HD 
BRANCH  14  18
HETATM   18  C   UNL     1     -10.386   9.090  66.900  1.00  0.00    -0.324 C  
BRANCH  18  19
HETATM   19  C   UNL     1      -9.947   7.624  66.818  1.00  0.00    -0.317 C  
BRANCH  19  20
HETATM   20  C   UNL     1      -8.719   7.354  67.695  1.00  0.00    -0.125 C  
BRANCH  20  21
HETATM   21  C   UNL     1      -7.483   7.079  66.837  1.00  0.00    -0.086 C  
HETATM   22  N   UNL     1      -7.766   7.365  65.435  1.00  0.00    -0.103 NA 
HETATM   23  H1  UNL     1      -6.942   7.181  64.863  1.00  0.00     0.000 HD 
HETATM   24  H2  UNL     1      -8.116   8.314  65.304  1.00  0.00     0.000 HD 
ENDBRANCH  20  21
ENDBRANCH  19  20
ENDBRANCH  18  19
ENDBRANCH  14  18
ENDBRANCH  12  14
ENDBRANCH   2  10
TORSDOF 8
ENDMDL
MODEL      297
REMARK 921   NORMALIZED FREE ENERGY PREDICTED BY IDOCK:   -3.16 KCAL/MOL
REMARK 922        TOTAL FREE ENERGY PREDICTED BY IDOCK:   -5.43 KCAL/MOL
REMARK 923 INTER-LIGAND FREE ENERGY PREDICTED BY IDOCK:   -5.10 KCAL/MOL
REMARK 924 INTRA-LIGAND FREE ENERGY PREDICTED BY IDOCK:   -0.33 KCAL/MOL
REMARK 927      BINDING AFFINITY PREDICTED BY RF-SCORE:    0.00 PKD
ROOT
HETATM    1  C   UNL     1     -11.620  14.114  69.587  1.00  0.00    -0.349 C  
HETATM    2  C   UNL     1     -11.307  13.405  68.270  1.00  0.00    -0.295 C  
ENDROOT
BRANCH   2   3
HETATM    3  C   UNL     1     -10.652  14.354  67.238  1.00  0.00    -0.279 C  
BRANCH   3   4
HETATM    4  C   UNL     1      -9.611  15.297  67.806  1.00  0.00    -0.206 A  
HETATM    5  C   UNL     1      -9.809  16.685  67.766  1.00  0.00    -0.252 A  
HETATM    6  C   UNL     1      -7.699  17.051  68.889  1.00  0.00    -0.231 A  
HETATM    7  C   UNL     1      -8.857  17.556  68.303  1.00  0.00    -0.274 A  
HETATM    8  C   UNL     1      -7.494  15.674  68.945  1.00  0.00    -0.162 A  
HETATM    9  C   UNL     1      -8.447  14.801  68.412  1.00  0.00    -0.157 A  
ENDBRANCH   3   4
ENDBRANCH   2   3
BRANCH   2  10
HETATM   10  N   UNL     1     -10.452  12.255  68.553  1.00  0.00    -0.232 N  
HETATM   11  H   UNL     1      -9.487  12.429  68.833  1.00  0.00     0.000 HD 
HETATM   12  C   UNL     1     -10.877  10.947  68.461  1.00  0.00    -0.220 C  
HETATM   13  O   UNL     1     -12.034  10.620  68.217  1.00  0.00    -0.462 OA 
BRANCH  12  14
HETATM   14  C   UNL     1      -9.758   9.917  68.745  1.00  0.00    -0.160 C  
HETATM   15  N   UNL     1      -8.756  10.534  69.657  1.00  0.00    -0.392 NA 
HETATM   16  H2  UNL     1      -9.179  10.895  70.513  1.00  0.00     0.000 HD 
HETATM   17  H1  UNL     1      -8.018   9.855  69.844  1.00  0.00     0.000 HD 
BRANCH  14  18
HETATM   18  C   UNL     1     -10.307   8.643  69.405  1.00  0.00    -0.221 C  
BRANCH  18  19
HETATM   19  C   UNL     1      -9.519   7.388  69.014  1.00  0.00    -0.148 C  
BRANCH  19  20
HETATM   20  C   UNL     1      -9.609   7.113  67.508  1.00  0.00    -0.159 C  
BRANCH  20  21
HETATM   21  C   UNL     1     -10.871   6.320  67.171  1.00  0.00    -0.381 C  
HETATM   22  N   UNL     1     -10.592   5.347  66.121  1.00  0.00    -0.524 NA 
HETATM   23  H1  UNL     1     -11.434   4.818  65.895  1.00  0.00     0.000 HD 
HETATM   24  H2  UNL     1      -9.813   4.736  66.366  1.00  0.00     0.000 HD 
ENDBRANCH  20  21
ENDBRANCH  19  20
ENDBRANCH  18  19
ENDBRANCH  14  18
ENDBRANCH  12  14
ENDBRANCH   2  10
TORSDOF 8
ENDMDL
MODEL      298
REMARK 921   NORMALIZED FREE ENERGY PREDICTED BY IDOCK:   -3.16 KCAL/MOL
REMARK 922        TOTAL FREE ENERGY PREDICTED BY IDOCK:   -5.42 KCAL/MOL
REMARK 923 INTER-LIGAND FREE ENERGY PREDICTED BY IDOCK:   -4.47 KCAL/MOL
REMARK 924 INTRA-LIGAND FREE ENERGY PREDICTED BY IDOCK:   -0.95 KCAL/MOL
REMARK 927      BINDING AFFINITY PREDICTED BY RF-SCORE:    0.00 PKD
ROOT
HETATM    1  C   UNL     1      -9.290   3.123  69.518  1.00  0.00    -0.228 C  
HETATM    2  C   UNL     1      -8.722   4.538  69.416  1.00  0.00    -0.086 C  
ENDROOT
BRANCH   2   3
HETATM    3  C   UNL     1      -8.009   4.784  68.064  1.00  0.00    -0.085 C  
BRANCH   3   4
HETATM    4  C   UNL     1      -8.737   4.245  66.850  1.00  0.00    -0.113 A  
HETATM    5  C   UNL     1      -9.902   4.871  66.382  1.00  0.00    -0.226 A  
HETATM    6  C   UNL     1     -10.074   3.271  64.577  1.00  0.00    -0.082 A  
HETATM    7  C   UNL     1     -10.567   4.385  65.252  1.00  0.00    -0.181 A  
HETATM    8  C   UNL     1      -8.912   2.646  65.025  1.00  0.00    -0.131 A  
HETATM    9  C   UNL     1      -8.244   3.134  66.151  1.00  0.00    -0.094 A  
ENDBRANCH   3   4
ENDBRANCH   2   3
BRANCH   2  10
HETATM   10  N   UNL     1      -9.808   5.492  69.626  1.00  0.00    -0.176 N  
HETATM   11  H   UNL     1     -10.765   5.173  69.475  1.00  0.00     0.000 HD 
HETATM   12  C   UNL     1      -9.611   6.799  70.016  1.00  0.00    -0.157 C  
HETATM   13  O   UNL     1      -8.515   7.268  70.307  1.00  0.00    -0.134 OA 
BRANCH  12  14
HETATM   14  C   UNL     1     -10.921   7.619  70.099  1.00  0.00    -0.246 C  
HETATM   15  N   UNL     1     -12.072   6.678  70.182  1.00  0.00    -0.595 NA 
HETATM   16  H2  UNL     1     -11.978   6.015  70.952  1.00  0.00     0.000 HD 
HETATM   17  H1  UNL     1     -12.935   7.218  70.237  1.00  0.00     0.000 HD 
BRANCH  14  18
HETATM   18  C   UNL     1     -10.944   8.536  71.330  1.00  0.00    -0.329 C  
BRANCH  18  19
HETATM   19  C   UNL     1     -11.579   7.868  72.554  1.00  0.00    -0.443 C  
BRANCH  19  20
HETATM   20  C   UNL     1     -10.516   7.297  73.499  1.00  0.00    -0.421 C  
BRANCH  20  21
HETATM   21  C   UNL     1     -10.493   5.769  73.439  1.00  0.00    -0.244 C  
HETATM   22  N   UNL     1     -11.778   5.262  72.972  1.00  0.00    -0.504 NA 
HETATM   23  H1  UNL     1     -11.763   4.242  72.933  1.00  0.00     0.000 HD 
HETATM   24  H2  UNL     1     -12.047   5.673  72.079  1.00  0.00     0.000 HD 
ENDBRANCH  20  21
ENDBRANCH  19  20
ENDBRANCH  18  19
ENDBRANCH  14  18
ENDBRANCH  12  14
ENDBRANCH   2  10
TORSDOF 8
ENDMDL
MODEL      299
REMARK 921   NORMALIZED FREE ENERGY PREDICTED BY IDOCK:   -3.14 KCAL/MOL
REMARK 922        TOTAL FREE ENERGY PREDICTED BY IDOCK:   -5.40 KCAL/MOL
REMARK 923 INTER-LIGAND FREE ENERGY PREDICTED BY IDOCK:   -4.94 KCAL/MOL
REMARK 924 INTRA-LIGAND FREE ENERGY PREDICTED BY IDOCK:   -0.47 KCAL/MOL
REMARK 927      BINDING AFFINITY PREDICTED BY RF-SCORE:    0.00 PKD
ROOT
HETATM    1  C   UNL     1     -11.885  11.301  68.144  1.00  0.00    -0.276 C  
HETATM    2  C   UNL     1     -10.638  12.001  68.684  1.00  0.00    -0.229 C  
ENDROOT
BRANCH   2   3
HETATM    3  C   UNL     1      -9.471  11.978  67.668  1.00  0.00    -0.185 C  
BRANCH   3   4
HETATM    4  C   UNL     1      -8.139  12.452  68.213  1.00  0.00    -0.166 A  
HETATM    5  C   UNL     1      -7.774  13.804  68.122  1.00  0.00    -0.140 A  
HETATM    6  C   UNL     1      -5.685  13.347  69.250  1.00  0.00    -0.082 A  
HETATM    7  C   UNL     1      -6.553  14.248  68.637  1.00  0.00    -0.090 A  
HETATM    8  C   UNL     1      -6.040  12.004  69.357  1.00  0.00    -0.098 A  
HETATM    9  C   UNL     1      -7.263  11.560  68.846  1.00  0.00    -0.117 A  
ENDBRANCH   3   4
ENDBRANCH   2   3
BRANCH   2  10
HETATM   10  N   UNL     1     -10.996  13.368  69.054  1.00  0.00    -0.347 N  
HETATM   11  H   UNL     1     -10.821  13.670  70.012  1.00  0.00     0.000 HD 
HETATM   12  C   UNL     1     -11.555  14.273  68.178  1.00  0.00    -0.332 C  
HETATM   13  O   UNL     1     -11.731  14.050  66.983  1.00  0.00    -0.355 OA 
BRANCH  12  14
HETATM   14  C   UNL     1     -11.903  15.629  68.836  1.00  0.00    -0.352 C  
HETATM   15  N   UNL     1     -12.763  15.380  70.025  1.00  0.00    -0.631 NA 
HETATM   16  H2  UNL     1     -12.338  14.726  70.683  1.00  0.00     0.000 HD 
HETATM   17  H1  UNL     1     -12.992  16.274  70.459  1.00  0.00     0.000 HD 
BRANCH  14  18
HETATM   18  C   UNL     1     -10.644  16.385  69.287  1.00  0.00    -0.311 C  
BRANCH  18  19
HETATM   19  C   UNL     1      -9.793  16.872  68.109  1.00  0.00    -0.264 C  
BRANCH  19  20
HETATM   20  C   UNL     1      -8.435  17.407  68.579  1.00  0.00    -0.274 C  
BRANCH  20  21
HETATM   21  C   UNL     1      -8.280  18.887  68.229  1.00  0.00    -0.329 C  
HETATM   22  N   UNL     1      -7.243  19.497  69.054  1.00  0.00    -0.359 NA 
HETATM   23  H1  UNL     1      -7.140  20.485  68.820  1.00  0.00     0.000 HD 
HETATM   24  H2  UNL     1      -6.358  18.995  68.984  1.00  0.00     0.000 HD 
ENDBRANCH  20  21
ENDBRANCH  19  20
ENDBRANCH  18  19
ENDBRANCH  14  18
ENDBRANCH  12  14
ENDBRANCH   2  10
TORSDOF 8
ENDMDL
MODEL      300
REMARK 921   NORMALIZED FREE ENERGY PREDICTED BY IDOCK:   -3.14 KCAL/MOL
REMARK 922        TOTAL FREE ENERGY PREDICTED BY IDOCK:   -5.40 KCAL/MOL
REMARK 923 INTER-LIGAND FREE ENERGY PREDICTED BY IDOCK:   -5.09 KCAL/MOL
REMARK 924 INTRA-LIGAND FREE ENERGY PREDICTED BY IDOCK:   -0.32 KCAL/MOL
REMARK 927      BINDING AFFINITY PREDICTED BY RF-SCORE:    0.00 PKD
ROOT
HETATM    1  C   UNL     1     -10.266  14.623  68.851  1.00  0.00    -0.241 C  
HETATM    2  C   UNL     1      -9.987  15.313  67.516  1.00  0.00    -0.226 C  
ENDROOT
BRANCH   2   3
HETATM    3  C   UNL     1      -8.490  15.247  67.128  1.00  0.00    -0.235 C  
BRANCH   3   4
HETATM    4  C   UNL     1      -7.527  15.212  68.298  1.00  0.00    -0.109 A  
HETATM    5  C   UNL     1      -6.923  14.007  68.686  1.00  0.00    -0.106 A  
HETATM    6  C   UNL     1      -5.713  15.144  70.444  1.00  0.00    -0.139 A  
HETATM    7  C   UNL     1      -6.022  13.974  69.754  1.00  0.00    -0.122 A  
HETATM    8  C   UNL     1      -6.297  16.350  70.061  1.00  0.00    -0.038 A  
HETATM    9  C   UNL     1      -7.195  16.384  68.991  1.00  0.00    -0.215 A  
ENDBRANCH   3   4
ENDBRANCH   2   3
BRANCH   2  10
HETATM   10  N   UNL     1     -10.830  14.701  66.492  1.00  0.00    -0.309 N  
HETATM   11  H   UNL     1     -11.512  15.290  66.014  1.00  0.00     0.000 HD 
HETATM   12  C   UNL     1     -10.753  13.372  66.135  1.00  0.00    -0.284 C  
HETATM   13  O   UNL     1      -9.916  12.592  66.578  1.00  0.00    -0.239 OA 
BRANCH  12  14
HETATM   14  C   UNL     1     -11.802  12.960  65.074  1.00  0.00    -0.372 C  
HETATM   15  N   UNL     1     -12.851  14.014  65.002  1.00  0.00    -0.732 NA 
HETATM   16  H2  UNL     1     -12.462  14.940  64.824  1.00  0.00     0.000 HD 
HETATM   17  H1  UNL     1     -13.542  13.742  64.303  1.00  0.00     0.000 HD 
BRANCH  14  18
HETATM   18  C   UNL     1     -11.173  12.794  63.683  1.00  0.00    -0.482 C  
BRANCH  18  19
HETATM   19  C   UNL     1     -10.616  11.385  63.451  1.00  0.00    -0.435 C  
BRANCH  19  20
HETATM   20  C   UNL     1      -9.213  11.430  62.834  1.00  0.00    -0.313 C  
BRANCH  20  21
HETATM   21  C   UNL     1      -8.274  10.449  63.537  1.00  0.00    -0.135 C  
HETATM   22  N   UNL     1      -8.020  10.884  64.905  1.00  0.00    -0.355 NA 
HETATM   23  H1  UNL     1      -7.393  10.230  65.374  1.00  0.00     0.000 HD 
HETATM   24  H2  UNL     1      -8.885  11.023  65.427  1.00  0.00     0.000 HD 
ENDBRANCH  20  21
ENDBRANCH  19  20
ENDBRANCH  18  19
ENDBRANCH  14  18
ENDBRANCH  12  14
ENDBRANCH   2  10
TORSDOF 8
ENDMDL
MODEL      301
REMARK 921   NORMALIZED FREE ENERGY PREDICTED BY IDOCK:   -3.14 KCAL/MOL
REMARK 922        TOTAL FREE ENERGY PREDICTED BY IDOCK:   -5.40 KCAL/MOL
REMARK 923 INTER-LIGAND FREE ENERGY PREDICTED BY IDOCK:   -4.70 KCAL/MOL
REMARK 924 INTRA-LIGAND FREE ENERGY PREDICTED BY IDOCK:   -0.70 KCAL/MOL
REMARK 927      BINDING AFFINITY PREDICTED BY RF-SCORE:    0.00 PKD
ROOT
HETATM    1  C   UNL     1     -12.086  11.764  69.208  1.00  0.00    -0.292 C  
HETATM    2  C   UNL     1     -11.421  10.457  69.637  1.00  0.00    -0.262 C  
ENDROOT
BRANCH   2   3
HETATM    3  C   UNL     1     -12.312   9.639  70.602  1.00  0.00    -0.201 C  
BRANCH   3   4
HETATM    4  C   UNL     1     -11.605   8.511  71.327  1.00  0.00    -0.332 A  
HETATM    5  C   UNL     1     -10.472   8.770  72.112  1.00  0.00    -0.384 A  
HETATM    6  C   UNL     1     -10.308   6.430  72.701  1.00  0.00    -0.216 A  
HETATM    7  C   UNL     1      -9.826   7.734  72.793  1.00  0.00    -0.307 A  
HETATM    8  C   UNL     1     -11.439   6.161  71.933  1.00  0.00    -0.355 A  
HETATM    9  C   UNL     1     -12.088   7.197  71.254  1.00  0.00    -0.386 A  
ENDBRANCH   3   4
ENDBRANCH   2   3
BRANCH   2  10
HETATM   10  N   UNL     1     -11.089   9.688  68.440  1.00  0.00    -0.481 N  
HETATM   11  H   UNL     1     -11.836   9.482  67.777  1.00  0.00     0.000 HD 
HETATM   12  C   UNL     1      -9.822   9.225  68.157  1.00  0.00    -0.162 C  
HETATM   13  O   UNL     1      -8.833   9.484  68.836  1.00  0.00    -0.131 OA 
BRANCH  12  14
HETATM   14  C   UNL     1      -9.752   8.380  66.863  1.00  0.00    -0.227 C  
HETATM   15  N   UNL     1      -9.877   9.286  65.689  1.00  0.00    -0.441 NA 
HETATM   16  H2  UNL     1      -9.185  10.036  65.701  1.00  0.00     0.000 HD 
HETATM   17  H1  UNL     1      -9.831   8.729  64.836  1.00  0.00     0.000 HD 
BRANCH  14  18
HETATM   18  C   UNL     1      -8.428   7.610  66.754  1.00  0.00    -0.127 C  
BRANCH  18  19
HETATM   19  C   UNL     1      -8.630   6.092  66.693  1.00  0.00    -0.113 C  
BRANCH  19  20
HETATM   20  C   UNL     1      -7.365   5.338  67.121  1.00  0.00    -0.083 C  
BRANCH  20  21
HETATM   21  C   UNL     1      -7.702   4.218  68.105  1.00  0.00    -0.075 C  
HETATM   22  N   UNL     1      -8.961   3.581  67.735  1.00  0.00    -0.126 NA 
HETATM   23  H1  UNL     1      -9.186   2.833  68.392  1.00  0.00     0.000 HD 
HETATM   24  H2  UNL     1      -8.950   3.249  66.771  1.00  0.00     0.000 HD 
ENDBRANCH  20  21
ENDBRANCH  19  20
ENDBRANCH  18  19
ENDBRANCH  14  18
ENDBRANCH  12  14
ENDBRANCH   2  10
TORSDOF 8
ENDMDL
MODEL      302
REMARK 921   NORMALIZED FREE ENERGY PREDICTED BY IDOCK:   -3.11 KCAL/MOL
REMARK 922        TOTAL FREE ENERGY PREDICTED BY IDOCK:   -5.36 KCAL/MOL
REMARK 923 INTER-LIGAND FREE ENERGY PREDICTED BY IDOCK:   -4.98 KCAL/MOL
REMARK 924 INTRA-LIGAND FREE ENERGY PREDICTED BY IDOCK:   -0.37 KCAL/MOL
REMARK 927      BINDING AFFINITY PREDICTED BY RF-SCORE:    0.00 PKD
ROOT
HETATM    1  C   UNL     1     -10.505   7.247  68.213  1.00  0.00    -0.239 C  
HETATM    2  C   UNL     1      -9.536   8.402  68.459  1.00  0.00    -0.146 C  
ENDROOT
BRANCH   2   3
HETATM    3  C   UNL     1      -8.074   8.017  68.127  1.00  0.00    -0.129 C  
BRANCH   3   4
HETATM    4  C   UNL     1      -7.646   8.302  66.702  1.00  0.00    -0.090 A  
HETATM    5  C   UNL     1      -7.015   9.512  66.376  1.00  0.00    -0.088 A  
HETATM    6  C   UNL     1      -6.817   8.823  64.067  1.00  0.00    -0.083 A  
HETATM    7  C   UNL     1      -6.604   9.770  65.065  1.00  0.00    -0.099 A  
HETATM    8  C   UNL     1      -7.433   7.612  64.379  1.00  0.00    -0.099 A  
HETATM    9  C   UNL     1      -7.840   7.351  65.690  1.00  0.00    -0.111 A  
ENDBRANCH   3   4
ENDBRANCH   2   3
BRANCH   2  10
HETATM   10  N   UNL     1      -9.975   9.553  67.674  1.00  0.00    -0.169 N  
HETATM   11  H   UNL     1     -10.067   9.441  66.664  1.00  0.00     0.000 HD 
HETATM   12  C   UNL     1     -10.270  10.782  68.221  1.00  0.00    -0.167 C  
HETATM   13  O   UNL     1     -10.278  11.010  69.428  1.00  0.00    -0.178 OA 
BRANCH  12  14
HETATM   14  C   UNL     1     -10.644  11.851  67.166  1.00  0.00    -0.231 C  
HETATM   15  N   UNL     1     -12.011  12.361  67.462  1.00  0.00    -0.506 NA 
HETATM   16  H2  UNL     1     -12.098  12.710  68.417  1.00  0.00     0.000 HD 
HETATM   17  H1  UNL     1     -12.257  13.065  66.767  1.00  0.00     0.000 HD 
BRANCH  14  18
HETATM   18  C   UNL     1      -9.663  13.032  67.176  1.00  0.00    -0.230 C  
BRANCH  18  19
HETATM   19  C   UNL     1     -10.358  14.379  66.947  1.00  0.00    -0.265 C  
BRANCH  19  20
HETATM   20  C   UNL     1     -10.614  14.634  65.457  1.00  0.00    -0.369 C  
BRANCH  20  21
HETATM   21  C   UNL     1     -11.043  16.081  65.215  1.00  0.00    -0.213 C  
HETATM   22  N   UNL     1     -11.612  16.224  63.880  1.00  0.00    -1.573 NA 
HETATM   23  H1  UNL     1     -11.898  17.190  63.718  1.00  0.00     0.000 HD 
HETATM   24  H2  UNL     1     -12.377  15.569  63.720  1.00  0.00     0.000 HD 
ENDBRANCH  20  21
ENDBRANCH  19  20
ENDBRANCH  18  19
ENDBRANCH  14  18
ENDBRANCH  12  14
ENDBRANCH   2  10
TORSDOF 8
ENDMDL
MODEL      303
REMARK 921   NORMALIZED FREE ENERGY PREDICTED BY IDOCK:   -3.11 KCAL/MOL
REMARK 922        TOTAL FREE ENERGY PREDICTED BY IDOCK:   -5.36 KCAL/MOL
REMARK 923 INTER-LIGAND FREE ENERGY PREDICTED BY IDOCK:   -4.94 KCAL/MOL
REMARK 924 INTRA-LIGAND FREE ENERGY PREDICTED BY IDOCK:   -0.42 KCAL/MOL
REMARK 927      BINDING AFFINITY PREDICTED BY RF-SCORE:    0.00 PKD
ROOT
HETATM    1  C   UNL     1      -8.161   7.072  71.291  1.00  0.00    -0.113 C  
HETATM    2  C   UNL     1      -9.654   7.065  70.964  1.00  0.00    -0.170 C  
ENDROOT
BRANCH   2   3
HETATM    3  C   UNL     1     -10.529   7.200  72.233  1.00  0.00    -0.236 C  
BRANCH   3   4
HETATM    4  C   UNL     1     -11.889   7.832  72.008  1.00  0.00    -0.351 A  
HETATM    5  C   UNL     1     -12.062   9.217  72.151  1.00  0.00    -0.389 A  
HETATM    6  C   UNL     1     -14.399   9.015  71.561  1.00  0.00    -0.197 A  
HETATM    7  C   UNL     1     -13.311   9.804  71.929  1.00  0.00    -0.530 A  
HETATM    8  C   UNL     1     -14.237   7.640  71.406  1.00  0.00    -0.514 A  
HETATM    9  C   UNL     1     -12.988   7.053  71.623  1.00  0.00    -0.400 A  
ENDBRANCH   3   4
ENDBRANCH   2   3
BRANCH   2  10
HETATM   10  N   UNL     1      -9.927   8.139  70.012  1.00  0.00    -0.189 N  
HETATM   11  H   UNL     1      -9.828   9.102  70.331  1.00  0.00     0.000 HD 
HETATM   12  C   UNL     1     -10.312   7.921  68.707  1.00  0.00    -0.203 C  
HETATM   13  O   UNL     1     -10.380   6.810  68.190  1.00  0.00    -0.164 OA 
BRANCH  12  14
HETATM   14  C   UNL     1     -10.606   9.226  67.928  1.00  0.00    -0.231 C  
HETATM   15  N   UNL     1     -11.312  10.176  68.832  1.00  0.00    -0.443 NA 
HETATM   16  H2  UNL     1     -10.797  10.346  69.696  1.00  0.00     0.000 HD 
HETATM   17  H1  UNL     1     -11.506  11.035  68.319  1.00  0.00     0.000 HD 
BRANCH  14  18
HETATM   18  C   UNL     1      -9.319   9.892  67.421  1.00  0.00    -0.158 C  
BRANCH  18  19
HETATM   19  C   UNL     1      -8.315   8.883  66.853  1.00  0.00    -0.112 C  
BRANCH  19  20
HETATM   20  C   UNL     1      -8.511   8.681  65.346  1.00  0.00    -0.189 C  
BRANCH  20  21
HETATM   21  C   UNL     1      -7.516   7.658  64.796  1.00  0.00    -0.094 C  
HETATM   22  N   UNL     1      -7.959   7.168  63.496  1.00  0.00    -0.255 NA 
HETATM   23  H1  UNL     1      -7.296   6.485  63.130  1.00  0.00     0.000 HD 
HETATM   24  H2  UNL     1      -8.123   7.930  62.839  1.00  0.00     0.000 HD 
ENDBRANCH  20  21
ENDBRANCH  19  20
ENDBRANCH  18  19
ENDBRANCH  14  18
ENDBRANCH  12  14
ENDBRANCH   2  10
TORSDOF 8
ENDMDL
MODEL      304
REMARK 921   NORMALIZED FREE ENERGY PREDICTED BY IDOCK:   -3.09 KCAL/MOL
REMARK 922        TOTAL FREE ENERGY PREDICTED BY IDOCK:   -5.33 KCAL/MOL
REMARK 923 INTER-LIGAND FREE ENERGY PREDICTED BY IDOCK:   -5.46 KCAL/MOL
REMARK 924 INTRA-LIGAND FREE ENERGY PREDICTED BY IDOCK:    0.13 KCAL/MOL
REMARK 927      BINDING AFFINITY PREDICTED BY RF-SCORE:    0.00 PKD
ROOT
HETATM    1  C   UNL     1     -11.407  13.827  64.851  1.00  0.00    -0.353 C  
HETATM    2  C   UNL     1     -10.397  14.694  65.603  1.00  0.00    -0.351 C  
ENDROOT
BRANCH   2   3
HETATM    3  C   UNL     1     -11.052  15.473  66.769  1.00  0.00    -0.206 C  
BRANCH   3   4
HETATM    4  C   UNL     1     -10.444  16.832  67.051  1.00  0.00    -0.285 A  
HETATM    5  C   UNL     1     -10.361  17.799  66.038  1.00  0.00    -0.304 A  
HETATM    6  C   UNL     1      -9.350  19.368  67.575  1.00  0.00    -0.386 A  
HETATM    7  C   UNL     1      -9.815  19.059  66.299  1.00  0.00    -0.417 A  
HETATM    8  C   UNL     1      -9.437  18.420  68.594  1.00  0.00    -0.356 A  
HETATM    9  C   UNL     1      -9.986  17.162  68.334  1.00  0.00    -0.310 A  
ENDBRANCH   3   4
ENDBRANCH   2   3
BRANCH   2  10
HETATM   10  N   UNL     1      -9.312  13.838  66.077  1.00  0.00    -0.503 N  
HETATM   11  H   UNL     1      -8.440  13.828  65.549  1.00  0.00     0.000 HD 
HETATM   12  C   UNL     1      -9.403  13.044  67.200  1.00  0.00    -0.230 C  
HETATM   13  O   UNL     1     -10.368  13.039  67.958  1.00  0.00    -0.221 OA 
BRANCH  12  14
HETATM   14  C   UNL     1      -8.141  12.183  67.446  1.00  0.00    -0.171 C  
HETATM   15  N   UNL     1      -7.921  12.062  68.913  1.00  0.00    -0.343 NA 
HETATM   16  H2  UNL     1      -8.740  11.699  69.401  1.00  0.00     0.000 HD 
HETATM   17  H1  UNL     1      -7.089  11.495  69.076  1.00  0.00     0.000 HD 
BRANCH  14  18
HETATM   18  C   UNL     1      -8.283  10.775  66.850  1.00  0.00    -0.130 C  
BRANCH  18  19
HETATM   19  C   UNL     1      -8.700  10.796  65.376  1.00  0.00    -0.190 C  
BRANCH  19  20
HETATM   20  C   UNL     1      -8.970   9.383  64.847  1.00  0.00    -0.256 C  
BRANCH  20  21
HETATM   21  C   UNL     1      -8.289   9.165  63.495  1.00  0.00    -0.188 C  
HETATM   22  N   UNL     1      -7.553  10.360  63.100  1.00  0.00    -0.256 NA 
HETATM   23  H1  UNL     1      -7.099  10.215  62.198  1.00  0.00     0.000 HD 
HETATM   24  H2  UNL     1      -6.889  10.652  63.817  1.00  0.00     0.000 HD 
ENDBRANCH  20  21
ENDBRANCH  19  20
ENDBRANCH  18  19
ENDBRANCH  14  18
ENDBRANCH  12  14
ENDBRANCH   2  10
TORSDOF 8
ENDMDL
MODEL      305
REMARK 921   NORMALIZED FREE ENERGY PREDICTED BY IDOCK:   -3.08 KCAL/MOL
REMARK 922        TOTAL FREE ENERGY PREDICTED BY IDOCK:   -5.31 KCAL/MOL
REMARK 923 INTER-LIGAND FREE ENERGY PREDICTED BY IDOCK:   -5.90 KCAL/MOL
REMARK 924 INTRA-LIGAND FREE ENERGY PREDICTED BY IDOCK:    0.58 KCAL/MOL
REMARK 927      BINDING AFFINITY PREDICTED BY RF-SCORE:    0.00 PKD
ROOT
HETATM    1  C   UNL     1     -10.389  16.744  69.320  1.00  0.00    -0.309 C  
HETATM    2  C   UNL     1     -10.088  16.662  67.824  1.00  0.00    -0.275 C  
ENDROOT
BRANCH   2   3
HETATM    3  C   UNL     1      -8.571  16.739  67.529  1.00  0.00    -0.203 C  
BRANCH   3   4
HETATM    4  C   UNL     1      -8.003  18.142  67.456  1.00  0.00    -0.227 A  
HETATM    5  C   UNL     1      -7.554  18.789  68.617  1.00  0.00    -0.357 A  
HETATM    6  C   UNL     1      -6.917  20.731  67.325  1.00  0.00    -0.414 A  
HETATM    7  C   UNL     1      -7.015  20.077  68.551  1.00  0.00    -0.324 A  
HETATM    8  C   UNL     1      -7.349  20.095  66.163  1.00  0.00    -0.312 A  
HETATM    9  C   UNL     1      -7.884  18.806  66.227  1.00  0.00    -0.295 A  
ENDBRANCH   3   4
ENDBRANCH   2   3
BRANCH   2  10
HETATM   10  N   UNL     1     -10.671  15.430  67.299  1.00  0.00    -0.302 N  
HETATM   11  H   UNL     1     -10.257  15.020  66.461  1.00  0.00     0.000 HD 
HETATM   12  C   UNL     1     -11.748  14.791  67.872  1.00  0.00    -0.341 C  
HETATM   13  O   UNL     1     -12.271  15.143  68.925  1.00  0.00    -0.223 OA 
BRANCH  12  14
HETATM   14  C   UNL     1     -12.214  13.544  67.083  1.00  0.00    -0.281 C  
HETATM   15  N   UNL     1     -12.289  13.891  65.637  1.00  0.00    -0.452 NA 
HETATM   16  H2  UNL     1     -11.412  14.271  65.282  1.00  0.00     0.000 HD 
HETATM   17  H1  UNL     1     -12.596  13.070  65.117  1.00  0.00     0.000 HD 
BRANCH  14  18
HETATM   18  C   UNL     1     -11.248  12.363  67.257  1.00  0.00    -0.357 C  
BRANCH  18  19
HETATM   19  C   UNL     1     -11.831  11.245  68.128  1.00  0.00    -0.276 C  
BRANCH  19  20
HETATM   20  C   UNL     1     -10.877  10.862  69.265  1.00  0.00    -0.286 C  
BRANCH  20  21
HETATM   21  C   UNL     1     -11.648  10.569  70.552  1.00  0.00    -0.350 C  
HETATM   22  N   UNL     1     -11.226   9.292  71.116  1.00  0.00    -0.312 NA 
HETATM   23  H1  UNL     1     -11.741   9.097  71.975  1.00  0.00     0.000 HD 
HETATM   24  H2  UNL     1     -10.217   9.256  71.261  1.00  0.00     0.000 HD 
ENDBRANCH  20  21
ENDBRANCH  19  20
ENDBRANCH  18  19
ENDBRANCH  14  18
ENDBRANCH  12  14
ENDBRANCH   2  10
TORSDOF 8
ENDMDL
MODEL      306
REMARK 921   NORMALIZED FREE ENERGY PREDICTED BY IDOCK:   -3.08 KCAL/MOL
REMARK 922        TOTAL FREE ENERGY PREDICTED BY IDOCK:   -5.30 KCAL/MOL
REMARK 923 INTER-LIGAND FREE ENERGY PREDICTED BY IDOCK:   -4.49 KCAL/MOL
REMARK 924 INTRA-LIGAND FREE ENERGY PREDICTED BY IDOCK:   -0.81 KCAL/MOL
REMARK 927      BINDING AFFINITY PREDICTED BY RF-SCORE:    0.00 PKD
ROOT
HETATM    1  C   UNL     1      -9.851   8.267  71.749  1.00  0.00    -0.284 C  
HETATM    2  C   UNL     1     -10.798   8.631  70.606  1.00  0.00    -0.229 C  
ENDROOT
BRANCH   2   3
HETATM    3  C   UNL     1     -10.878  10.160  70.380  1.00  0.00    -0.365 C  
BRANCH   3   4
HETATM    4  C   UNL     1     -10.451  10.626  69.003  1.00  0.00    -0.237 A  
HETATM    5  C   UNL     1     -11.406  10.857  68.002  1.00  0.00    -0.382 A  
HETATM    6  C   UNL     1      -9.671  11.525  66.456  1.00  0.00    -0.226 A  
HETATM    7  C   UNL     1     -11.017  11.303  66.735  1.00  0.00    -0.339 A  
HETATM    8  C   UNL     1      -8.712  11.309  67.445  1.00  0.00    -0.139 A  
HETATM    9  C   UNL     1      -9.101  10.868  68.712  1.00  0.00    -0.174 A  
ENDBRANCH   3   4
ENDBRANCH   2   3
BRANCH   2  10
HETATM   10  N   UNL     1     -10.357   7.937  69.398  1.00  0.00    -0.217 N  
HETATM   11  H   UNL     1      -9.656   8.388  68.812  1.00  0.00     0.000 HD 
HETATM   12  C   UNL     1     -10.837   6.706  69.008  1.00  0.00    -0.277 C  
HETATM   13  O   UNL     1     -11.617   6.032  69.676  1.00  0.00    -0.321 OA 
BRANCH  12  14
HETATM   14  C   UNL     1     -10.260   6.222  67.656  1.00  0.00    -0.169 C  
HETATM   15  N   UNL     1     -11.365   6.144  66.662  1.00  0.00    -0.706 NA 
HETATM   16  H2  UNL     1     -11.874   7.024  66.575  1.00  0.00     0.000 HD 
HETATM   17  H1  UNL     1     -10.985   5.825  65.771  1.00  0.00     0.000 HD 
BRANCH  14  18
HETATM   18  C   UNL     1      -9.182   7.175  67.121  1.00  0.00    -0.153 C  
BRANCH  18  19
HETATM   19  C   UNL     1      -7.806   6.508  67.007  1.00  0.00    -0.108 C  
BRANCH  19  20
HETATM   20  C   UNL     1      -7.843   5.056  67.496  1.00  0.00    -0.095 C  
BRANCH  20  21
HETATM   21  C   UNL     1      -6.496   4.368  67.270  1.00  0.00    -0.042 C  
HETATM   22  N   UNL     1      -6.053   4.563  65.894  1.00  0.00    -0.026 NA 
HETATM   23  H1  UNL     1      -5.155   4.103  65.743  1.00  0.00     0.000 HD 
HETATM   24  H2  UNL     1      -6.023   5.550  65.641  1.00  0.00     0.000 HD 
ENDBRANCH  20  21
ENDBRANCH  19  20
ENDBRANCH  18  19
ENDBRANCH  14  18
ENDBRANCH  12  14
ENDBRANCH   2  10
TORSDOF 8
ENDMDL
MODEL      307
REMARK 921   NORMALIZED FREE ENERGY PREDICTED BY IDOCK:   -3.08 KCAL/MOL
REMARK 922        TOTAL FREE ENERGY PREDICTED BY IDOCK:   -5.30 KCAL/MOL
REMARK 923 INTER-LIGAND FREE ENERGY PREDICTED BY IDOCK:   -5.11 KCAL/MOL
REMARK 924 INTRA-LIGAND FREE ENERGY PREDICTED BY IDOCK:   -0.19 KCAL/MOL
REMARK 927      BINDING AFFINITY PREDICTED BY RF-SCORE:    0.00 PKD
ROOT
HETATM    1  C   UNL     1     -13.080  12.115  71.727  1.00  0.00    -0.457 C  
HETATM    2  C   UNL     1     -12.403  11.819  70.390  1.00  0.00    -0.277 C  
ENDROOT
BRANCH   2   3
HETATM    3  C   UNL     1     -12.010  13.113  69.637  1.00  0.00    -0.370 C  
BRANCH   3   4
HETATM    4  C   UNL     1     -11.254  12.896  68.342  1.00  0.00    -0.305 A  
HETATM    5  C   UNL     1      -9.873  13.135  68.276  1.00  0.00    -0.227 A  
HETATM    6  C   UNL     1      -9.838  12.464  65.953  1.00  0.00    -0.265 A  
HETATM    7  C   UNL     1      -9.170  12.921  67.086  1.00  0.00    -0.225 A  
HETATM    8  C   UNL     1     -11.207  12.213  66.008  1.00  0.00    -0.382 A  
HETATM    9  C   UNL     1     -11.910  12.423  67.198  1.00  0.00    -0.361 A  
ENDBRANCH   3   4
ENDBRANCH   2   3
BRANCH   2  10
HETATM   10  N   UNL     1     -11.238  10.973  70.635  1.00  0.00    -0.319 N  
HETATM   11  H   UNL     1     -10.332  11.287  70.289  1.00  0.00     0.000 HD 
HETATM   12  C   UNL     1     -11.296   9.772  71.309  1.00  0.00    -0.375 C  
HETATM   13  O   UNL     1     -12.312   9.335  71.842  1.00  0.00    -0.351 OA 
BRANCH  12  14
HETATM   14  C   UNL     1      -9.936   9.038  71.374  1.00  0.00    -0.318 C  
HETATM   15  N   UNL     1     -10.064   7.867  72.284  1.00  0.00    -0.217 NA 
HETATM   16  H2  UNL     1     -10.829   7.246  72.015  1.00  0.00     0.000 HD 
HETATM   17  H1  UNL     1      -9.168   7.383  72.327  1.00  0.00     0.000 HD 
BRANCH  14  18
HETATM   18  C   UNL     1      -9.487   8.541  69.992  1.00  0.00    -0.165 C  
BRANCH  18  19
HETATM   19  C   UNL     1      -9.920   7.097  69.713  1.00  0.00    -0.180 C  
BRANCH  19  20
HETATM   20  C   UNL     1      -9.155   6.499  68.527  1.00  0.00    -0.127 C  
BRANCH  20  21
HETATM   21  C   UNL     1      -8.083   7.465  68.024  1.00  0.00    -0.124 C  
HETATM   22  N   UNL     1      -6.756   6.889  68.203  1.00  0.00    -0.065 NA 
HETATM   23  H1  UNL     1      -6.040   7.534  67.867  1.00  0.00     0.000 HD 
HETATM   24  H2  UNL     1      -6.677   5.972  67.764  1.00  0.00     0.000 HD 
ENDBRANCH  20  21
ENDBRANCH  19  20
ENDBRANCH  18  19
ENDBRANCH  14  18
ENDBRANCH  12  14
ENDBRANCH   2  10
TORSDOF 8
ENDMDL
MODEL      308
REMARK 921   NORMALIZED FREE ENERGY PREDICTED BY IDOCK:   -3.04 KCAL/MOL
REMARK 922        TOTAL FREE ENERGY PREDICTED BY IDOCK:   -5.25 KCAL/MOL
REMARK 923 INTER-LIGAND FREE ENERGY PREDICTED BY IDOCK:   -5.25 KCAL/MOL
REMARK 924 INTRA-LIGAND FREE ENERGY PREDICTED BY IDOCK:   -0.00 KCAL/MOL
REMARK 927      BINDING AFFINITY PREDICTED BY RF-SCORE:    0.00 PKD
ROOT
HETATM    1  C   UNL     1     -11.957  13.243  68.829  1.00  0.00    -0.335 C  
HETATM    2  C   UNL     1     -11.116  12.086  69.368  1.00  0.00    -0.133 C  
ENDROOT
BRANCH   2   3
HETATM    3  C   UNL     1     -11.911  10.759  69.410  1.00  0.00    -0.370 C  
BRANCH   3   4
HETATM    4  C   UNL     1     -11.575   9.848  70.573  1.00  0.00    -0.386 A  
HETATM    5  C   UNL     1     -10.242   9.505  70.847  1.00  0.00    -0.356 A  
HETATM    6  C   UNL     1     -10.940   8.187  72.750  1.00  0.00    -0.401 A  
HETATM    7  C   UNL     1      -9.928   8.677  71.929  1.00  0.00    -0.392 A  
HETATM    8  C   UNL     1     -12.267   8.529  72.496  1.00  0.00    -0.383 A  
HETATM    9  C   UNL     1     -12.582   9.360  71.417  1.00  0.00    -0.430 A  
ENDBRANCH   3   4
ENDBRANCH   2   3
BRANCH   2  10
HETATM   10  N   UNL     1      -9.915  11.962  68.546  1.00  0.00    -0.249 N  
HETATM   11  H   UNL     1      -9.062  12.420  68.866  1.00  0.00     0.000 HD 
HETATM   12  C   UNL     1      -9.871  11.259  67.362  1.00  0.00    -0.181 C  
HETATM   13  O   UNL     1     -10.808  10.599  66.923  1.00  0.00    -0.255 OA 
BRANCH  12  14
HETATM   14  C   UNL     1      -8.499  11.339  66.651  1.00  0.00    -0.168 C  
HETATM   15  N   UNL     1      -8.722  11.390  65.180  1.00  0.00    -0.387 NA 
HETATM   16  H2  UNL     1      -9.347  12.149  64.907  1.00  0.00     0.000 HD 
HETATM   17  H1  UNL     1      -7.818  11.443  64.711  1.00  0.00     0.000 HD 
BRANCH  14  18
HETATM   18  C   UNL     1      -7.708  12.586  67.073  1.00  0.00    -0.044 C  
BRANCH  18  19
HETATM   19  C   UNL     1      -6.266  12.262  67.480  1.00  0.00    -0.140 C  
BRANCH  19  20
HETATM   20  C   UNL     1      -6.196  11.706  68.907  1.00  0.00    -0.057 C  
BRANCH  20  21
HETATM   21  C   UNL     1      -5.690  12.768  69.884  1.00  0.00    -0.125 C  
HETATM   22  N   UNL     1      -6.018  12.393  71.254  1.00  0.00    -0.456 NA 
HETATM   23  H1  UNL     1      -5.681  13.101  71.906  1.00  0.00     0.000 HD 
HETATM   24  H2  UNL     1      -5.668  11.464  71.488  1.00  0.00     0.000 HD 
ENDBRANCH  20  21
ENDBRANCH  19  20
ENDBRANCH  18  19
ENDBRANCH  14  18
ENDBRANCH  12  14
ENDBRANCH   2  10
TORSDOF 8
ENDMDL
MODEL      309
REMARK 921   NORMALIZED FREE ENERGY PREDICTED BY IDOCK:   -3.04 KCAL/MOL
REMARK 922        TOTAL FREE ENERGY PREDICTED BY IDOCK:   -5.25 KCAL/MOL
REMARK 923 INTER-LIGAND FREE ENERGY PREDICTED BY IDOCK:   -4.68 KCAL/MOL
REMARK 924 INTRA-LIGAND FREE ENERGY PREDICTED BY IDOCK:   -0.57 KCAL/MOL
REMARK 927      BINDING AFFINITY PREDICTED BY RF-SCORE:    0.00 PKD
ROOT
HETATM    1  C   UNL     1     -10.751  15.689  66.762  1.00  0.00    -0.300 C  
HETATM    2  C   UNL     1     -10.220  16.158  68.116  1.00  0.00    -0.247 C  
ENDROOT
BRANCH   2   3
HETATM    3  C   UNL     1      -9.543  15.013  68.906  1.00  0.00    -0.221 C  
BRANCH   3   4
HETATM    4  C   UNL     1     -10.316  13.710  68.934  1.00  0.00    -0.127 A  
HETATM    5  C   UNL     1     -11.492  13.597  69.691  1.00  0.00    -0.286 A  
HETATM    6  C   UNL     1     -11.776  11.308  68.965  1.00  0.00    -0.410 A  
HETATM    7  C   UNL     1     -12.217  12.401  69.707  1.00  0.00    -0.198 A  
HETATM    8  C   UNL     1     -10.615  11.410  68.201  1.00  0.00    -0.220 A  
HETATM    9  C   UNL     1      -9.893  12.606  68.181  1.00  0.00    -0.226 A  
ENDBRANCH   3   4
ENDBRANCH   2   3
BRANCH   2  10
HETATM   10  N   UNL     1      -9.298  17.270  67.895  1.00  0.00    -0.253 N  
HETATM   11  H   UNL     1      -8.403  17.072  67.449  1.00  0.00     0.000 HD 
HETATM   12  C   UNL     1      -9.572  18.571  68.256  1.00  0.00    -0.343 C  
HETATM   13  O   UNL     1     -10.647  18.941  68.720  1.00  0.00    -0.089 OA 
BRANCH  12  14
HETATM   14  C   UNL     1      -8.403  19.545  67.975  1.00  0.00    -0.320 C  
HETATM   15  N   UNL     1      -7.529  19.607  69.179  1.00  0.00    -0.334 NA 
HETATM   16  H2  UNL     1      -7.206  18.685  69.474  1.00  0.00     0.000 HD 
HETATM   17  H1  UNL     1      -6.759  20.248  68.995  1.00  0.00     0.000 HD 
BRANCH  14  18
HETATM   18  C   UNL     1      -7.558  19.093  66.776  1.00  0.00    -0.251 C  
BRANCH  18  19
HETATM   19  C   UNL     1      -6.052  19.161  67.054  1.00  0.00    -0.174 C  
BRANCH  19  20
HETATM   20  C   UNL     1      -5.246  19.307  65.758  1.00  0.00    -0.172 C  
BRANCH  20  21
HETATM   21  C   UNL     1      -6.011  18.725  64.569  1.00  0.00    -0.111 C  
HETATM   22  N   UNL     1      -5.834  19.567  63.392  1.00  0.00    -0.400 NA 
HETATM   23  H1  UNL     1      -6.344  19.179  62.598  1.00  0.00     0.000 HD 
HETATM   24  H2  UNL     1      -4.848  19.715  63.174  1.00  0.00     0.000 HD 
ENDBRANCH  20  21
ENDBRANCH  19  20
ENDBRANCH  18  19
ENDBRANCH  14  18
ENDBRANCH  12  14
ENDBRANCH   2  10
TORSDOF 8
ENDMDL
MODEL      310
REMARK 921   NORMALIZED FREE ENERGY PREDICTED BY IDOCK:   -3.02 KCAL/MOL
REMARK 922        TOTAL FREE ENERGY PREDICTED BY IDOCK:   -5.23 KCAL/MOL
REMARK 923 INTER-LIGAND FREE ENERGY PREDICTED BY IDOCK:   -4.26 KCAL/MOL
REMARK 924 INTRA-LIGAND FREE ENERGY PREDICTED BY IDOCK:   -0.97 KCAL/MOL
REMARK 927      BINDING AFFINITY PREDICTED BY RF-SCORE:    0.00 PKD
ROOT
HETATM    1  C   UNL     1      -7.539   7.556  65.626  1.00  0.00    -0.091 C  
HETATM    2  C   UNL     1      -8.546   6.499  66.077  1.00  0.00    -0.148 C  
ENDROOT
BRANCH   2   3
HETATM    3  C   UNL     1      -7.966   5.067  65.989  1.00  0.00    -0.107 C  
BRANCH   3   4
HETATM    4  C   UNL     1      -8.677   4.146  65.018  1.00  0.00    -0.124 A  
HETATM    5  C   UNL     1      -7.979   3.113  64.376  1.00  0.00    -0.082 A  
HETATM    6  C   UNL     1      -9.997   2.413  63.242  1.00  0.00    -0.118 A  
HETATM    7  C   UNL     1      -8.637   2.252  63.491  1.00  0.00    -0.085 A  
HETATM    8  C   UNL     1     -10.705   3.429  63.882  1.00  0.00    -0.221 A  
HETATM    9  C   UNL     1     -10.050   4.287  64.769  1.00  0.00    -0.159 A  
ENDBRANCH   3   4
ENDBRANCH   2   3
BRANCH   2  10
HETATM   10  N   UNL     1      -8.977   6.815  67.436  1.00  0.00    -0.116 N  
HETATM   11  H   UNL     1      -8.260   6.993  68.140  1.00  0.00     0.000 HD 
HETATM   12  C   UNL     1     -10.298   6.887  67.820  1.00  0.00    -0.203 C  
HETATM   13  O   UNL     1     -11.243   6.777  67.044  1.00  0.00    -0.393 OA 
BRANCH  12  14
HETATM   14  C   UNL     1     -10.484   7.171  69.330  1.00  0.00    -0.211 C  
HETATM   15  N   UNL     1     -11.856   6.755  69.732  1.00  0.00    -0.651 NA 
HETATM   16  H2  UNL     1     -12.055   5.784  69.491  1.00  0.00     0.000 HD 
HETATM   17  H1  UNL     1     -11.979   6.942  70.726  1.00  0.00     0.000 HD 
BRANCH  14  18
HETATM   18  C   UNL     1      -9.466   6.404  70.186  1.00  0.00    -0.170 C  
BRANCH  18  19
HETATM   19  C   UNL     1     -10.073   5.170  70.863  1.00  0.00    -0.302 C  
BRANCH  19  20
HETATM   20  C   UNL     1      -9.892   5.217  72.385  1.00  0.00    -0.208 C  
BRANCH  20  21
HETATM   21  C   UNL     1     -11.225   5.005  73.102  1.00  0.00    -0.335 C  
HETATM   22  N   UNL     1     -12.191   6.014  72.683  1.00  0.00    -0.536 NA 
HETATM   23  H1  UNL     1     -13.081   5.873  73.162  1.00  0.00     0.000 HD 
HETATM   24  H2  UNL     1     -12.304   6.034  71.670  1.00  0.00     0.000 HD 
ENDBRANCH  20  21
ENDBRANCH  19  20
ENDBRANCH  18  19
ENDBRANCH  14  18
ENDBRANCH  12  14
ENDBRANCH   2  10
TORSDOF 8
ENDMDL
MODEL      311
REMARK 921   NORMALIZED FREE ENERGY PREDICTED BY IDOCK:   -2.98 KCAL/MOL
REMARK 922        TOTAL FREE ENERGY PREDICTED BY IDOCK:   -5.17 KCAL/MOL
REMARK 923 INTER-LIGAND FREE ENERGY PREDICTED BY IDOCK:   -4.57 KCAL/MOL
REMARK 924 INTRA-LIGAND FREE ENERGY PREDICTED BY IDOCK:   -0.60 KCAL/MOL
REMARK 927      BINDING AFFINITY PREDICTED BY RF-SCORE:    0.00 PKD
ROOT
HETATM    1  C   UNL     1      -8.828  10.377  66.139  1.00  0.00    -0.172 C  
HETATM    2  C   UNL     1      -9.857  10.289  67.265  1.00  0.00    -0.182 C  
ENDROOT
BRANCH   2   3
HETATM    3  C   UNL     1     -11.228  10.875  66.848  1.00  0.00    -0.162 C  
BRANCH   3   4
HETATM    4  C   UNL     1     -11.464  12.312  67.267  1.00  0.00    -0.426 A  
HETATM    5  C   UNL     1     -11.339  12.690  68.612  1.00  0.00    -0.331 A  
HETATM    6  C   UNL     1     -11.868  14.982  68.049  1.00  0.00    -0.266 A  
HETATM    7  C   UNL     1     -11.541  14.018  69.001  1.00  0.00    -0.345 A  
HETATM    8  C   UNL     1     -11.985  14.621  66.708  1.00  0.00    -0.297 A  
HETATM    9  C   UNL     1     -11.778  13.295  66.319  1.00  0.00    -0.412 A  
ENDBRANCH   3   4
ENDBRANCH   2   3
BRANCH   2  10
HETATM   10  N   UNL     1      -9.979   8.893  67.677  1.00  0.00    -0.183 N  
HETATM   11  H   UNL     1      -9.754   8.168  66.996  1.00  0.00     0.000 HD 
HETATM   12  C   UNL     1     -10.381   8.502  68.935  1.00  0.00    -0.210 C  
HETATM   13  O   UNL     1     -10.595   9.282  69.859  1.00  0.00    -0.208 OA 
BRANCH  12  14
HETATM   14  C   UNL     1     -10.494   6.967  69.094  1.00  0.00    -0.207 C  
HETATM   15  N   UNL     1     -11.652   6.485  68.291  1.00  0.00    -0.498 NA 
HETATM   16  H2  UNL     1     -11.594   6.772  67.313  1.00  0.00     0.000 HD 
HETATM   17  H1  UNL     1     -11.727   5.473  68.395  1.00  0.00     0.000 HD 
BRANCH  14  18
HETATM   18  C   UNL     1      -9.227   6.247  68.612  1.00  0.00    -0.124 C  
BRANCH  18  19
HETATM   19  C   UNL     1      -8.914   4.988  69.430  1.00  0.00    -0.125 C  
BRANCH  19  20
HETATM   20  C   UNL     1      -9.324   5.154  70.897  1.00  0.00    -0.199 C  
BRANCH  20  21
HETATM   21  C   UNL     1      -9.946   3.868  71.441  1.00  0.00    -0.127 C  
HETATM   22  N   UNL     1      -9.208   3.402  72.609  1.00  0.00    -0.092 NA 
HETATM   23  H1  UNL     1      -9.622   2.543  72.971  1.00  0.00     0.000 HD 
HETATM   24  H2  UNL     1      -9.137   4.123  73.326  1.00  0.00     0.000 HD 
ENDBRANCH  20  21
ENDBRANCH  19  20
ENDBRANCH  18  19
ENDBRANCH  14  18
ENDBRANCH  12  14
ENDBRANCH   2  10
TORSDOF 8
ENDMDL
MODEL      312
REMARK 921   NORMALIZED FREE ENERGY PREDICTED BY IDOCK:   -2.98 KCAL/MOL
REMARK 922        TOTAL FREE ENERGY PREDICTED BY IDOCK:   -5.16 KCAL/MOL
REMARK 923 INTER-LIGAND FREE ENERGY PREDICTED BY IDOCK:   -3.65 KCAL/MOL
REMARK 924 INTRA-LIGAND FREE ENERGY PREDICTED BY IDOCK:   -1.51 KCAL/MOL
REMARK 927      BINDING AFFINITY PREDICTED BY RF-SCORE:    0.00 PKD
ROOT
HETATM    1  C   UNL     1     -11.355   5.056  73.287  1.00  0.00    -0.393 C  
HETATM    2  C   UNL     1     -10.767   5.541  71.962  1.00  0.00    -0.234 C  
ENDROOT
BRANCH   2   3
HETATM    3  C   UNL     1     -11.607   6.680  71.334  1.00  0.00    -0.362 C  
BRANCH   3   4
HETATM    4  C   UNL     1     -11.201   7.075  69.929  1.00  0.00    -0.286 A  
HETATM    5  C   UNL     1     -10.698   8.359  69.668  1.00  0.00    -0.201 A  
HETATM    6  C   UNL     1     -10.412   7.806  67.332  1.00  0.00    -0.362 A  
HETATM    7  C   UNL     1     -10.308   8.722  68.376  1.00  0.00    -0.242 A  
HETATM    8  C   UNL     1     -10.899   6.524  67.579  1.00  0.00    -0.433 A  
HETATM    9  C   UNL     1     -11.286   6.159  68.871  1.00  0.00    -0.338 A  
ENDBRANCH   3   4
ENDBRANCH   2   3
BRANCH   2  10
HETATM   10  N   UNL     1      -9.387   5.963  72.191  1.00  0.00    -0.146 N  
HETATM   11  H   UNL     1      -9.227   6.823  72.714  1.00  0.00     0.000 HD 
HETATM   12  C   UNL     1      -8.291   5.261  71.739  1.00  0.00    -0.119 C  
HETATM   13  O   UNL     1      -8.360   4.173  71.175  1.00  0.00    -0.080 OA 
BRANCH  12  14
HETATM   14  C   UNL     1      -6.945   5.957  72.054  1.00  0.00    -0.078 C  
HETATM   15  N   UNL     1      -6.044   4.979  72.723  1.00  0.00    -0.025 NA 
HETATM   16  H2  UNL     1      -5.922   4.125  72.179  1.00  0.00     0.000 HD 
HETATM   17  H1  UNL     1      -5.157   5.437  72.931  1.00  0.00     0.000 HD 
BRANCH  14  18
HETATM   18  C   UNL     1      -6.256   6.471  70.782  1.00  0.00    -0.035 C  
BRANCH  18  19
HETATM   19  C   UNL     1      -7.201   7.272  69.879  1.00  0.00    -0.081 C  
BRANCH  19  20
HETATM   20  C   UNL     1      -6.955   6.970  68.397  1.00  0.00    -0.076 C  
BRANCH  20  21
HETATM   21  C   UNL     1      -7.432   5.562  68.038  1.00  0.00    -0.074 C  
HETATM   22  N   UNL     1      -7.533   5.416  66.590  1.00  0.00    -0.086 NA 
HETATM   23  H1  UNL     1      -7.852   4.477  66.351  1.00  0.00     0.000 HD 
HETATM   24  H2  UNL     1      -6.658   5.651  66.122  1.00  0.00     0.000 HD 
ENDBRANCH  20  21
ENDBRANCH  19  20
ENDBRANCH  18  19
ENDBRANCH  14  18
ENDBRANCH  12  14
ENDBRANCH   2  10
TORSDOF 8
ENDMDL
MODEL      313
REMARK 921   NORMALIZED FREE ENERGY PREDICTED BY IDOCK:   -2.96 KCAL/MOL
REMARK 922        TOTAL FREE ENERGY PREDICTED BY IDOCK:   -5.13 KCAL/MOL
REMARK 923 INTER-LIGAND FREE ENERGY PREDICTED BY IDOCK:   -3.72 KCAL/MOL
REMARK 924 INTRA-LIGAND FREE ENERGY PREDICTED BY IDOCK:   -1.41 KCAL/MOL
REMARK 927      BINDING AFFINITY PREDICTED BY RF-SCORE:    0.00 PKD
ROOT
HETATM    1  C   UNL     1     -10.509   3.253  73.129  1.00  0.00    -0.254 C  
HETATM    2  C   UNL     1     -10.083   4.707  72.928  1.00  0.00    -0.159 C  
ENDROOT
BRANCH   2   3
HETATM    3  C   UNL     1      -8.549   4.884  73.027  1.00  0.00    -0.110 C  
BRANCH   3   4
HETATM    4  C   UNL     1      -7.854   5.190  71.715  1.00  0.00    -0.110 A  
HETATM    5  C   UNL     1      -7.440   6.497  71.417  1.00  0.00    -0.089 A  
HETATM    6  C   UNL     1      -6.535   5.760  69.299  1.00  0.00    -0.046 A  
HETATM    7  C   UNL     1      -6.786   6.779  70.215  1.00  0.00    -0.053 A  
HETATM    8  C   UNL     1      -6.931   4.456  69.587  1.00  0.00    -0.049 A  
HETATM    9  C   UNL     1      -7.582   4.171  70.791  1.00  0.00    -0.048 A  
ENDBRANCH   3   4
ENDBRANCH   2   3
BRANCH   2  10
HETATM   10  N   UNL     1     -10.589   5.166  71.637  1.00  0.00    -0.192 N  
HETATM   11  H   UNL     1     -10.396   4.597  70.813  1.00  0.00     0.000 HD 
HETATM   12  C   UNL     1     -11.315   6.326  71.471  1.00  0.00    -0.296 C  
HETATM   13  O   UNL     1     -11.679   7.043  72.398  1.00  0.00    -0.267 OA 
BRANCH  12  14
HETATM   14  C   UNL     1     -11.672   6.620  69.995  1.00  0.00    -0.317 C  
HETATM   15  N   UNL     1     -11.447   8.067  69.725  1.00  0.00    -0.436 NA 
HETATM   16  H2  UNL     1     -10.500   8.365  69.963  1.00  0.00     0.000 HD 
HETATM   17  H1  UNL     1     -11.683   8.261  68.752  1.00  0.00     0.000 HD 
BRANCH  14  18
HETATM   18  C   UNL     1     -10.814   5.798  69.023  1.00  0.00    -0.330 C  
BRANCH  18  19
HETATM   19  C   UNL     1      -9.904   6.671  68.152  1.00  0.00    -0.135 C  
BRANCH  19  20
HETATM   20  C   UNL     1      -9.481   5.942  66.872  1.00  0.00    -0.145 C  
BRANCH  20  21
HETATM   21  C   UNL     1     -10.632   5.108  66.311  1.00  0.00    -0.266 C  
HETATM   22  N   UNL     1     -10.140   3.821  65.832  1.00  0.00    -0.422 NA 
HETATM   23  H1  UNL     1     -10.908   3.265  65.457  1.00  0.00     0.000 HD 
HETATM   24  H2  UNL     1      -9.624   3.319  66.555  1.00  0.00     0.000 HD 
ENDBRANCH  20  21
ENDBRANCH  19  20
ENDBRANCH  18  19
ENDBRANCH  14  18
ENDBRANCH  12  14
ENDBRANCH   2  10
TORSDOF 8
ENDMDL
MODEL      314
REMARK 921   NORMALIZED FREE ENERGY PREDICTED BY IDOCK:   -2.96 KCAL/MOL
REMARK 922        TOTAL FREE ENERGY PREDICTED BY IDOCK:   -5.13 KCAL/MOL
REMARK 923 INTER-LIGAND FREE ENERGY PREDICTED BY IDOCK:   -3.98 KCAL/MOL
REMARK 924 INTRA-LIGAND FREE ENERGY PREDICTED BY IDOCK:   -1.15 KCAL/MOL
REMARK 927      BINDING AFFINITY PREDICTED BY RF-SCORE:    0.00 PKD
ROOT
HETATM    1  C   UNL     1     -11.095   4.901  73.481  1.00  0.00    -0.405 C  
HETATM    2  C   UNL     1     -10.658   5.342  72.085  1.00  0.00    -0.227 C  
ENDROOT
BRANCH   2   3
HETATM    3  C   UNL     1     -11.530   6.499  71.540  1.00  0.00    -0.351 C  
BRANCH   3   4
HETATM    4  C   UNL     1     -11.130   7.012  70.171  1.00  0.00    -0.323 A  
HETATM    5  C   UNL     1     -10.709   8.340  70.004  1.00  0.00    -0.239 A  
HETATM    6  C   UNL     1     -10.354   7.962  67.642  1.00  0.00    -0.307 A  
HETATM    7  C   UNL     1     -10.325   8.812  68.746  1.00  0.00    -0.234 A  
HETATM    8  C   UNL     1     -10.760   6.638  67.796  1.00  0.00    -0.352 A  
HETATM    9  C   UNL     1     -11.141   6.165  69.055  1.00  0.00    -0.437 A  
ENDBRANCH   3   4
ENDBRANCH   2   3
BRANCH   2  10
HETATM   10  N   UNL     1      -9.247   5.718  72.136  1.00  0.00    -0.146 N  
HETATM   11  H   UNL     1      -8.977   6.493  72.740  1.00  0.00     0.000 HD 
HETATM   12  C   UNL     1      -8.262   5.082  71.412  1.00  0.00    -0.113 C  
HETATM   13  O   UNL     1      -8.456   4.087  70.720  1.00  0.00    -0.069 OA 
BRANCH  12  14
HETATM   14  C   UNL     1      -6.863   5.717  71.591  1.00  0.00    -0.067 C  
HETATM   15  N   UNL     1      -5.885   4.642  71.913  1.00  0.00    -0.012 NA 
HETATM   16  H2  UNL     1      -5.887   3.893  71.221  1.00  0.00     0.000 HD 
HETATM   17  H1  UNL     1      -4.962   5.060  72.032  1.00  0.00     0.000 HD 
BRANCH  14  18
HETATM   18  C   UNL     1      -6.397   6.442  70.320  1.00  0.00    -0.039 C  
BRANCH  18  19
HETATM   19  C   UNL     1      -7.302   7.621  69.946  1.00  0.00    -0.081 C  
BRANCH  19  20
HETATM   20  C   UNL     1      -6.490   8.808  69.413  1.00  0.00    -0.045 C  
BRANCH  20  21
HETATM   21  C   UNL     1      -6.463   9.952  70.427  1.00  0.00    -0.115 C  
HETATM   22  N   UNL     1      -7.410  10.992  70.042  1.00  0.00    -0.420 NA 
HETATM   23  H1  UNL     1      -7.391  11.756  70.718  1.00  0.00     0.000 HD 
HETATM   24  H2  UNL     1      -8.351  10.621  69.913  1.00  0.00     0.000 HD 
ENDBRANCH  20  21
ENDBRANCH  19  20
ENDBRANCH  18  19
ENDBRANCH  14  18
ENDBRANCH  12  14
ENDBRANCH   2  10
TORSDOF 8
ENDMDL
MODEL      315
REMARK 921   NORMALIZED FREE ENERGY PREDICTED BY IDOCK:   -2.90 KCAL/MOL
REMARK 922        TOTAL FREE ENERGY PREDICTED BY IDOCK:   -5.04 KCAL/MOL
REMARK 923 INTER-LIGAND FREE ENERGY PREDICTED BY IDOCK:   -4.45 KCAL/MOL
REMARK 924 INTRA-LIGAND FREE ENERGY PREDICTED BY IDOCK:   -0.59 KCAL/MOL
REMARK 927      BINDING AFFINITY PREDICTED BY RF-SCORE:    0.00 PKD
ROOT
HETATM    1  C   UNL     1     -10.502   8.894  68.069  1.00  0.00    -0.263 C  
HETATM    2  C   UNL     1     -10.320  10.399  68.266  1.00  0.00    -0.171 C  
ENDROOT
BRANCH   2   3
HETATM    3  C   UNL     1     -11.004  10.904  69.558  1.00  0.00    -0.306 C  
BRANCH   3   4
HETATM    4  C   UNL     1     -11.168   9.862  70.646  1.00  0.00    -0.416 A  
HETATM    5  C   UNL     1     -12.441   9.377  70.980  1.00  0.00    -0.311 A  
HETATM    6  C   UNL     1     -11.477   7.904  72.639  1.00  0.00    -0.454 A  
HETATM    7  C   UNL     1     -12.594   8.404  71.973  1.00  0.00    -0.400 A  
HETATM    8  C   UNL     1     -10.206   8.369  72.308  1.00  0.00    -0.396 A  
HETATM    9  C   UNL     1     -10.052   9.339  71.314  1.00  0.00    -0.361 A  
ENDBRANCH   3   4
ENDBRANCH   2   3
BRANCH   2  10
HETATM   10  N   UNL     1      -8.890  10.697  68.270  1.00  0.00    -0.133 N  
HETATM   11  H   UNL     1      -8.280  10.128  68.855  1.00  0.00     0.000 HD 
HETATM   12  C   UNL     1      -8.320  11.707  67.525  1.00  0.00    -0.151 C  
HETATM   13  O   UNL     1      -8.940  12.399  66.723  1.00  0.00    -0.207 OA 
BRANCH  12  14
HETATM   14  C   UNL     1      -6.798  11.860  67.761  1.00  0.00    -0.094 C  
HETATM   15  N   UNL     1      -6.396  10.975  68.888  1.00  0.00    -0.048 NA 
HETATM   16  H2  UNL     1      -6.671  10.004  68.739  1.00  0.00     0.000 HD 
HETATM   17  H1  UNL     1      -5.393  11.075  69.044  1.00  0.00     0.000 HD 
BRANCH  14  18
HETATM   18  C   UNL     1      -5.985  11.474  66.517  1.00  0.00    -0.101 C  
BRANCH  18  19
HETATM   19  C   UNL     1      -6.168  10.004  66.123  1.00  0.00    -0.076 C  
BRANCH  19  20
HETATM   20  C   UNL     1      -6.959   9.866  64.817  1.00  0.00    -0.132 C  
BRANCH  20  21
HETATM   21  C   UNL     1      -8.191   8.983  65.015  1.00  0.00    -0.153 C  
HETATM   22  N   UNL     1      -8.101   7.792  64.178  1.00  0.00    -0.278 NA 
HETATM   23  H1  UNL     1      -8.923   7.203  64.310  1.00  0.00     0.000 HD 
HETATM   24  H2  UNL     1      -7.235   7.278  64.341  1.00  0.00     0.000 HD 
ENDBRANCH  20  21
ENDBRANCH  19  20
ENDBRANCH  18  19
ENDBRANCH  14  18
ENDBRANCH  12  14
ENDBRANCH   2  10
TORSDOF 8
ENDMDL
MODEL      316
REMARK 921   NORMALIZED FREE ENERGY PREDICTED BY IDOCK:   -2.89 KCAL/MOL
REMARK 922        TOTAL FREE ENERGY PREDICTED BY IDOCK:   -5.03 KCAL/MOL
REMARK 923 INTER-LIGAND FREE ENERGY PREDICTED BY IDOCK:   -4.56 KCAL/MOL
REMARK 924 INTRA-LIGAND FREE ENERGY PREDICTED BY IDOCK:   -0.47 KCAL/MOL
REMARK 927      BINDING AFFINITY PREDICTED BY RF-SCORE:    0.00 PKD
ROOT
HETATM    1  C   UNL     1     -12.151  14.543  69.251  1.00  0.00    -0.325 C  
HETATM    2  C   UNL     1     -10.746  14.376  68.671  1.00  0.00    -0.253 C  
ENDROOT
BRANCH   2   3
HETATM    3  C   UNL     1      -9.713  15.286  69.377  1.00  0.00    -0.248 C  
BRANCH   3   4
HETATM    4  C   UNL     1      -9.436  16.602  68.679  1.00  0.00    -0.249 A  
HETATM    5  C   UNL     1      -8.148  16.902  68.212  1.00  0.00    -0.217 A  
HETATM    6  C   UNL     1      -8.921  19.026  67.352  1.00  0.00    -0.318 A  
HETATM    7  C   UNL     1      -7.892  18.109  67.554  1.00  0.00    -0.223 A  
HETATM    8  C   UNL     1     -10.208  18.735  67.802  1.00  0.00    -0.446 A  
HETATM    9  C   UNL     1     -10.465  17.527  68.456  1.00  0.00    -0.361 A  
ENDBRANCH   3   4
ENDBRANCH   2   3
BRANCH   2  10
HETATM   10  N   UNL     1     -10.369  12.968  68.766  1.00  0.00    -0.403 N  
HETATM   11  H   UNL     1     -10.441  12.510  69.675  1.00  0.00     0.000 HD 
HETATM   12  C   UNL     1      -9.919  12.225  67.696  1.00  0.00    -0.198 C  
HETATM   13  O   UNL     1      -9.871  12.645  66.544  1.00  0.00    -0.243 OA 
BRANCH  12  14
HETATM   14  C   UNL     1      -9.519  10.779  68.078  1.00  0.00    -0.160 C  
HETATM   15  N   UNL     1      -9.249  10.011  66.832  1.00  0.00    -0.145 NA 
HETATM   16  H2  UNL     1      -8.554  10.463  66.238  1.00  0.00     0.000 HD 
HETATM   17  H1  UNL     1      -8.986   9.058  67.082  1.00  0.00     0.000 HD 
BRANCH  14  18
HETATM   18  C   UNL     1      -8.262  10.747  68.959  1.00  0.00    -0.139 C  
BRANCH  18  19
HETATM   19  C   UNL     1      -8.436   9.871  70.205  1.00  0.00    -0.144 C  
BRANCH  19  20
HETATM   20  C   UNL     1      -8.099   8.404  69.913  1.00  0.00    -0.119 C  
BRANCH  20  21
HETATM   21  C   UNL     1      -7.437   7.744  71.122  1.00  0.00    -0.078 C  
HETATM   22  N   UNL     1      -7.064   8.751  72.109  1.00  0.00    -0.287 NA 
HETATM   23  H1  UNL     1      -6.622   8.310  72.916  1.00  0.00     0.000 HD 
HETATM   24  H2  UNL     1      -7.859   9.330  72.380  1.00  0.00     0.000 HD 
ENDBRANCH  20  21
ENDBRANCH  19  20
ENDBRANCH  18  19
ENDBRANCH  14  18
ENDBRANCH  12  14
ENDBRANCH   2  10
TORSDOF 8
ENDMDL
MODEL      317
REMARK 921   NORMALIZED FREE ENERGY PREDICTED BY IDOCK:   -2.86 KCAL/MOL
REMARK 922        TOTAL FREE ENERGY PREDICTED BY IDOCK:   -4.99 KCAL/MOL
REMARK 923 INTER-LIGAND FREE ENERGY PREDICTED BY IDOCK:   -3.86 KCAL/MOL
REMARK 924 INTRA-LIGAND FREE ENERGY PREDICTED BY IDOCK:   -1.13 KCAL/MOL
REMARK 927      BINDING AFFINITY PREDICTED BY RF-SCORE:    0.00 PKD
ROOT
HETATM    1  C   UNL     1     -10.651   4.049  72.939  1.00  0.00    -0.237 C  
HETATM    2  C   UNL     1     -10.502   5.375  72.194  1.00  0.00    -0.218 C  
ENDROOT
BRANCH   2   3
HETATM    3  C   UNL     1     -11.852   6.116  72.049  1.00  0.00    -0.336 C  
BRANCH   3   4
HETATM    4  C   UNL     1     -11.751   7.533  71.521  1.00  0.00    -0.309 A  
HETATM    5  C   UNL     1     -11.047   7.803  70.338  1.00  0.00    -0.259 A  
HETATM    6  C   UNL     1     -11.588  10.153  70.516  1.00  0.00    -0.411 A  
HETATM    7  C   UNL     1     -10.965   9.107  69.840  1.00  0.00    -0.218 A  
HETATM    8  C   UNL     1     -12.299   9.897  71.686  1.00  0.00    -0.496 A  
HETATM    9  C   UNL     1     -12.385   8.594  72.183  1.00  0.00    -0.452 A  
ENDBRANCH   3   4
ENDBRANCH   2   3
BRANCH   2  10
HETATM   10  N   UNL     1      -9.518   6.195  72.896  1.00  0.00    -0.150 N  
HETATM   11  H   UNL     1      -9.787   6.616  73.785  1.00  0.00     0.000 HD 
HETATM   12  C   UNL     1      -8.245   6.431  72.423  1.00  0.00    -0.106 C  
HETATM   13  O   UNL     1      -7.784   5.910  71.412  1.00  0.00    -0.102 OA 
BRANCH  12  14
HETATM   14  C   UNL     1      -7.425   7.388  73.321  1.00  0.00    -0.084 C  
HETATM   15  N   UNL     1      -6.512   6.581  74.176  1.00  0.00    -0.069 NA 
HETATM   16  H2  UNL     1      -5.919   5.955  73.630  1.00  0.00     0.000 HD 
HETATM   17  H1  UNL     1      -5.972   7.211  74.767  1.00  0.00     0.000 HD 
BRANCH  14  18
HETATM   18  C   UNL     1      -6.584   8.370  72.492  1.00  0.00    -0.097 C  
BRANCH  18  19
HETATM   19  C   UNL     1      -7.391   9.046  71.378  1.00  0.00    -0.066 C  
BRANCH  19  20
HETATM   20  C   UNL     1      -6.575   9.168  70.086  1.00  0.00    -0.048 C  
BRANCH  20  21
HETATM   21  C   UNL     1      -7.454   8.926  68.858  1.00  0.00    -0.082 C  
HETATM   22  N   UNL     1      -7.758   7.506  68.725  1.00  0.00    -0.116 NA 
HETATM   23  H1  UNL     1      -8.344   7.345  67.906  1.00  0.00     0.000 HD 
HETATM   24  H2  UNL     1      -8.178   7.126  69.574  1.00  0.00     0.000 HD 
ENDBRANCH  20  21
ENDBRANCH  19  20
ENDBRANCH  18  19
ENDBRANCH  14  18
ENDBRANCH  12  14
ENDBRANCH   2  10
TORSDOF 8
ENDMDL
MODEL      318
REMARK 921   NORMALIZED FREE ENERGY PREDICTED BY IDOCK:   -2.85 KCAL/MOL
REMARK 922        TOTAL FREE ENERGY PREDICTED BY IDOCK:   -4.97 KCAL/MOL
REMARK 923 INTER-LIGAND FREE ENERGY PREDICTED BY IDOCK:   -3.96 KCAL/MOL
REMARK 924 INTRA-LIGAND FREE ENERGY PREDICTED BY IDOCK:   -1.01 KCAL/MOL
REMARK 927      BINDING AFFINITY PREDICTED BY RF-SCORE:    0.00 PKD
ROOT
HETATM    1  C   UNL     1      -9.633   3.625  68.473  1.00  0.00    -0.163 C  
HETATM    2  C   UNL     1      -9.307   5.117  68.534  1.00  0.00    -0.125 C  
ENDROOT
BRANCH   2   3
HETATM    3  C   UNL     1      -9.289   5.767  67.129  1.00  0.00    -0.116 C  
BRANCH   3   4
HETATM    4  C   UNL     1      -8.978   7.250  67.114  1.00  0.00    -0.132 A  
HETATM    5  C   UNL     1      -7.683   7.708  67.398  1.00  0.00    -0.117 A  
HETATM    6  C   UNL     1      -8.384   9.997  67.054  1.00  0.00    -0.121 A  
HETATM    7  C   UNL     1      -7.389   9.075  67.370  1.00  0.00    -0.084 A  
HETATM    8  C   UNL     1      -9.672   9.554  66.759  1.00  0.00    -0.254 A  
HETATM    9  C   UNL     1      -9.966   8.188  66.783  1.00  0.00    -0.349 A  
ENDBRANCH   3   4
ENDBRANCH   2   3
BRANCH   2  10
HETATM   10  N   UNL     1     -10.277   5.770  69.409  1.00  0.00    -0.211 N  
HETATM   11  H   UNL     1     -11.269   5.626  69.222  1.00  0.00     0.000 HD 
HETATM   12  C   UNL     1      -9.925   6.571  70.475  1.00  0.00    -0.184 C  
HETATM   13  O   UNL     1      -8.768   6.746  70.845  1.00  0.00    -0.139 OA 
BRANCH  12  14
HETATM   14  C   UNL     1     -11.140   7.198  71.199  1.00  0.00    -0.254 C  
HETATM   15  N   UNL     1     -12.378   6.846  70.452  1.00  0.00    -0.604 NA 
HETATM   16  H2  UNL     1     -12.481   5.840  70.320  1.00  0.00     0.000 HD 
HETATM   17  H1  UNL     1     -13.179   7.260  70.929  1.00  0.00     0.000 HD 
BRANCH  14  18
HETATM   18  C   UNL     1     -11.272   6.687  72.641  1.00  0.00    -0.285 C  
BRANCH  18  19
HETATM   19  C   UNL     1     -11.180   5.160  72.739  1.00  0.00    -0.323 C  
BRANCH  19  20
HETATM   20  C   UNL     1     -10.339   4.723  73.943  1.00  0.00    -0.281 C  
BRANCH  20  21
HETATM   21  C   UNL     1      -9.084   3.975  73.492  1.00  0.00    -0.102 C  
HETATM   22  N   UNL     1      -9.104   3.778  72.047  1.00  0.00    -0.112 NA 
HETATM   23  H1  UNL     1      -8.267   3.279  71.746  1.00  0.00     0.000 HD 
HETATM   24  H2  UNL     1      -9.224   4.658  71.545  1.00  0.00     0.000 HD 
ENDBRANCH  20  21
ENDBRANCH  19  20
ENDBRANCH  18  19
ENDBRANCH  14  18
ENDBRANCH  12  14
ENDBRANCH   2  10
TORSDOF 8
ENDMDL
MODEL      319
REMARK 921   NORMALIZED FREE ENERGY PREDICTED BY IDOCK:   -2.82 KCAL/MOL
REMARK 922        TOTAL FREE ENERGY PREDICTED BY IDOCK:   -4.93 KCAL/MOL
REMARK 923 INTER-LIGAND FREE ENERGY PREDICTED BY IDOCK:   -5.33 KCAL/MOL
REMARK 924 INTRA-LIGAND FREE ENERGY PREDICTED BY IDOCK:    0.40 KCAL/MOL
REMARK 927      BINDING AFFINITY PREDICTED BY RF-SCORE:    0.00 PKD
ROOT
HETATM    1  C   UNL     1      -8.510   8.815  64.011  1.00  0.00    -0.121 C  
HETATM    2  C   UNL     1      -8.422   9.128  65.505  1.00  0.00    -0.147 C  
ENDROOT
BRANCH   2   3
HETATM    3  C   UNL     1      -8.540  10.644  65.791  1.00  0.00    -0.186 C  
BRANCH   3   4
HETATM    4  C   UNL     1      -9.832  11.285  65.323  1.00  0.00    -0.291 A  
HETATM    5  C   UNL     1     -10.182  11.269  63.965  1.00  0.00    -0.403 A  
HETATM    6  C   UNL     1     -12.241  12.440  64.451  1.00  0.00    -0.519 A  
HETATM    7  C   UNL     1     -11.380  11.845  63.532  1.00  0.00    -0.516 A  
HETATM    8  C   UNL     1     -11.910  12.453  65.805  1.00  0.00    -0.467 A  
HETATM    9  C   UNL     1     -10.715  11.873  66.239  1.00  0.00    -0.309 A  
ENDBRANCH   3   4
ENDBRANCH   2   3
BRANCH   2  10
HETATM   10  N   UNL     1      -9.461   8.373  66.201  1.00  0.00    -0.331 N  
HETATM   11  H   UNL     1     -10.159   7.885  65.640  1.00  0.00     0.000 HD 
HETATM   12  C   UNL     1      -9.549   8.283  67.573  1.00  0.00    -0.154 C  
HETATM   13  O   UNL     1      -8.719   8.756  68.344  1.00  0.00    -0.133 OA 
BRANCH  12  14
HETATM   14  C   UNL     1     -10.780   7.481  68.058  1.00  0.00    -0.106 C  
HETATM   15  N   UNL     1     -11.448   6.867  66.878  1.00  0.00    -0.625 NA 
HETATM   16  H2  UNL     1     -10.810   6.299  66.321  1.00  0.00     0.000 HD 
HETATM   17  H1  UNL     1     -12.260   6.339  67.197  1.00  0.00     0.000 HD 
BRANCH  14  18
HETATM   18  C   UNL     1     -10.387   6.367  69.038  1.00  0.00    -0.238 C  
BRANCH  18  19
HETATM   19  C   UNL     1      -8.896   6.018  68.971  1.00  0.00    -0.121 C  
BRANCH  19  20
HETATM   20  C   UNL     1      -8.582   5.123  67.767  1.00  0.00    -0.103 C  
BRANCH  20  21
HETATM   21  C   UNL     1      -9.601   3.991  67.645  1.00  0.00    -0.159 C  
HETATM   22  N   UNL     1     -10.185   3.976  66.309  1.00  0.00    -0.401 NA 
HETATM   23  H1  UNL     1     -10.866   3.221  66.228  1.00  0.00     0.000 HD 
HETATM   24  H2  UNL     1      -9.471   3.924  65.583  1.00  0.00     0.000 HD 
ENDBRANCH  20  21
ENDBRANCH  19  20
ENDBRANCH  18  19
ENDBRANCH  14  18
ENDBRANCH  12  14
ENDBRANCH   2  10
TORSDOF 8
ENDMDL
MODEL      320
REMARK 921   NORMALIZED FREE ENERGY PREDICTED BY IDOCK:   -2.80 KCAL/MOL
REMARK 922        TOTAL FREE ENERGY PREDICTED BY IDOCK:   -4.90 KCAL/MOL
REMARK 923 INTER-LIGAND FREE ENERGY PREDICTED BY IDOCK:   -5.13 KCAL/MOL
REMARK 924 INTRA-LIGAND FREE ENERGY PREDICTED BY IDOCK:    0.24 KCAL/MOL
REMARK 927      BINDING AFFINITY PREDICTED BY RF-SCORE:    0.00 PKD
ROOT
HETATM    1  C   UNL     1     -10.093   6.686  72.457  1.00  0.00    -0.189 C  
HETATM    2  C   UNL     1     -11.144   6.192  71.464  1.00  0.00    -0.286 C  
ENDROOT
BRANCH   2   3
HETATM    3  C   UNL     1     -12.491   6.937  71.623  1.00  0.00    -0.418 C  
BRANCH   3   4
HETATM    4  C   UNL     1     -12.428   8.432  71.381  1.00  0.00    -0.313 A  
HETATM    5  C   UNL     1     -13.226   9.308  72.131  1.00  0.00    -0.535 A  
HETATM    6  C   UNL     1     -12.293  11.208  70.960  1.00  0.00    -0.487 A  
HETATM    7  C   UNL     1     -13.160  10.689  71.920  1.00  0.00    -0.563 A  
HETATM    8  C   UNL     1     -11.487  10.349  70.216  1.00  0.00    -0.406 A  
HETATM    9  C   UNL     1     -11.551   8.969  70.429  1.00  0.00    -0.145 A  
ENDBRANCH   3   4
ENDBRANCH   2   3
BRANCH   2  10
HETATM   10  N   UNL     1     -10.612   6.338  70.112  1.00  0.00    -0.227 N  
HETATM   11  H   UNL     1     -10.602   7.269  69.696  1.00  0.00     0.000 HD 
HETATM   12  C   UNL     1     -10.124   5.287  69.367  1.00  0.00    -0.241 C  
HETATM   13  O   UNL     1     -10.008   4.142  69.793  1.00  0.00    -0.206 OA 
BRANCH  12  14
HETATM   14  C   UNL     1      -9.684   5.697  67.941  1.00  0.00    -0.125 C  
HETATM   15  N   UNL     1      -8.319   6.287  68.010  1.00  0.00    -0.114 NA 
HETATM   16  H2  UNL     1      -7.648   5.664  68.459  1.00  0.00     0.000 HD 
HETATM   17  H1  UNL     1      -8.029   6.558  67.070  1.00  0.00     0.000 HD 
BRANCH  14  18
HETATM   18  C   UNL     1      -9.655   4.497  66.983  1.00  0.00    -0.210 C  
BRANCH  18  19
HETATM   19  C   UNL     1     -10.559   4.693  65.762  1.00  0.00    -0.264 C  
BRANCH  19  20
HETATM   20  C   UNL     1     -10.182   3.739  64.623  1.00  0.00    -0.185 C  
BRANCH  20  21
HETATM   21  C   UNL     1      -9.143   4.375  63.698  1.00  0.00    -0.136 C  
HETATM   22  N   UNL     1      -7.997   3.487  63.537  1.00  0.00    -0.082 NA 
HETATM   23  H1  UNL     1      -7.304   3.912  62.921  1.00  0.00     0.000 HD 
HETATM   24  H2  UNL     1      -8.276   2.561  63.216  1.00  0.00     0.000 HD 
ENDBRANCH  20  21
ENDBRANCH  19  20
ENDBRANCH  18  19
ENDBRANCH  14  18
ENDBRANCH  12  14
ENDBRANCH   2  10
TORSDOF 8
ENDMDL
MODEL      321
REMARK 921   NORMALIZED FREE ENERGY PREDICTED BY IDOCK:   -2.78 KCAL/MOL
REMARK 922        TOTAL FREE ENERGY PREDICTED BY IDOCK:   -4.86 KCAL/MOL
REMARK 923 INTER-LIGAND FREE ENERGY PREDICTED BY IDOCK:   -3.55 KCAL/MOL
REMARK 924 INTRA-LIGAND FREE ENERGY PREDICTED BY IDOCK:   -1.31 KCAL/MOL
REMARK 927      BINDING AFFINITY PREDICTED BY RF-SCORE:    0.00 PKD
ROOT
HETATM    1  C   UNL     1      -9.619   3.004  70.574  1.00  0.00    -0.187 C  
HETATM    2  C   UNL     1      -8.857   4.286  70.910  1.00  0.00    -0.098 C  
ENDROOT
BRANCH   2   3
HETATM    3  C   UNL     1      -8.100   4.852  69.684  1.00  0.00    -0.073 C  
BRANCH   3   4
HETATM    4  C   UNL     1      -7.727   6.317  69.783  1.00  0.00    -0.105 A  
HETATM    5  C   UNL     1      -6.877   6.768  70.803  1.00  0.00    -0.059 A  
HETATM    6  C   UNL     1      -7.004   9.028  69.952  1.00  0.00    -0.052 A  
HETATM    7  C   UNL     1      -6.519   8.117  70.887  1.00  0.00    -0.037 A  
HETATM    8  C   UNL     1      -7.841   8.591  68.926  1.00  0.00    -0.109 A  
HETATM    9  C   UNL     1      -8.195   7.242  68.839  1.00  0.00    -0.125 A  
ENDBRANCH   3   4
ENDBRANCH   2   3
BRANCH   2  10
HETATM   10  N   UNL     1      -9.802   5.262  71.448  1.00  0.00    -0.167 N  
HETATM   11  H   UNL     1     -10.323   5.841  70.790  1.00  0.00     0.000 HD 
HETATM   12  C   UNL     1     -10.027   5.442  72.795  1.00  0.00    -0.170 C  
HETATM   13  O   UNL     1      -9.523   4.747  73.672  1.00  0.00    -0.124 OA 
BRANCH  12  14
HETATM   14  C   UNL     1     -11.024   6.585  73.103  1.00  0.00    -0.221 C  
HETATM   15  N   UNL     1     -10.450   7.449  74.171  1.00  0.00    -0.466 NA 
HETATM   16  H2  UNL     1      -9.520   7.796  73.933  1.00  0.00     0.000 HD 
HETATM   17  H1  UNL     1     -11.106   8.202  74.374  1.00  0.00     0.000 HD 
BRANCH  14  18
HETATM   18  C   UNL     1     -11.302   7.450  71.866  1.00  0.00    -0.294 C  
BRANCH  18  19
HETATM   19  C   UNL     1     -10.302   8.601  71.712  1.00  0.00    -0.386 C  
BRANCH  19  20
HETATM   20  C   UNL     1     -10.794   9.642  70.699  1.00  0.00    -0.386 C  
BRANCH  20  21
HETATM   21  C   UNL     1     -12.321   9.713  70.684  1.00  0.00    -0.128 C  
HETATM   22  N   UNL     1     -12.767  11.085  70.894  1.00  0.00    -0.363 NA 
HETATM   23  H1  UNL     1     -13.786  11.132  70.884  1.00  0.00     0.000 HD 
HETATM   24  H2  UNL     1     -12.350  11.728  70.221  1.00  0.00     0.000 HD 
ENDBRANCH  20  21
ENDBRANCH  19  20
ENDBRANCH  18  19
ENDBRANCH  14  18
ENDBRANCH  12  14
ENDBRANCH   2  10
TORSDOF 8
ENDMDL
MODEL      322
REMARK 921   NORMALIZED FREE ENERGY PREDICTED BY IDOCK:   -2.76 KCAL/MOL
REMARK 922        TOTAL FREE ENERGY PREDICTED BY IDOCK:   -4.84 KCAL/MOL
REMARK 923 INTER-LIGAND FREE ENERGY PREDICTED BY IDOCK:   -4.58 KCAL/MOL
REMARK 924 INTRA-LIGAND FREE ENERGY PREDICTED BY IDOCK:   -0.26 KCAL/MOL
REMARK 927      BINDING AFFINITY PREDICTED BY RF-SCORE:    0.00 PKD
ROOT
HETATM    1  C   UNL     1      -8.068   6.219  62.654  1.00  0.00    -0.081 C  
HETATM    2  C   UNL     1      -7.600   6.733  64.014  1.00  0.00    -0.108 C  
ENDROOT
BRANCH   2   3
HETATM    3  C   UNL     1      -7.228   8.235  63.973  1.00  0.00    -0.090 C  
BRANCH   3   4
HETATM    4  C   UNL     1      -8.388   9.188  64.184  1.00  0.00    -0.182 A  
HETATM    5  C   UNL     1      -8.894   9.418  65.472  1.00  0.00    -0.220 A  
HETATM    6  C   UNL     1     -10.516  10.979  64.589  1.00  0.00    -0.398 A  
HETATM    7  C   UNL     1      -9.954  10.308  65.672  1.00  0.00    -0.347 A  
HETATM    8  C   UNL     1     -10.016  10.767  63.306  1.00  0.00    -0.369 A  
HETATM    9  C   UNL     1      -8.954   9.881  63.106  1.00  0.00    -0.275 A  
ENDBRANCH   3   4
ENDBRANCH   2   3
BRANCH   2  10
HETATM   10  N   UNL     1      -8.649   6.472  64.997  1.00  0.00    -0.342 N  
HETATM   11  H   UNL     1      -9.580   6.849  64.820  1.00  0.00     0.000 HD 
HETATM   12  C   UNL     1      -8.449   5.744  66.150  1.00  0.00    -0.130 C  
HETATM   13  O   UNL     1      -7.398   5.173  66.425  1.00  0.00    -0.082 OA 
BRANCH  12  14
HETATM   14  C   UNL     1      -9.703   5.672  67.055  1.00  0.00    -0.143 C  
HETATM   15  N   UNL     1     -10.502   4.476  66.674  1.00  0.00    -0.274 NA 
HETATM   16  H2  UNL     1      -9.954   3.616  66.700  1.00  0.00     0.000 HD 
HETATM   17  H1  UNL     1     -11.328   4.428  67.270  1.00  0.00     0.000 HD 
BRANCH  14  18
HETATM   18  C   UNL     1      -9.330   5.564  68.540  1.00  0.00    -0.143 C  
BRANCH  18  19
HETATM   19  C   UNL     1      -9.913   6.706  69.381  1.00  0.00    -0.169 C  
BRANCH  19  20
HETATM   20  C   UNL     1     -11.219   6.290  70.067  1.00  0.00    -0.480 C  
BRANCH  20  21
HETATM   21  C   UNL     1     -10.956   5.789  71.488  1.00  0.00    -0.239 C  
HETATM   22  N   UNL     1     -11.919   6.369  72.416  1.00  0.00    -0.502 NA 
HETATM   23  H1  UNL     1     -11.744   6.035  73.363  1.00  0.00     0.000 HD 
HETATM   24  H2  UNL     1     -12.881   6.195  72.123  1.00  0.00     0.000 HD 
ENDBRANCH  20  21
ENDBRANCH  19  20
ENDBRANCH  18  19
ENDBRANCH  14  18
ENDBRANCH  12  14
ENDBRANCH   2  10
TORSDOF 8
ENDMDL
MODEL      323
REMARK 921   NORMALIZED FREE ENERGY PREDICTED BY IDOCK:   -2.72 KCAL/MOL
REMARK 922        TOTAL FREE ENERGY PREDICTED BY IDOCK:   -4.78 KCAL/MOL
REMARK 923 INTER-LIGAND FREE ENERGY PREDICTED BY IDOCK:   -4.14 KCAL/MOL
REMARK 924 INTRA-LIGAND FREE ENERGY PREDICTED BY IDOCK:   -0.64 KCAL/MOL
REMARK 927      BINDING AFFINITY PREDICTED BY RF-SCORE:    0.00 PKD
ROOT
HETATM    1  C   UNL     1      -7.385   8.158  67.255  1.00  0.00    -0.089 C  
HETATM    2  C   UNL     1      -7.836   9.575  67.607  1.00  0.00    -0.102 C  
ENDROOT
BRANCH   2   3
HETATM    3  C   UNL     1      -7.476  10.593  66.499  1.00  0.00    -0.134 C  
BRANCH   3   4
HETATM    4  C   UNL     1      -8.389  10.572  65.289  1.00  0.00    -0.155 A  
HETATM    5  C   UNL     1      -8.044   9.830  64.150  1.00  0.00    -0.153 A  
HETATM    6  C   UNL     1     -10.093  10.501  63.055  1.00  0.00    -0.030 A  
HETATM    7  C   UNL     1      -8.892   9.796  63.039  1.00  0.00    -0.255 A  
HETATM    8  C   UNL     1     -10.453  11.233  64.184  1.00  0.00    -0.431 A  
HETATM    9  C   UNL     1      -9.608  11.264  65.297  1.00  0.00    -0.265 A  
ENDBRANCH   3   4
ENDBRANCH   2   3
BRANCH   2  10
HETATM   10  N   UNL     1      -9.274   9.556  67.865  1.00  0.00    -0.126 N  
HETATM   11  H   UNL     1      -9.882   9.123  67.170  1.00  0.00     0.000 HD 
HETATM   12  C   UNL     1      -9.853  10.090  68.995  1.00  0.00    -0.199 C  
HETATM   13  O   UNL     1      -9.217  10.557  69.935  1.00  0.00     0.007 OA 
BRANCH  12  14
HETATM   14  C   UNL     1     -11.398  10.001  68.993  1.00  0.00    -0.084 C  
HETATM   15  N   UNL     1     -11.842   9.314  70.237  1.00  0.00    -0.469 NA 
HETATM   16  H2  UNL     1     -11.479   9.761  71.079  1.00  0.00     0.000 HD 
HETATM   17  H1  UNL     1     -12.860   9.256  70.235  1.00  0.00     0.000 HD 
BRANCH  14  18
HETATM   18  C   UNL     1     -12.050  11.390  68.937  1.00  0.00    -0.285 C  
BRANCH  18  19
HETATM   19  C   UNL     1     -11.337  12.340  67.968  1.00  0.00    -0.348 C  
BRANCH  19  20
HETATM   20  C   UNL     1     -11.681  13.805  68.261  1.00  0.00    -0.394 C  
BRANCH  20  21
HETATM   21  C   UNL     1     -10.529  14.504  68.983  1.00  0.00    -0.237 C  
HETATM   22  N   UNL     1      -9.290  13.755  68.804  1.00  0.00    -0.395 NA 
HETATM   23  H1  UNL     1      -8.522  14.221  69.286  1.00  0.00     0.000 HD 
HETATM   24  H2  UNL     1      -9.081  13.596  67.819  1.00  0.00     0.000 HD 
ENDBRANCH  20  21
ENDBRANCH  19  20
ENDBRANCH  18  19
ENDBRANCH  14  18
ENDBRANCH  12  14
ENDBRANCH   2  10
TORSDOF 8
ENDMDL
MODEL      324
REMARK 921   NORMALIZED FREE ENERGY PREDICTED BY IDOCK:   -2.71 KCAL/MOL
REMARK 922        TOTAL FREE ENERGY PREDICTED BY IDOCK:   -4.77 KCAL/MOL
REMARK 923 INTER-LIGAND FREE ENERGY PREDICTED BY IDOCK:   -4.15 KCAL/MOL
REMARK 924 INTRA-LIGAND FREE ENERGY PREDICTED BY IDOCK:   -0.62 KCAL/MOL
REMARK 927      BINDING AFFINITY PREDICTED BY RF-SCORE:    0.00 PKD
ROOT
HETATM    1  C   UNL     1      -7.824   8.614  67.040  1.00  0.00    -0.096 C  
HETATM    2  C   UNL     1      -8.679   7.373  66.787  1.00  0.00    -0.133 C  
ENDROOT
BRANCH   2   3
HETATM    3  C   UNL     1      -7.837   6.179  66.275  1.00  0.00    -0.104 C  
BRANCH   3   4
HETATM    4  C   UNL     1      -8.418   5.451  65.081  1.00  0.00    -0.150 A  
HETATM    5  C   UNL     1      -8.066   5.828  63.776  1.00  0.00    -0.108 A  
HETATM    6  C   UNL     1      -9.466   4.083  62.860  1.00  0.00    -0.131 A  
HETATM    7  C   UNL     1      -8.589   5.148  62.673  1.00  0.00    -0.104 A  
HETATM    8  C   UNL     1      -9.816   3.690  64.150  1.00  0.00    -0.181 A  
HETATM    9  C   UNL     1      -9.291   4.367  65.254  1.00  0.00    -0.164 A  
ENDBRANCH   3   4
ENDBRANCH   2   3
BRANCH   2  10
HETATM   10  N   UNL     1      -9.386   7.035  68.020  1.00  0.00    -0.128 N  
HETATM   11  H   UNL     1      -8.891   7.145  68.905  1.00  0.00     0.000 HD 
HETATM   12  C   UNL     1     -10.685   6.576  68.053  1.00  0.00    -0.283 C  
HETATM   13  O   UNL     1     -11.404   6.485  67.063  1.00  0.00    -0.342 OA 
BRANCH  12  14
HETATM   14  C   UNL     1     -11.175   6.225  69.478  1.00  0.00    -0.430 C  
HETATM   15  N   UNL     1     -10.257   5.213  70.068  1.00  0.00    -0.273 NA 
HETATM   16  H2  UNL     1      -9.283   5.517  70.055  1.00  0.00     0.000 HD 
HETATM   17  H1  UNL     1     -10.580   4.982  71.006  1.00  0.00     0.000 HD 
BRANCH  14  18
HETATM   18  C   UNL     1     -11.203   7.458  70.393  1.00  0.00    -0.284 C  
BRANCH  18  19
HETATM   19  C   UNL     1     -10.055   7.467  71.409  1.00  0.00    -0.196 C  
BRANCH  19  20
HETATM   20  C   UNL     1     -10.569   7.676  72.838  1.00  0.00    -0.411 C  
BRANCH  20  21
HETATM   21  C   UNL     1      -9.454   7.452  73.859  1.00  0.00    -0.263 C  
HETATM   22  N   UNL     1      -8.398   8.442  73.683  1.00  0.00    -0.365 NA 
HETATM   23  H1  UNL     1      -7.654   8.292  74.364  1.00  0.00     0.000 HD 
HETATM   24  H2  UNL     1      -8.761   9.395  73.720  1.00  0.00     0.000 HD 
ENDBRANCH  20  21
ENDBRANCH  19  20
ENDBRANCH  18  19
ENDBRANCH  14  18
ENDBRANCH  12  14
ENDBRANCH   2  10
TORSDOF 8
ENDMDL
MODEL      325
REMARK 921   NORMALIZED FREE ENERGY PREDICTED BY IDOCK:   -2.71 KCAL/MOL
REMARK 922        TOTAL FREE ENERGY PREDICTED BY IDOCK:   -4.76 KCAL/MOL
REMARK 923 INTER-LIGAND FREE ENERGY PREDICTED BY IDOCK:   -3.64 KCAL/MOL
REMARK 924 INTRA-LIGAND FREE ENERGY PREDICTED BY IDOCK:   -1.12 KCAL/MOL
REMARK 927      BINDING AFFINITY PREDICTED BY RF-SCORE:    0.00 PKD
ROOT
HETATM    1  C   UNL     1      -5.693   8.652  68.389  1.00  0.00    -0.038 C  
HETATM    2  C   UNL     1      -6.428   9.717  69.202  1.00  0.00    -0.044 C  
ENDROOT
BRANCH   2   3
HETATM    3  C   UNL     1      -7.120  10.765  68.297  1.00  0.00    -0.078 C  
BRANCH   3   4
HETATM    4  C   UNL     1      -8.631  10.660  68.236  1.00  0.00    -0.128 A  
HETATM    5  C   UNL     1      -9.243   9.629  67.509  1.00  0.00    -0.149 A  
HETATM    6  C   UNL     1     -11.431  10.439  68.144  1.00  0.00    -0.194 A  
HETATM    7  C   UNL     1     -10.636   9.521  67.463  1.00  0.00    -0.338 A  
HETATM    8  C   UNL     1     -10.835  11.462  68.879  1.00  0.00    -0.259 A  
HETATM    9  C   UNL     1      -9.442  11.569  68.929  1.00  0.00    -0.027 A  
ENDBRANCH   3   4
ENDBRANCH   2   3
BRANCH   2  10
HETATM   10  N   UNL     1      -7.391   9.053  70.078  1.00  0.00    -0.054 N  
HETATM   11  H   UNL     1      -8.180   8.571  69.649  1.00  0.00     0.000 HD 
HETATM   12  C   UNL     1      -7.290   9.042  71.452  1.00  0.00    -0.036 C  
HETATM   13  O   UNL     1      -6.342   9.514  72.072  1.00  0.00    -0.296 OA 
BRANCH  12  14
HETATM   14  C   UNL     1      -8.474   8.329  72.149  1.00  0.00    -0.179 C  
HETATM   15  N   UNL     1      -8.466   8.685  73.594  1.00  0.00    -0.314 NA 
HETATM   16  H2  UNL     1      -8.474   9.694  73.747  1.00  0.00     0.000 HD 
HETATM   17  H1  UNL     1      -9.246   8.215  74.053  1.00  0.00     0.000 HD 
BRANCH  14  18
HETATM   18  C   UNL     1      -9.825   8.743  71.547  1.00  0.00    -0.371 C  
BRANCH  18  19
HETATM   19  C   UNL     1     -10.967   7.809  71.960  1.00  0.00    -0.305 C  
BRANCH  19  20
HETATM   20  C   UNL     1     -11.630   7.156  70.741  1.00  0.00    -0.358 C  
BRANCH  20  21
HETATM   21  C   UNL     1     -10.592   6.458  69.862  1.00  0.00    -0.243 C  
HETATM   22  N   UNL     1     -10.051   5.290  70.548  1.00  0.00    -0.227 NA 
HETATM   23  H1  UNL     1      -9.358   4.824  69.962  1.00  0.00     0.000 HD 
HETATM   24  H2  UNL     1     -10.787   4.650  70.848  1.00  0.00     0.000 HD 
ENDBRANCH  20  21
ENDBRANCH  19  20
ENDBRANCH  18  19
ENDBRANCH  14  18
ENDBRANCH  12  14
ENDBRANCH   2  10
TORSDOF 8
ENDMDL
MODEL      326
REMARK 921   NORMALIZED FREE ENERGY PREDICTED BY IDOCK:   -2.70 KCAL/MOL
REMARK 922        TOTAL FREE ENERGY PREDICTED BY IDOCK:   -4.76 KCAL/MOL
REMARK 923 INTER-LIGAND FREE ENERGY PREDICTED BY IDOCK:   -4.08 KCAL/MOL
REMARK 924 INTRA-LIGAND FREE ENERGY PREDICTED BY IDOCK:   -0.68 KCAL/MOL
REMARK 927      BINDING AFFINITY PREDICTED BY RF-SCORE:    0.00 PKD
ROOT
HETATM    1  C   UNL     1      -7.811   7.616  66.884  1.00  0.00    -0.111 C  
HETATM    2  C   UNL     1      -8.941   6.690  67.332  1.00  0.00    -0.114 C  
ENDROOT
BRANCH   2   3
HETATM    3  C   UNL     1     -10.140   7.475  67.916  1.00  0.00    -0.226 C  
BRANCH   3   4
HETATM    4  C   UNL     1     -10.412   7.229  69.386  1.00  0.00    -0.223 A  
HETATM    5  C   UNL     1     -10.244   8.260  70.323  1.00  0.00    -0.199 A  
HETATM    6  C   UNL     1     -10.948   6.791  72.110  1.00  0.00    -0.270 A  
HETATM    7  C   UNL     1     -10.509   8.040  71.678  1.00  0.00    -0.272 A  
HETATM    8  C   UNL     1     -11.130   5.762  71.188  1.00  0.00    -0.257 A  
HETATM    9  C   UNL     1     -10.869   5.982  69.833  1.00  0.00    -0.434 A  
ENDBRANCH   3   4
ENDBRANCH   2   3
BRANCH   2  10
HETATM   10  N   UNL     1      -9.346   5.867  66.196  1.00  0.00    -0.217 N  
HETATM   11  H   UNL     1      -9.349   6.292  65.269  1.00  0.00     0.000 HD 
HETATM   12  C   UNL     1      -9.727   4.547  66.308  1.00  0.00    -0.208 C  
HETATM   13  O   UNL     1      -9.682   3.908  67.355  1.00  0.00    -0.198 OA 
BRANCH  12  14
HETATM   14  C   UNL     1     -10.176   3.922  64.966  1.00  0.00    -0.137 C  
HETATM   15  N   UNL     1     -11.553   4.394  64.653  1.00  0.00    -0.880 NA 
HETATM   16  H2  UNL     1     -11.625   5.411  64.651  1.00  0.00     0.000 HD 
HETATM   17  H1  UNL     1     -11.849   3.982  63.768  1.00  0.00     0.000 HD 
BRANCH  14  18
HETATM   18  C   UNL     1      -9.245   4.317  63.810  1.00  0.00    -0.139 C  
BRANCH  18  19
HETATM   19  C   UNL     1      -8.119   3.302  63.584  1.00  0.00    -0.085 C  
BRANCH  19  20
HETATM   20  C   UNL     1      -6.747   3.983  63.542  1.00  0.00    -0.042 C  
BRANCH  20  21
HETATM   21  C   UNL     1      -6.817   5.392  64.130  1.00  0.00    -0.047 C  
HETATM   22  N   UNL     1      -5.610   6.140  63.798  1.00  0.00    -0.018 NA 
HETATM   23  H1  UNL     1      -5.656   7.080  64.190  1.00  0.00     0.000 HD 
HETATM   24  H2  UNL     1      -5.437   6.156  62.793  1.00  0.00     0.000 HD 
ENDBRANCH  20  21
ENDBRANCH  19  20
ENDBRANCH  18  19
ENDBRANCH  14  18
ENDBRANCH  12  14
ENDBRANCH   2  10
TORSDOF 8
ENDMDL
MODEL      327
REMARK 921   NORMALIZED FREE ENERGY PREDICTED BY IDOCK:   -2.66 KCAL/MOL
REMARK 922        TOTAL FREE ENERGY PREDICTED BY IDOCK:   -4.70 KCAL/MOL
REMARK 923 INTER-LIGAND FREE ENERGY PREDICTED BY IDOCK:   -4.07 KCAL/MOL
REMARK 924 INTRA-LIGAND FREE ENERGY PREDICTED BY IDOCK:   -0.63 KCAL/MOL
REMARK 927      BINDING AFFINITY PREDICTED BY RF-SCORE:    0.00 PKD
ROOT
HETATM    1  C   UNL     1      -7.739   7.868  66.596  1.00  0.00    -0.098 C  
HETATM    2  C   UNL     1      -8.495   6.545  66.474  1.00  0.00    -0.120 C  
ENDROOT
BRANCH   2   3
HETATM    3  C   UNL     1      -7.629   5.438  65.826  1.00  0.00    -0.083 C  
BRANCH   3   4
HETATM    4  C   UNL     1      -8.409   4.302  65.196  1.00  0.00    -0.114 A  
HETATM    5  C   UNL     1      -9.336   4.556  64.174  1.00  0.00    -0.079 A  
HETATM    6  C   UNL     1      -9.836   2.196  63.998  1.00  0.00    -0.121 A  
HETATM    7  C   UNL     1     -10.046   3.508  63.580  1.00  0.00    -0.191 A  
HETATM    8  C   UNL     1      -8.910   1.929  65.005  1.00  0.00    -0.117 A  
HETATM    9  C   UNL     1      -8.197   2.975  65.597  1.00  0.00    -0.088 A  
ENDBRANCH   3   4
ENDBRANCH   2   3
BRANCH   2  10
HETATM   10  N   UNL     1      -8.958   6.149  67.801  1.00  0.00    -0.116 N  
HETATM   11  H   UNL     1      -8.259   5.932  68.511  1.00  0.00     0.000 HD 
HETATM   12  C   UNL     1     -10.289   6.053  68.147  1.00  0.00    -0.205 C  
HETATM   13  O   UNL     1     -11.213   6.370  67.405  1.00  0.00    -0.352 OA 
BRANCH  12  14
HETATM   14  C   UNL     1     -10.512   5.546  69.593  1.00  0.00    -0.309 C  
HETATM   15  N   UNL     1      -9.212   5.577  70.318  1.00  0.00    -0.146 NA 
HETATM   16  H2  UNL     1      -8.773   6.497  70.292  1.00  0.00     0.000 HD 
HETATM   17  H1  UNL     1      -9.359   5.243  71.270  1.00  0.00     0.000 HD 
BRANCH  14  18
HETATM   18  C   UNL     1     -11.522   6.417  70.354  1.00  0.00    -0.458 C  
BRANCH  18  19
HETATM   19  C   UNL     1     -10.954   7.790  70.730  1.00  0.00    -0.259 C  
BRANCH  19  20
HETATM   20  C   UNL     1     -11.774   8.452  71.844  1.00  0.00    -0.398 C  
BRANCH  20  21
HETATM   21  C   UNL     1     -12.236   9.848  71.428  1.00  0.00    -0.408 C  
HETATM   22  N   UNL     1     -11.228  10.486  70.589  1.00  0.00    -0.411 NA 
HETATM   23  H1  UNL     1     -11.536  11.418  70.312  1.00  0.00     0.000 HD 
HETATM   24  H2  UNL     1     -10.985   9.911  69.783  1.00  0.00     0.000 HD 
ENDBRANCH  20  21
ENDBRANCH  19  20
ENDBRANCH  18  19
ENDBRANCH  14  18
ENDBRANCH  12  14
ENDBRANCH   2  10
TORSDOF 8
ENDMDL
MODEL      328
REMARK 921   NORMALIZED FREE ENERGY PREDICTED BY IDOCK:   -2.64 KCAL/MOL
REMARK 922        TOTAL FREE ENERGY PREDICTED BY IDOCK:   -4.67 KCAL/MOL
REMARK 923 INTER-LIGAND FREE ENERGY PREDICTED BY IDOCK:   -4.03 KCAL/MOL
REMARK 924 INTRA-LIGAND FREE ENERGY PREDICTED BY IDOCK:   -0.64 KCAL/MOL
REMARK 927      BINDING AFFINITY PREDICTED BY RF-SCORE:    0.00 PKD
ROOT
HETATM    1  C   UNL     1     -10.679   7.323  68.145  1.00  0.00    -0.191 C  
HETATM    2  C   UNL     1     -10.534   8.772  67.682  1.00  0.00    -0.244 C  
ENDROOT
BRANCH   2   3
HETATM    3  C   UNL     1     -10.785   9.778  68.831  1.00  0.00    -0.241 C  
BRANCH   3   4
HETATM    4  C   UNL     1     -10.555   9.230  70.224  1.00  0.00    -0.278 A  
HETATM    5  C   UNL     1     -11.634   8.776  70.997  1.00  0.00    -0.337 A  
HETATM    6  C   UNL     1     -10.134   8.179  72.797  1.00  0.00    -0.367 A  
HETATM    7  C   UNL     1     -11.424   8.255  72.277  1.00  0.00    -0.452 A  
HETATM    8  C   UNL     1      -9.052   8.616  72.035  1.00  0.00    -0.311 A  
HETATM    9  C   UNL     1      -9.261   9.134  70.754  1.00  0.00    -0.321 A  
ENDBRANCH   3   4
ENDBRANCH   2   3
BRANCH   2  10
HETATM   10  N   UNL     1      -9.203   8.945  67.105  1.00  0.00    -0.136 N  
HETATM   11  H   UNL     1      -8.424   8.444  67.531  1.00  0.00     0.000 HD 
HETATM   12  C   UNL     1      -8.942   9.749  66.017  1.00  0.00    -0.155 C  
HETATM   13  O   UNL     1      -9.810  10.331  65.373  1.00  0.00    -0.255 OA 
BRANCH  12  14
HETATM   14  C   UNL     1      -7.441   9.813  65.647  1.00  0.00    -0.110 C  
HETATM   15  N   UNL     1      -7.306  10.395  64.283  1.00  0.00    -0.323 NA 
HETATM   16  H2  UNL     1      -7.767  11.301  64.199  1.00  0.00     0.000 HD 
HETATM   17  H1  UNL     1      -6.317  10.437  64.039  1.00  0.00     0.000 HD 
BRANCH  14  18
HETATM   18  C   UNL     1      -6.645  10.681  66.634  1.00  0.00    -0.101 C  
BRANCH  18  19
HETATM   19  C   UNL     1      -6.610  10.088  68.047  1.00  0.00    -0.063 C  
BRANCH  19  20
HETATM   20  C   UNL     1      -5.349   9.245  68.271  1.00  0.00    -0.037 C  
BRANCH  20  21
HETATM   21  C   UNL     1      -5.685   7.753  68.296  1.00  0.00    -0.032 C  
HETATM   22  N   UNL     1      -7.109   7.559  68.541  1.00  0.00    -0.079 NA 
HETATM   23  H1  UNL     1      -7.333   6.564  68.558  1.00  0.00     0.000 HD 
HETATM   24  H2  UNL     1      -7.683   8.067  67.868  1.00  0.00     0.000 HD 
ENDBRANCH  20  21
ENDBRANCH  19  20
ENDBRANCH  18  19
ENDBRANCH  14  18
ENDBRANCH  12  14
ENDBRANCH   2  10
TORSDOF 8
ENDMDL
MODEL      329
REMARK 921   NORMALIZED FREE ENERGY PREDICTED BY IDOCK:   -2.59 KCAL/MOL
REMARK 922        TOTAL FREE ENERGY PREDICTED BY IDOCK:   -4.59 KCAL/MOL
REMARK 923 INTER-LIGAND FREE ENERGY PREDICTED BY IDOCK:   -3.33 KCAL/MOL
REMARK 924 INTRA-LIGAND FREE ENERGY PREDICTED BY IDOCK:   -1.26 KCAL/MOL
REMARK 927      BINDING AFFINITY PREDICTED BY RF-SCORE:    0.00 PKD
ROOT
HETATM    1  C   UNL     1     -11.337   5.553  72.462  1.00  0.00    -0.323 C  
HETATM    2  C   UNL     1     -10.612   6.074  71.222  1.00  0.00    -0.246 C  
ENDROOT
BRANCH   2   3
HETATM    3  C   UNL     1     -11.592   6.406  70.071  1.00  0.00    -0.446 C  
BRANCH   3   4
HETATM    4  C   UNL     1     -10.939   6.668  68.729  1.00  0.00    -0.322 A  
HETATM    5  C   UNL     1     -10.468   5.602  67.947  1.00  0.00    -0.274 A  
HETATM    6  C   UNL     1      -9.756   7.142  66.224  1.00  0.00    -0.059 A  
HETATM    7  C   UNL     1      -9.879   5.840  66.702  1.00  0.00    -0.194 A  
HETATM    8  C   UNL     1     -10.229   8.208  66.986  1.00  0.00    -0.378 A  
HETATM    9  C   UNL     1     -10.822   7.972  68.229  1.00  0.00     0.026 A  
ENDBRANCH   3   4
ENDBRANCH   2   3
BRANCH   2  10
HETATM   10  N   UNL     1      -9.821   7.242  71.601  1.00  0.00    -0.166 N  
HETATM   11  H   UNL     1     -10.316   8.084  71.896  1.00  0.00     0.000 HD 
HETATM   12  C   UNL     1      -8.443   7.269  71.582  1.00  0.00    -0.112 C  
HETATM   13  O   UNL     1      -7.743   6.294  71.327  1.00  0.00    -0.099 OA 
BRANCH  12  14
HETATM   14  C   UNL     1      -7.852   8.648  71.961  1.00  0.00    -0.048 C  
HETATM   15  N   UNL     1      -7.126   8.519  73.255  1.00  0.00    -0.305 NA 
HETATM   16  H2  UNL     1      -6.418   7.785  73.233  1.00  0.00     0.000 HD 
HETATM   17  H1  UNL     1      -6.736   9.428  73.505  1.00  0.00     0.000 HD 
BRANCH  14  18
HETATM   18  C   UNL     1      -6.874   9.164  70.896  1.00  0.00    -0.096 C  
BRANCH  18  19
HETATM   19  C   UNL     1      -7.559   9.460  69.557  1.00  0.00    -0.086 C  
BRANCH  19  20
HETATM   20  C   UNL     1      -6.831   8.783  68.390  1.00  0.00    -0.065 C  
BRANCH  20  21
HETATM   21  C   UNL     1      -6.804   9.691  67.161  1.00  0.00    -0.084 C  
HETATM   22  N   UNL     1      -6.398   8.936  65.982  1.00  0.00    -0.056 NA 
HETATM   23  H1  UNL     1      -6.379   9.542  65.162  1.00  0.00     0.000 HD 
HETATM   24  H2  UNL     1      -6.985   8.115  65.835  1.00  0.00     0.000 HD 
ENDBRANCH  20  21
ENDBRANCH  19  20
ENDBRANCH  18  19
ENDBRANCH  14  18
ENDBRANCH  12  14
ENDBRANCH   2  10
TORSDOF 8
ENDMDL
MODEL      330
REMARK 921   NORMALIZED FREE ENERGY PREDICTED BY IDOCK:   -2.58 KCAL/MOL
REMARK 922        TOTAL FREE ENERGY PREDICTED BY IDOCK:   -4.58 KCAL/MOL
REMARK 923 INTER-LIGAND FREE ENERGY PREDICTED BY IDOCK:   -3.93 KCAL/MOL
REMARK 924 INTRA-LIGAND FREE ENERGY PREDICTED BY IDOCK:   -0.64 KCAL/MOL
REMARK 927      BINDING AFFINITY PREDICTED BY RF-SCORE:    0.00 PKD
ROOT
HETATM    1  C   UNL     1     -10.469   8.350  66.880  1.00  0.00    -0.359 C  
HETATM    2  C   UNL     1      -9.932   7.357  67.910  1.00  0.00    -0.165 C  
ENDROOT
BRANCH   2   3
HETATM    3  C   UNL     1     -11.011   6.340  68.355  1.00  0.00    -0.409 C  
BRANCH   3   4
HETATM    4  C   UNL     1     -11.105   6.120  69.852  1.00  0.00    -0.481 A  
HETATM    5  C   UNL     1     -12.111   6.749  70.601  1.00  0.00    -0.371 A  
HETATM    6  C   UNL     1     -11.307   5.692  72.622  1.00  0.00    -0.356 A  
HETATM    7  C   UNL     1     -12.209   6.536  71.980  1.00  0.00    -0.343 A  
HETATM    8  C   UNL     1     -10.310   5.053  71.888  1.00  0.00    -0.270 A  
HETATM    9  C   UNL     1     -10.213   5.262  70.510  1.00  0.00    -0.334 A  
ENDBRANCH   3   4
ENDBRANCH   2   3
BRANCH   2  10
HETATM   10  N   UNL     1      -8.767   6.682  67.344  1.00  0.00    -0.118 N  
HETATM   11  H   UNL     1      -8.822   6.352  66.381  1.00  0.00     0.000 HD 
HETATM   12  C   UNL     1      -7.598   6.466  68.041  1.00  0.00    -0.103 C  
HETATM   13  O   UNL     1      -7.387   6.892  69.172  1.00  0.00    -0.088 OA 
BRANCH  12  14
HETATM   14  C   UNL     1      -6.543   5.669  67.237  1.00  0.00    -0.057 C  
HETATM   15  N   UNL     1      -5.309   5.539  68.060  1.00  0.00    -0.004 NA 
HETATM   16  H2  UNL     1      -5.493   5.127  68.975  1.00  0.00     0.000 HD 
HETATM   17  H1  UNL     1      -4.614   5.014  67.530  1.00  0.00     0.000 HD 
BRANCH  14  18
HETATM   18  C   UNL     1      -7.043   4.264  66.872  1.00  0.00    -0.067 C  
BRANCH  18  19
HETATM   19  C   UNL     1      -7.231   4.076  65.363  1.00  0.00    -0.068 C  
BRANCH  19  20
HETATM   20  C   UNL     1      -8.660   4.422  64.926  1.00  0.00    -0.130 C  
BRANCH  20  21
HETATM   21  C   UNL     1      -8.842   4.200  63.425  1.00  0.00    -0.116 C  
HETATM   22  N   UNL     1      -9.302   2.840  63.166  1.00  0.00    -0.094 NA 
HETATM   23  H1  UNL     1      -9.423   2.691  62.164  1.00  0.00     0.000 HD 
HETATM   24  H2  UNL     1     -10.149   2.620  63.689  1.00  0.00     0.000 HD 
ENDBRANCH  20  21
ENDBRANCH  19  20
ENDBRANCH  18  19
ENDBRANCH  14  18
ENDBRANCH  12  14
ENDBRANCH   2  10
TORSDOF 8
ENDMDL
MODEL      331
REMARK 921   NORMALIZED FREE ENERGY PREDICTED BY IDOCK:   -2.57 KCAL/MOL
REMARK 922        TOTAL FREE ENERGY PREDICTED BY IDOCK:   -4.56 KCAL/MOL
REMARK 923 INTER-LIGAND FREE ENERGY PREDICTED BY IDOCK:   -4.87 KCAL/MOL
REMARK 924 INTRA-LIGAND FREE ENERGY PREDICTED BY IDOCK:    0.31 KCAL/MOL
REMARK 927      BINDING AFFINITY PREDICTED BY RF-SCORE:    0.00 PKD
ROOT
HETATM    1  C   UNL     1     -11.892  13.159  68.342  1.00  0.00    -0.386 C  
HETATM    2  C   UNL     1     -10.456  12.686  68.121  1.00  0.00    -0.231 C  
ENDROOT
BRANCH   2   3
HETATM    3  C   UNL     1     -10.130  12.496  66.620  1.00  0.00    -0.241 C  
BRANCH   3   4
HETATM    4  C   UNL     1      -8.820  11.791  66.334  1.00  0.00    -0.170 A  
HETATM    5  C   UNL     1      -7.637  12.204  66.964  1.00  0.00    -0.093 A  
HETATM    6  C   UNL     1      -6.392  10.466  65.834  1.00  0.00    -0.119 A  
HETATM    7  C   UNL     1      -6.429  11.546  66.713  1.00  0.00    -0.128 A  
HETATM    8  C   UNL     1      -7.561  10.039  65.209  1.00  0.00    -0.137 A  
HETATM    9  C   UNL     1      -8.770  10.694  65.462  1.00  0.00    -0.199 A  
ENDBRANCH   3   4
ENDBRANCH   2   3
BRANCH   2  10
HETATM   10  N   UNL     1      -9.548  13.644  68.746  1.00  0.00    -0.408 N  
HETATM   11  H   UNL     1      -8.926  13.311  69.482  1.00  0.00     0.000 HD 
HETATM   12  C   UNL     1      -9.486  14.976  68.395  1.00  0.00    -0.201 C  
HETATM   13  O   UNL     1     -10.123  15.470  67.469  1.00  0.00    -0.237 OA 
BRANCH  12  14
HETATM   14  C   UNL     1      -8.491  15.791  69.255  1.00  0.00    -0.258 C  
HETATM   15  N   UNL     1      -7.648  14.847  70.039  1.00  0.00    -0.339 NA 
HETATM   16  H2  UNL     1      -7.179  14.161  69.448  1.00  0.00     0.000 HD 
HETATM   17  H1  UNL     1      -6.993  15.384  70.606  1.00  0.00     0.000 HD 
BRANCH  14  18
HETATM   18  C   UNL     1      -7.575  16.670  68.392  1.00  0.00    -0.197 C  
BRANCH  18  19
HETATM   19  C   UNL     1      -8.106  18.099  68.231  1.00  0.00    -0.306 C  
BRANCH  19  20
HETATM   20  C   UNL     1      -8.393  18.431  66.762  1.00  0.00    -0.271 C  
BRANCH  20  21
HETATM   21  C   UNL     1      -8.404  19.943  66.535  1.00  0.00    -0.336 C  
HETATM   22  N   UNL     1      -9.770  20.452  66.582  1.00  0.00    -0.614 NA 
HETATM   23  H1  UNL     1      -9.777  21.461  66.430  1.00  0.00     0.000 HD 
HETATM   24  H2  UNL     1     -10.242  20.195  67.449  1.00  0.00     0.000 HD 
ENDBRANCH  20  21
ENDBRANCH  19  20
ENDBRANCH  18  19
ENDBRANCH  14  18
ENDBRANCH  12  14
ENDBRANCH   2  10
TORSDOF 8
ENDMDL
MODEL      332
REMARK 921   NORMALIZED FREE ENERGY PREDICTED BY IDOCK:   -2.55 KCAL/MOL
REMARK 922        TOTAL FREE ENERGY PREDICTED BY IDOCK:   -4.53 KCAL/MOL
REMARK 923 INTER-LIGAND FREE ENERGY PREDICTED BY IDOCK:   -3.22 KCAL/MOL
REMARK 924 INTRA-LIGAND FREE ENERGY PREDICTED BY IDOCK:   -1.31 KCAL/MOL
REMARK 927      BINDING AFFINITY PREDICTED BY RF-SCORE:    0.00 PKD
ROOT
HETATM    1  C   UNL     1      -9.481   3.631  69.743  1.00  0.00    -0.254 C  
HETATM    2  C   UNL     1      -8.924   4.850  70.478  1.00  0.00    -0.120 C  
ENDROOT
BRANCH   2   3
HETATM    3  C   UNL     1      -7.409   5.040  70.225  1.00  0.00    -0.055 C  
BRANCH   3   4
HETATM    4  C   UNL     1      -7.060   6.078  69.177  1.00  0.00    -0.070 A  
HETATM    5  C   UNL     1      -7.156   5.770  67.812  1.00  0.00    -0.071 A  
HETATM    6  C   UNL     1      -6.449   8.008  67.227  1.00  0.00    -0.057 A  
HETATM    7  C   UNL     1      -6.849   6.731  66.843  1.00  0.00    -0.065 A  
HETATM    8  C   UNL     1      -6.360   8.330  68.580  1.00  0.00    -0.053 A  
HETATM    9  C   UNL     1      -6.670   7.372  69.549  1.00  0.00    -0.041 A  
ENDBRANCH   3   4
ENDBRANCH   2   3
BRANCH   2  10
HETATM   10  N   UNL     1      -9.684   6.028  70.068  1.00  0.00    -0.162 N  
HETATM   11  H   UNL     1      -9.500   6.424  69.147  1.00  0.00     0.000 HD 
HETATM   12  C   UNL     1     -10.635   6.635  70.859  1.00  0.00    -0.224 C  
HETATM   13  O   UNL     1     -10.999   6.199  71.947  1.00  0.00    -0.241 OA 
BRANCH  12  14
HETATM   14  C   UNL     1     -11.244   7.906  70.220  1.00  0.00    -0.200 C  
HETATM   15  N   UNL     1     -11.959   8.678  71.274  1.00  0.00    -0.289 NA 
HETATM   16  H2  UNL     1     -11.361   8.892  72.073  1.00  0.00     0.000 HD 
HETATM   17  H1  UNL     1     -12.361   9.515  70.853  1.00  0.00     0.000 HD 
BRANCH  14  18
HETATM   18  C   UNL     1     -10.167   8.805  69.596  1.00  0.00    -0.210 C  
BRANCH  18  19
HETATM   19  C   UNL     1     -10.594   9.387  68.244  1.00  0.00    -0.256 C  
BRANCH  19  20
HETATM   20  C   UNL     1     -10.159   8.487  67.081  1.00  0.00    -0.331 C  
BRANCH  20  21
HETATM   21  C   UNL     1      -9.658   9.320  65.901  1.00  0.00    -0.275 C  
HETATM   22  N   UNL     1     -10.303  10.628  65.894  1.00  0.00    -0.247 NA 
HETATM   23  H1  UNL     1      -9.970  11.183  65.107  1.00  0.00     0.000 HD 
HETATM   24  H2  UNL     1     -10.184  11.115  66.782  1.00  0.00     0.000 HD 
ENDBRANCH  20  21
ENDBRANCH  19  20
ENDBRANCH  18  19
ENDBRANCH  14  18
ENDBRANCH  12  14
ENDBRANCH   2  10
TORSDOF 8
ENDMDL
MODEL      333
REMARK 921   NORMALIZED FREE ENERGY PREDICTED BY IDOCK:   -2.53 KCAL/MOL
REMARK 922        TOTAL FREE ENERGY PREDICTED BY IDOCK:   -4.50 KCAL/MOL
REMARK 923 INTER-LIGAND FREE ENERGY PREDICTED BY IDOCK:   -3.78 KCAL/MOL
REMARK 924 INTRA-LIGAND FREE ENERGY PREDICTED BY IDOCK:   -0.71 KCAL/MOL
REMARK 927      BINDING AFFINITY PREDICTED BY RF-SCORE:    0.00 PKD
ROOT
HETATM    1  C   UNL     1     -10.712   7.254  66.879  1.00  0.00    -0.346 C  
HETATM    2  C   UNL     1      -9.972   6.980  68.187  1.00  0.00    -0.151 C  
ENDROOT
BRANCH   2   3
HETATM    3  C   UNL     1     -10.800   6.096  69.151  1.00  0.00    -0.418 C  
BRANCH   3   4
HETATM    4  C   UNL     1     -10.809   6.557  70.594  1.00  0.00    -0.317 A  
HETATM    5  C   UNL     1     -11.752   7.498  71.035  1.00  0.00    -0.317 A  
HETATM    6  C   UNL     1     -10.854   7.393  73.278  1.00  0.00    -0.417 A  
HETATM    7  C   UNL     1     -11.773   7.914  72.369  1.00  0.00    -0.423 A  
HETATM    8  C   UNL     1      -9.919   6.450  72.856  1.00  0.00    -0.186 A  
HETATM    9  C   UNL     1      -9.900   6.031  71.523  1.00  0.00    -0.197 A  
ENDBRANCH   3   4
ENDBRANCH   2   3
BRANCH   2  10
HETATM   10  N   UNL     1      -8.685   6.364  67.874  1.00  0.00    -0.116 N  
HETATM   11  H   UNL     1      -8.666   5.608  67.189  1.00  0.00     0.000 HD 
HETATM   12  C   UNL     1      -7.495   6.747  68.453  1.00  0.00    -0.095 C  
HETATM   13  O   UNL     1      -7.383   7.697  69.223  1.00  0.00    -0.083 OA 
BRANCH  12  14
HETATM   14  C   UNL     1      -6.288   5.890  68.001  1.00  0.00    -0.041 C  
HETATM   15  N   UNL     1      -6.766   4.854  67.045  1.00  0.00    -0.053 NA 
HETATM   16  H2  UNL     1      -7.275   5.255  66.258  1.00  0.00     0.000 HD 
HETATM   17  H1  UNL     1      -5.972   4.288  66.748  1.00  0.00     0.000 HD 
BRANCH  14  18
HETATM   18  C   UNL     1      -5.211   6.739  67.310  1.00  0.00    -0.009 C  
BRANCH  18  19
HETATM   19  C   UNL     1      -5.709   7.385  66.012  1.00  0.00    -0.036 C  
BRANCH  19  20
HETATM   20  C   UNL     1      -5.625   8.914  66.077  1.00  0.00    -0.045 C  
BRANCH  20  21
HETATM   21  C   UNL     1      -5.550   9.519  64.675  1.00  0.00    -0.069 C  
HETATM   22  N   UNL     1      -5.570  10.975  64.749  1.00  0.00    -0.465 NA 
HETATM   23  H1  UNL     1      -5.521  11.378  63.813  1.00  0.00     0.000 HD 
HETATM   24  H2  UNL     1      -4.836  11.335  65.358  1.00  0.00     0.000 HD 
ENDBRANCH  20  21
ENDBRANCH  19  20
ENDBRANCH  18  19
ENDBRANCH  14  18
ENDBRANCH  12  14
ENDBRANCH   2  10
TORSDOF 8
ENDMDL
MODEL      334
REMARK 921   NORMALIZED FREE ENERGY PREDICTED BY IDOCK:   -2.47 KCAL/MOL
REMARK 922        TOTAL FREE ENERGY PREDICTED BY IDOCK:   -4.41 KCAL/MOL
REMARK 923 INTER-LIGAND FREE ENERGY PREDICTED BY IDOCK:   -3.94 KCAL/MOL
REMARK 924 INTRA-LIGAND FREE ENERGY PREDICTED BY IDOCK:   -0.47 KCAL/MOL
REMARK 927      BINDING AFFINITY PREDICTED BY RF-SCORE:    0.00 PKD
ROOT
HETATM    1  C   UNL     1     -11.845  12.223  64.600  1.00  0.00    -0.435 C  
HETATM    2  C   UNL     1     -10.495  11.987  65.277  1.00  0.00    -0.284 C  
ENDROOT
BRANCH   2   3
HETATM    3  C   UNL     1      -9.391  11.611  64.259  1.00  0.00     0.045 C  
BRANCH   3   4
HETATM    4  C   UNL     1      -8.766  10.247  64.469  1.00  0.00    -0.205 A  
HETATM    5  C   UNL     1      -8.333   9.486  63.373  1.00  0.00    -0.179 A  
HETATM    6  C   UNL     1      -7.573   7.730  64.852  1.00  0.00    -0.102 A  
HETATM    7  C   UNL     1      -7.742   8.234  63.564  1.00  0.00    -0.142 A  
HETATM    8  C   UNL     1      -7.988   8.480  65.950  1.00  0.00    -0.105 A  
HETATM    9  C   UNL     1      -8.576   9.734  65.760  1.00  0.00    -0.147 A  
ENDBRANCH   3   4
ENDBRANCH   2   3
BRANCH   2  10
HETATM   10  N   UNL     1     -10.137  13.186  66.031  1.00  0.00    -0.282 N  
HETATM   11  H   UNL     1      -9.528  13.872  65.585  1.00  0.00     0.000 HD 
HETATM   12  C   UNL     1     -10.576  13.440  67.312  1.00  0.00    -0.255 C  
HETATM   13  O   UNL     1     -11.377  12.731  67.914  1.00  0.00    -0.256 OA 
BRANCH  12  14
HETATM   14  C   UNL     1      -9.997  14.744  67.912  1.00  0.00    -0.213 C  
HETATM   15  N   UNL     1      -9.912  14.596  69.391  1.00  0.00    -0.416 NA 
HETATM   16  H2  UNL     1      -9.382  13.771  69.670  1.00  0.00     0.000 HD 
HETATM   17  H1  UNL     1      -9.531  15.455  69.786  1.00  0.00     0.000 HD 
BRANCH  14  18
HETATM   18  C   UNL     1      -8.595  15.051  67.366  1.00  0.00    -0.208 C  
BRANCH  18  19
HETATM   19  C   UNL     1      -8.223  16.533  67.493  1.00  0.00    -0.170 C  
BRANCH  19  20
HETATM   20  C   UNL     1      -6.853  16.824  66.870  1.00  0.00    -0.255 C  
BRANCH  20  21
HETATM   21  C   UNL     1      -6.092  17.871  67.685  1.00  0.00    -0.156 C  
HETATM   22  N   UNL     1      -6.220  19.185  67.066  1.00  0.00    -0.178 NA 
HETATM   23  H1  UNL     1      -5.712  19.883  67.609  1.00  0.00     0.000 HD 
HETATM   24  H2  UNL     1      -7.196  19.447  66.928  1.00  0.00     0.000 HD 
ENDBRANCH  20  21
ENDBRANCH  19  20
ENDBRANCH  18  19
ENDBRANCH  14  18
ENDBRANCH  12  14
ENDBRANCH   2  10
TORSDOF 8
ENDMDL
MODEL      335
REMARK 921   NORMALIZED FREE ENERGY PREDICTED BY IDOCK:   -2.41 KCAL/MOL
REMARK 922        TOTAL FREE ENERGY PREDICTED BY IDOCK:   -4.32 KCAL/MOL
REMARK 923 INTER-LIGAND FREE ENERGY PREDICTED BY IDOCK:   -3.43 KCAL/MOL
REMARK 924 INTRA-LIGAND FREE ENERGY PREDICTED BY IDOCK:   -0.89 KCAL/MOL
REMARK 927      BINDING AFFINITY PREDICTED BY RF-SCORE:    0.00 PKD
ROOT
HETATM    1  C   UNL     1     -11.997  13.362  68.899  1.00  0.00    -0.362 C  
HETATM    2  C   UNL     1     -10.981  12.448  68.216  1.00  0.00    -0.236 C  
ENDROOT
BRANCH   2   3
HETATM    3  C   UNL     1     -11.375  12.128  66.754  1.00  0.00    -0.398 C  
BRANCH   3   4
HETATM    4  C   UNL     1     -10.542  11.052  66.086  1.00  0.00    -0.288 A  
HETATM    5  C   UNL     1     -10.519   9.748  66.603  1.00  0.00    -0.233 A  
HETATM    6  C   UNL     1      -9.027   9.043  64.835  1.00  0.00    -0.170 A  
HETATM    7  C   UNL     1      -9.764   8.750  65.980  1.00  0.00    -0.276 A  
HETATM    8  C   UNL     1      -9.050  10.331  64.306  1.00  0.00    -0.278 A  
HETATM    9  C   UNL     1      -9.808  11.329  64.925  1.00  0.00    -0.310 A  
ENDBRANCH   3   4
ENDBRANCH   2   3
BRANCH   2  10
HETATM   10  N   UNL     1      -9.665  13.078  68.287  1.00  0.00    -0.226 N  
HETATM   11  H   UNL     1      -9.609  14.090  68.175  1.00  0.00     0.000 HD 
HETATM   12  C   UNL     1      -8.496  12.381  68.496  1.00  0.00    -0.069 C  
HETATM   13  O   UNL     1      -8.449  11.176  68.728  1.00  0.00    -0.156 OA 
BRANCH  12  14
HETATM   14  C   UNL     1      -7.233  13.275  68.459  1.00  0.00    -0.110 C  
HETATM   15  N   UNL     1      -7.623  14.638  68.004  1.00  0.00    -0.115 NA 
HETATM   16  H2  UNL     1      -8.368  15.040  68.573  1.00  0.00     0.000 HD 
HETATM   17  H1  UNL     1      -6.791  15.227  67.979  1.00  0.00     0.000 HD 
BRANCH  14  18
HETATM   18  C   UNL     1      -6.570  13.386  69.839  1.00  0.00     0.081 C  
BRANCH  18  19
HETATM   19  C   UNL     1      -5.253  12.607  69.927  1.00  0.00    -0.087 C  
BRANCH  19  20
HETATM   20  C   UNL     1      -5.286  11.571  71.057  1.00  0.00    -0.096 C  
BRANCH  20  21
HETATM   21  C   UNL     1      -5.156  10.152  70.504  1.00  0.00    -0.046 C  
HETATM   22  N   UNL     1      -6.453   9.664  70.049  1.00  0.00    -0.058 NA 
HETATM   23  H1  UNL     1      -6.366   8.717  69.681  1.00  0.00     0.000 HD 
HETATM   24  H2  UNL     1      -6.882  10.298  69.375  1.00  0.00     0.000 HD 
ENDBRANCH  20  21
ENDBRANCH  19  20
ENDBRANCH  18  19
ENDBRANCH  14  18
ENDBRANCH  12  14
ENDBRANCH   2  10
TORSDOF 8
ENDMDL
MODEL      336
REMARK 921   NORMALIZED FREE ENERGY PREDICTED BY IDOCK:   -2.34 KCAL/MOL
REMARK 922        TOTAL FREE ENERGY PREDICTED BY IDOCK:   -4.23 KCAL/MOL
REMARK 923 INTER-LIGAND FREE ENERGY PREDICTED BY IDOCK:   -5.28 KCAL/MOL
REMARK 924 INTRA-LIGAND FREE ENERGY PREDICTED BY IDOCK:    1.05 KCAL/MOL
REMARK 927      BINDING AFFINITY PREDICTED BY RF-SCORE:    0.00 PKD
ROOT
HETATM    1  C   UNL     1     -11.614  14.978  66.676  1.00  0.00    -0.201 C  
HETATM    2  C   UNL     1     -11.471  15.840  67.930  1.00  0.00    -0.221 C  
ENDROOT
BRANCH   2   3
HETATM    3  C   UNL     1     -10.951  15.026  69.140  1.00  0.00    -0.265 C  
BRANCH   3   4
HETATM    4  C   UNL     1     -10.824  13.535  68.901  1.00  0.00    -0.255 A  
HETATM    5  C   UNL     1     -11.810  12.653  69.369  1.00  0.00    -0.356 A  
HETATM    6  C   UNL     1     -10.613  10.771  68.433  1.00  0.00    -0.228 A  
HETATM    7  C   UNL     1     -11.703  11.279  69.137  1.00  0.00    -0.410 A  
HETATM    8  C   UNL     1      -9.633  11.638  67.954  1.00  0.00    -0.180 A  
HETATM    9  C   UNL     1      -9.741  13.012  68.182  1.00  0.00    -0.228 A  
ENDBRANCH   3   4
ENDBRANCH   2   3
BRANCH   2  10
HETATM   10  N   UNL     1     -10.587  16.962  67.625  1.00  0.00    -0.335 N  
HETATM   11  H   UNL     1     -10.483  17.698  68.324  1.00  0.00     0.000 HD 
HETATM   12  C   UNL     1      -9.886  17.082  66.445  1.00  0.00    -0.299 C  
HETATM   13  O   UNL     1      -9.867  16.221  65.570  1.00  0.00    -0.489 OA 
BRANCH  12  14
HETATM   14  C   UNL     1      -9.078  18.397  66.342  1.00  0.00    -0.261 C  
HETATM   15  N   UNL     1      -9.865  19.496  66.967  1.00  0.00    -0.338 NA 
HETATM   16  H2  UNL     1     -10.139  19.281  67.926  1.00  0.00     0.000 HD 
HETATM   17  H1  UNL     1      -9.332  20.362  66.899  1.00  0.00     0.000 HD 
BRANCH  14  18
HETATM   18  C   UNL     1      -7.723  18.293  67.057  1.00  0.00    -0.232 C  
BRANCH  18  19
HETATM   19  C   UNL     1      -7.851  18.377  68.582  1.00  0.00    -0.320 C  
BRANCH  19  20
HETATM   20  C   UNL     1      -6.551  17.962  69.280  1.00  0.00    -0.235 C  
BRANCH  20  21
HETATM   21  C   UNL     1      -6.446  16.440  69.382  1.00  0.00    -0.206 C  
HETATM   22  N   UNL     1      -7.775  15.840  69.385  1.00  0.00    -0.226 NA 
HETATM   23  H1  UNL     1      -7.705  14.825  69.453  1.00  0.00     0.000 HD 
HETATM   24  H2  UNL     1      -8.325  16.130  68.576  1.00  0.00     0.000 HD 
ENDBRANCH  20  21
ENDBRANCH  19  20
ENDBRANCH  18  19
ENDBRANCH  14  18
ENDBRANCH  12  14
ENDBRANCH   2  10
TORSDOF 8
ENDMDL
MODEL      337
REMARK 921   NORMALIZED FREE ENERGY PREDICTED BY IDOCK:   -2.33 KCAL/MOL
REMARK 922        TOTAL FREE ENERGY PREDICTED BY IDOCK:   -4.20 KCAL/MOL
REMARK 923 INTER-LIGAND FREE ENERGY PREDICTED BY IDOCK:   -5.15 KCAL/MOL
REMARK 924 INTRA-LIGAND FREE ENERGY PREDICTED BY IDOCK:    0.95 KCAL/MOL
REMARK 927      BINDING AFFINITY PREDICTED BY RF-SCORE:    0.00 PKD
ROOT
HETATM    1  C   UNL     1      -7.177  15.560  69.444  1.00  0.00    -0.204 C  
HETATM    2  C   UNL     1      -8.592  15.254  68.955  1.00  0.00    -0.226 C  
ENDROOT
BRANCH   2   3
HETATM    3  C   UNL     1      -9.149  16.375  68.045  1.00  0.00    -0.200 C  
BRANCH   3   4
HETATM    4  C   UNL     1      -8.122  17.384  67.571  1.00  0.00    -0.205 A  
HETATM    5  C   UNL     1      -7.564  17.282  66.288  1.00  0.00    -0.360 A  
HETATM    6  C   UNL     1      -6.241  19.270  66.671  1.00  0.00    -0.184 A  
HETATM    7  C   UNL     1      -6.627  18.219  65.842  1.00  0.00    -0.306 A  
HETATM    8  C   UNL     1      -6.796  19.389  67.944  1.00  0.00    -0.274 A  
HETATM    9  C   UNL     1      -7.735  18.454  68.389  1.00  0.00    -0.314 A  
ENDBRANCH   3   4
ENDBRANCH   2   3
BRANCH   2  10
HETATM   10  N   UNL     1      -8.579  13.967  68.266  1.00  0.00    -0.173 N  
HETATM   11  H   UNL     1      -8.246  13.149  68.777  1.00  0.00     0.000 HD 
HETATM   12  C   UNL     1      -8.990  13.796  66.962  1.00  0.00    -0.238 C  
HETATM   13  O   UNL     1      -9.487  14.686  66.279  1.00  0.00    -0.286 OA 
BRANCH  12  14
HETATM   14  C   UNL     1      -8.811  12.348  66.447  1.00  0.00    -0.046 C  
HETATM   15  N   UNL     1      -7.502  11.826  66.927  1.00  0.00    -0.256 NA 
HETATM   16  H2  UNL     1      -7.403  11.893  67.940  1.00  0.00     0.000 HD 
HETATM   17  H1  UNL     1      -7.383  10.872  66.587  1.00  0.00     0.000 HD 
BRANCH  14  18
HETATM   18  C   UNL     1      -9.926  11.419  66.949  1.00  0.00    -0.235 C  
BRANCH  18  19
HETATM   19  C   UNL     1     -11.235  11.593  66.171  1.00  0.00    -0.314 C  
BRANCH  19  20
HETATM   20  C   UNL     1     -12.155  12.620  66.841  1.00  0.00    -0.213 C  
BRANCH  20  21
HETATM   21  C   UNL     1     -12.675  13.635  65.823  1.00  0.00    -0.416 C  
HETATM   22  N   UNL     1     -12.728  13.038  64.493  1.00  0.00    -0.701 NA 
HETATM   23  H1  UNL     1     -13.074  13.715  63.814  1.00  0.00     0.000 HD 
HETATM   24  H2  UNL     1     -13.275  12.177  64.485  1.00  0.00     0.000 HD 
ENDBRANCH  20  21
ENDBRANCH  19  20
ENDBRANCH  18  19
ENDBRANCH  14  18
ENDBRANCH  12  14
ENDBRANCH   2  10
TORSDOF 8
ENDMDL
MODEL      338
REMARK 921   NORMALIZED FREE ENERGY PREDICTED BY IDOCK:   -2.30 KCAL/MOL
REMARK 922        TOTAL FREE ENERGY PREDICTED BY IDOCK:   -4.16 KCAL/MOL
REMARK 923 INTER-LIGAND FREE ENERGY PREDICTED BY IDOCK:   -3.85 KCAL/MOL
REMARK 924 INTRA-LIGAND FREE ENERGY PREDICTED BY IDOCK:   -0.32 KCAL/MOL
REMARK 927      BINDING AFFINITY PREDICTED BY RF-SCORE:    0.00 PKD
ROOT
HETATM    1  C   UNL     1      -6.008   9.197  68.076  1.00  0.00    -0.049 C  
HETATM    2  C   UNL     1      -6.591  10.374  67.294  1.00  0.00    -0.068 C  
ENDROOT
BRANCH   2   3
HETATM    3  C   UNL     1      -5.743  10.721  66.047  1.00  0.00    -0.140 C  
BRANCH   3   4
HETATM    4  C   UNL     1      -6.022   9.867  64.826  1.00  0.00    -0.099 A  
HETATM    5  C   UNL     1      -5.488   8.573  64.727  1.00  0.00    -0.043 A  
HETATM    6  C   UNL     1      -6.561   8.264  62.581  1.00  0.00    -0.087 A  
HETATM    7  C   UNL     1      -5.756   7.777  63.609  1.00  0.00    -0.053 A  
HETATM    8  C   UNL     1      -7.106   9.543  62.673  1.00  0.00    -0.102 A  
HETATM    9  C   UNL     1      -6.842  10.338  63.792  1.00  0.00    -0.061 A  
ENDBRANCH   3   4
ENDBRANCH   2   3
BRANCH   2  10
HETATM   10  N   UNL     1      -7.969  10.055  66.929  1.00  0.00    -0.112 N  
HETATM   11  H   UNL     1      -8.155   9.152  66.493  1.00  0.00     0.000 HD 
HETATM   12  C   UNL     1      -9.031  10.907  67.142  1.00  0.00    -0.138 C  
HETATM   13  O   UNL     1      -8.941  11.979  67.733  1.00  0.00    -0.163 OA 
BRANCH  12  14
HETATM   14  C   UNL     1     -10.374  10.359  66.602  1.00  0.00    -0.231 C  
HETATM   15  N   UNL     1     -11.427  10.566  67.634  1.00  0.00    -0.591 NA 
HETATM   16  H2  UNL     1     -11.495  11.539  67.931  1.00  0.00     0.000 HD 
HETATM   17  H1  UNL     1     -12.311  10.205  67.278  1.00  0.00     0.000 HD 
BRANCH  14  18
HETATM   18  C   UNL     1     -10.803  11.070  65.310  1.00  0.00    -0.172 C  
BRANCH  18  19
HETATM   19  C   UNL     1      -9.950  12.306  65.003  1.00  0.00    -0.227 C  
BRANCH  19  20
HETATM   20  C   UNL     1     -10.697  13.296  64.102  1.00  0.00    -0.350 C  
BRANCH  20  21
HETATM   21  C   UNL     1     -11.335  14.414  64.926  1.00  0.00    -0.380 C  
HETATM   22  N   UNL     1     -11.202  15.691  64.235  1.00  0.00    -0.781 NA 
HETATM   23  H1  UNL     1     -11.627  16.438  64.785  1.00  0.00     0.000 HD 
HETATM   24  H2  UNL     1     -11.581  15.653  63.289  1.00  0.00     0.000 HD 
ENDBRANCH  20  21
ENDBRANCH  19  20
ENDBRANCH  18  19
ENDBRANCH  14  18
ENDBRANCH  12  14
ENDBRANCH   2  10
TORSDOF 8
ENDMDL
MODEL      339
REMARK 921   NORMALIZED FREE ENERGY PREDICTED BY IDOCK:   -2.27 KCAL/MOL
REMARK 922        TOTAL FREE ENERGY PREDICTED BY IDOCK:   -4.12 KCAL/MOL
REMARK 923 INTER-LIGAND FREE ENERGY PREDICTED BY IDOCK:   -3.62 KCAL/MOL
REMARK 924 INTRA-LIGAND FREE ENERGY PREDICTED BY IDOCK:   -0.50 KCAL/MOL
REMARK 927      BINDING AFFINITY PREDICTED BY RF-SCORE:    0.00 PKD
ROOT
HETATM    1  C   UNL     1      -9.057   7.474  67.401  1.00  0.00    -0.135 C  
HETATM    2  C   UNL     1      -9.562   8.143  68.679  1.00  0.00    -0.149 C  
ENDROOT
BRANCH   2   3
HETATM    3  C   UNL     1      -8.765   7.692  69.927  1.00  0.00    -0.139 C  
BRANCH   3   4
HETATM    4  C   UNL     1      -9.599   7.066  71.026  1.00  0.00    -0.170 A  
HETATM    5  C   UNL     1      -9.795   5.677  71.067  1.00  0.00    -0.231 A  
HETATM    6  C   UNL     1     -11.115   5.893  73.082  1.00  0.00    -0.259 A  
HETATM    7  C   UNL     1     -10.551   5.095  72.089  1.00  0.00    -0.273 A  
HETATM    8  C   UNL     1     -10.919   7.272  73.059  1.00  0.00    -0.388 A  
HETATM    9  C   UNL     1     -10.160   7.854  72.040  1.00  0.00    -0.260 A  
ENDBRANCH   3   4
ENDBRANCH   2   3
BRANCH   2  10
HETATM   10  N   UNL     1      -9.498   9.592  68.502  1.00  0.00    -0.141 N  
HETATM   11  H   UNL     1      -8.826  10.117  69.061  1.00  0.00     0.000 HD 
HETATM   12  C   UNL     1     -10.298  10.289  67.622  1.00  0.00    -0.220 C  
HETATM   13  O   UNL     1     -11.080   9.757  66.841  1.00  0.00    -0.041 OA 
BRANCH  12  14
HETATM   14  C   UNL     1     -10.081  11.820  67.677  1.00  0.00    -0.193 C  
HETATM   15  N   UNL     1      -9.620  12.191  69.043  1.00  0.00    -0.392 NA 
HETATM   16  H2  UNL     1      -8.791  11.671  69.330  1.00  0.00     0.000 HD 
HETATM   17  H1  UNL     1      -9.478  13.200  69.080  1.00  0.00     0.000 HD 
BRANCH  14  18
HETATM   18  C   UNL     1      -9.031  12.286  66.659  1.00  0.00    -0.189 C  
BRANCH  18  19
HETATM   19  C   UNL     1      -7.745  11.454  66.712  1.00  0.00    -0.150 C  
BRANCH  19  20
HETATM   20  C   UNL     1      -6.556  12.286  67.205  1.00  0.00    -0.146 C  
BRANCH  20  21
HETATM   21  C   UNL     1      -6.302  12.050  68.694  1.00  0.00    -0.059 C  
HETATM   22  N   UNL     1      -7.033  10.874  69.152  1.00  0.00    -0.085 NA 
HETATM   23  H1  UNL     1      -6.864  10.717  70.146  1.00  0.00     0.000 HD 
HETATM   24  H2  UNL     1      -6.813  10.049  68.594  1.00  0.00     0.000 HD 
ENDBRANCH  20  21
ENDBRANCH  19  20
ENDBRANCH  18  19
ENDBRANCH  14  18
ENDBRANCH  12  14
ENDBRANCH   2  10
TORSDOF 8
ENDMDL
MODEL      340
REMARK 921   NORMALIZED FREE ENERGY PREDICTED BY IDOCK:   -2.24 KCAL/MOL
REMARK 922        TOTAL FREE ENERGY PREDICTED BY IDOCK:   -4.08 KCAL/MOL
REMARK 923 INTER-LIGAND FREE ENERGY PREDICTED BY IDOCK:   -3.91 KCAL/MOL
REMARK 924 INTRA-LIGAND FREE ENERGY PREDICTED BY IDOCK:   -0.18 KCAL/MOL
REMARK 927      BINDING AFFINITY PREDICTED BY RF-SCORE:    0.00 PKD
ROOT
HETATM    1  C   UNL     1     -11.314   3.425  73.300  1.00  0.00    -0.143 C  
HETATM    2  C   UNL     1     -10.633   4.794  73.310  1.00  0.00    -0.226 C  
ENDROOT
BRANCH   2   3
HETATM    3  C   UNL     1      -9.102   4.681  73.506  1.00  0.00    -0.113 C  
BRANCH   3   4
HETATM    4  C   UNL     1      -8.346   5.991  73.411  1.00  0.00    -0.117 A  
HETATM    5  C   UNL     1      -7.374   6.181  72.418  1.00  0.00    -0.093 A  
HETATM    6  C   UNL     1      -6.964   8.430  73.207  1.00  0.00    -0.112 A  
HETATM    7  C   UNL     1      -6.686   7.394  72.318  1.00  0.00    -0.058 A  
HETATM    8  C   UNL     1      -7.935   8.258  74.191  1.00  0.00    -0.282 A  
HETATM    9  C   UNL     1      -8.626   7.047  74.289  1.00  0.00    -0.206 A  
ENDBRANCH   3   4
ENDBRANCH   2   3
BRANCH   2  10
HETATM   10  N   UNL     1     -10.960   5.485  72.066  1.00  0.00    -0.236 N  
HETATM   11  H   UNL     1     -11.480   6.361  72.123  1.00  0.00     0.000 HD 
HETATM   12  C   UNL     1     -10.607   5.019  70.818  1.00  0.00    -0.078 C  
HETATM   13  O   UNL     1      -9.911   4.026  70.631  1.00  0.00    -0.198 OA 
BRANCH  12  14
HETATM   14  C   UNL     1     -11.134   5.901  69.661  1.00  0.00    -0.343 C  
HETATM   15  N   UNL     1     -12.153   6.843  70.201  1.00  0.00    -0.641 NA 
HETATM   16  H2  UNL     1     -11.797   7.396  70.981  1.00  0.00     0.000 HD 
HETATM   17  H1  UNL     1     -12.500   7.424  69.439  1.00  0.00     0.000 HD 
BRANCH  14  18
HETATM   18  C   UNL     1     -10.009   6.715  69.004  1.00  0.00    -0.162 C  
BRANCH  18  19
HETATM   19  C   UNL     1     -10.502   7.555  67.820  1.00  0.00    -0.288 C  
BRANCH  19  20
HETATM   20  C   UNL     1      -9.512   8.673  67.473  1.00  0.00    -0.181 C  
BRANCH  20  21
HETATM   21  C   UNL     1     -10.093   9.610  66.415  1.00  0.00    -0.247 C  
HETATM   22  N   UNL     1      -9.106   9.872  65.373  1.00  0.00    -0.180 NA 
HETATM   23  H1  UNL     1      -9.494  10.498  64.667  1.00  0.00     0.000 HD 
HETATM   24  H2  UNL     1      -8.749   9.010  64.963  1.00  0.00     0.000 HD 
ENDBRANCH  20  21
ENDBRANCH  19  20
ENDBRANCH  18  19
ENDBRANCH  14  18
ENDBRANCH  12  14
ENDBRANCH   2  10
TORSDOF 8
ENDMDL
MODEL      341
REMARK 921   NORMALIZED FREE ENERGY PREDICTED BY IDOCK:   -1.78 KCAL/MOL
REMARK 922        TOTAL FREE ENERGY PREDICTED BY IDOCK:   -3.40 KCAL/MOL
REMARK 923 INTER-LIGAND FREE ENERGY PREDICTED BY IDOCK:   -1.98 KCAL/MOL
REMARK 924 INTRA-LIGAND FREE ENERGY PREDICTED BY IDOCK:   -1.42 KCAL/MOL
REMARK 927      BINDING AFFINITY PREDICTED BY RF-SCORE:    0.00 PKD
ROOT
HETATM    1  C   UNL     1      -9.373   1.487  73.428  1.00  0.00    -0.077 C  
HETATM    2  C   UNL     1      -8.910   2.941  73.344  1.00  0.00    -0.079 C  
ENDROOT
BRANCH   2   3
HETATM    3  C   UNL     1      -7.372   3.069  73.464  1.00  0.00    -0.050 C  
BRANCH   3   4
HETATM    4  C   UNL     1      -6.660   3.447  72.181  1.00  0.00    -0.015 A  
HETATM    5  C   UNL     1      -6.216   4.762  71.974  1.00  0.00    -0.025 A  
HETATM    6  C   UNL     1      -5.307   4.148  69.819  1.00  0.00    -0.008 A  
HETATM    7  C   UNL     1      -5.545   5.109  70.798  1.00  0.00    -0.012 A  
HETATM    8  C   UNL     1      -5.732   2.836  70.017  1.00  0.00    -0.018 A  
HETATM    9  C   UNL     1      -6.400   2.486  71.194  1.00  0.00    -0.019 A  
ENDBRANCH   3   4
ENDBRANCH   2   3
BRANCH   2  10
HETATM   10  N   UNL     1      -9.395   3.513  72.091  1.00  0.00    -0.112 N  
HETATM   11  H   UNL     1      -9.217   3.001  71.227  1.00  0.00     0.000 HD 
HETATM   12  C   UNL     1     -10.080   4.706  72.012  1.00  0.00    -0.197 C  
HETATM   13  O   UNL     1     -10.424   5.363  72.990  1.00  0.00    -0.185 OA 
BRANCH  12  14
HETATM   14  C   UNL     1     -10.422   5.123  70.561  1.00  0.00    -0.208 C  
HETATM   15  N   UNL     1     -10.182   6.584  70.412  1.00  0.00    -0.190 NA 
HETATM   16  H2  UNL     1      -9.235   6.853  70.682  1.00  0.00     0.000 HD 
HETATM   17  H1  UNL     1     -10.407   6.859  69.457  1.00  0.00     0.000 HD 
BRANCH  14  18
HETATM   18  C   UNL     1      -9.561   4.374  69.533  1.00  0.00    -0.271 C  
BRANCH  18  19
HETATM   19  C   UNL     1      -8.612   5.303  68.769  1.00  0.00    -0.091 C  
BRANCH  19  20
HETATM   20  C   UNL     1      -8.199   4.700  67.421  1.00  0.00    -0.101 C  
BRANCH  20  21
HETATM   21  C   UNL     1      -9.382   4.004  66.747  1.00  0.00    -0.183 C  
HETATM   22  N   UNL     1      -8.951   2.753  66.133  1.00  0.00    -0.144 NA 
HETATM   23  H1  UNL     1      -9.740   2.290  65.683  1.00  0.00     0.000 HD 
HETATM   24  H2  UNL     1      -8.482   2.143  66.803  1.00  0.00     0.000 HD 
ENDBRANCH  20  21
ENDBRANCH  19  20
ENDBRANCH  18  19
ENDBRANCH  14  18
ENDBRANCH  12  14
ENDBRANCH   2  10
TORSDOF 8
ENDMDL
MODEL      342
REMARK 921   NORMALIZED FREE ENERGY PREDICTED BY IDOCK:   -1.49 KCAL/MOL
REMARK 922        TOTAL FREE ENERGY PREDICTED BY IDOCK:   -2.97 KCAL/MOL
REMARK 923 INTER-LIGAND FREE ENERGY PREDICTED BY IDOCK:   -2.76 KCAL/MOL
REMARK 924 INTRA-LIGAND FREE ENERGY PREDICTED BY IDOCK:   -0.21 KCAL/MOL
REMARK 927      BINDING AFFINITY PREDICTED BY RF-SCORE:    0.00 PKD
ROOT
HETATM    1  C   UNL     1     -10.615   2.723  72.930  1.00  0.00    -0.220 C  
HETATM    2  C   UNL     1      -9.824   4.030  72.906  1.00  0.00    -0.138 C  
ENDROOT
BRANCH   2   3
HETATM    3  C   UNL     1      -8.297   3.785  72.846  1.00  0.00    -0.094 C  
BRANCH   3   4
HETATM    4  C   UNL     1      -7.443   5.029  72.986  1.00  0.00    -0.092 A  
HETATM    5  C   UNL     1      -7.480   5.788  74.165  1.00  0.00    -0.092 A  
HETATM    6  C   UNL     1      -5.836   7.318  73.268  1.00  0.00    -0.049 A  
HETATM    7  C   UNL     1      -6.682   6.928  74.303  1.00  0.00    -0.082 A  
HETATM    8  C   UNL     1      -5.782   6.567  72.095  1.00  0.00    -0.037 A  
HETATM    9  C   UNL     1      -6.576   5.425  71.958  1.00  0.00    -0.056 A  
ENDBRANCH   3   4
ENDBRANCH   2   3
BRANCH   2  10
HETATM   10  N   UNL     1     -10.279   4.829  71.771  1.00  0.00    -0.199 N  
HETATM   11  H   UNL     1     -10.823   5.671  71.961  1.00  0.00     0.000 HD 
HETATM   12  C   UNL     1     -10.014   4.508  70.457  1.00  0.00    -0.208 C  
HETATM   13  O   UNL     1      -9.301   3.571  70.112  1.00  0.00    -0.142 OA 
BRANCH  12  14
HETATM   14  C   UNL     1     -10.668   5.479  69.445  1.00  0.00    -0.242 C  
HETATM   15  N   UNL     1     -11.633   6.351  70.169  1.00  0.00    -0.427 NA 
HETATM   16  H2  UNL     1     -11.203   6.840  70.955  1.00  0.00     0.000 HD 
HETATM   17  H1  UNL     1     -12.064   6.990  69.502  1.00  0.00     0.000 HD 
BRANCH  14  18
HETATM   18  C   UNL     1      -9.627   6.367  68.750  1.00  0.00    -0.127 C  
BRANCH  18  19
HETATM   19  C   UNL     1      -9.581   6.150  67.233  1.00  0.00    -0.126 C  
BRANCH  19  20
HETATM   20  C   UNL     1      -9.104   7.408  66.498  1.00  0.00    -0.195 C  
BRANCH  20  21
HETATM   21  C   UNL     1      -8.187   7.045  65.330  1.00  0.00    -0.133 C  
HETATM   22  N   UNL     1      -7.821   5.634  65.393  1.00  0.00    -0.097 NA 
HETATM   23  H1  UNL     1      -7.209   5.392  64.614  1.00  0.00     0.000 HD 
HETATM   24  H2  UNL     1      -8.642   5.030  65.434  1.00  0.00     0.000 HD 
ENDBRANCH  20  21
ENDBRANCH  19  20
ENDBRANCH  18  19
ENDBRANCH  14  18
ENDBRANCH  12  14
ENDBRANCH   2  10
TORSDOF 8
ENDMDL
MODEL      343
REMARK 921   NORMALIZED FREE ENERGY PREDICTED BY IDOCK:   -1.04 KCAL/MOL
REMARK 922        TOTAL FREE ENERGY PREDICTED BY IDOCK:   -2.31 KCAL/MOL
REMARK 923 INTER-LIGAND FREE ENERGY PREDICTED BY IDOCK:   -4.17 KCAL/MOL
REMARK 924 INTRA-LIGAND FREE ENERGY PREDICTED BY IDOCK:    1.86 KCAL/MOL
REMARK 927      BINDING AFFINITY PREDICTED BY RF-SCORE:    0.00 PKD
ROOT
HETATM    1  C   UNL     1      -9.740  11.322  68.395  1.00  0.00    -0.194 C  
HETATM    2  C   UNL     1     -10.560  10.047  68.203  1.00  0.00    -0.227 C  
ENDROOT
BRANCH   2   3
HETATM    3  C   UNL     1      -9.662   8.798  68.031  1.00  0.00    -0.183 C  
BRANCH   3   4
HETATM    4  C   UNL     1      -8.610   8.910  66.947  1.00  0.00    -0.121 A  
HETATM    5  C   UNL     1      -8.246   7.787  66.190  1.00  0.00    -0.123 A  
HETATM    6  C   UNL     1      -6.683   9.118  64.911  1.00  0.00    -0.073 A  
HETATM    7  C   UNL     1      -7.286   7.891  65.178  1.00  0.00    -0.061 A  
HETATM    8  C   UNL     1      -7.043  10.244  65.649  1.00  0.00    -0.137 A  
HETATM    9  C   UNL     1      -8.005  10.142  66.657  1.00  0.00    -0.116 A  
ENDBRANCH   3   4
ENDBRANCH   2   3
BRANCH   2  10
HETATM   10  N   UNL     1     -11.464   9.900  69.341  1.00  0.00    -0.441 N  
HETATM   11  H   UNL     1     -11.761   8.960  69.602  1.00  0.00     0.000 HD 
HETATM   12  C   UNL     1     -11.939  10.961  70.080  1.00  0.00    -0.350 C  
HETATM   13  O   UNL     1     -11.585  12.124  69.912  1.00  0.00    -0.285 OA 
BRANCH  12  14
HETATM   14  C   UNL     1     -12.936  10.541  71.187  1.00  0.00    -0.411 C  
HETATM   15  N   UNL     1     -13.979   9.666  70.586  1.00  0.00    -0.336 NA 
HETATM   16  H2  UNL     1     -13.581   8.864  70.097  1.00  0.00     0.000 HD 
HETATM   17  H1  UNL     1     -14.637   9.389  71.315  1.00  0.00     0.000 HD 
BRANCH  14  18
HETATM   18  C   UNL     1     -12.241   9.774  72.321  1.00  0.00     0.049 C  
BRANCH  18  19
HETATM   19  C   UNL     1     -10.973   9.050  71.856  1.00  0.00    -0.423 C  
BRANCH  19  20
HETATM   20  C   UNL     1     -10.997   7.567  72.243  1.00  0.00    -0.307 C  
BRANCH  20  21
HETATM   21  C   UNL     1     -10.958   6.677  71.001  1.00  0.00    -0.259 C  
HETATM   22  N   UNL     1      -9.580   6.342  70.661  1.00  0.00    -0.172 NA 
HETATM   23  H1  UNL     1      -9.553   5.748  69.832  1.00  0.00     0.000 HD 
HETATM   24  H2  UNL     1      -9.086   5.919  71.448  1.00  0.00     0.000 HD 
ENDBRANCH  20  21
ENDBRANCH  19  20
ENDBRANCH  18  19
ENDBRANCH  14  18
ENDBRANCH  12  14
ENDBRANCH   2  10
TORSDOF 8
ENDMDL
MODEL      344
REMARK 921   NORMALIZED FREE ENERGY PREDICTED BY IDOCK:   -0.93 KCAL/MOL
REMARK 922        TOTAL FREE ENERGY PREDICTED BY IDOCK:   -2.16 KCAL/MOL
REMARK 923 INTER-LIGAND FREE ENERGY PREDICTED BY IDOCK:   -2.74 KCAL/MOL
REMARK 924 INTRA-LIGAND FREE ENERGY PREDICTED BY IDOCK:    0.58 KCAL/MOL
REMARK 927      BINDING AFFINITY PREDICTED BY RF-SCORE:    0.00 PKD
ROOT
HETATM    1  C   UNL     1      -5.620   8.314  68.074  1.00  0.00    -0.035 C  
HETATM    2  C   UNL     1      -6.114   9.472  68.939  1.00  0.00    -0.042 C  
ENDROOT
BRANCH   2   3
HETATM    3  C   UNL     1      -6.525  10.700  68.091  1.00  0.00    -0.062 C  
BRANCH   3   4
HETATM    4  C   UNL     1      -6.832  10.399  66.637  1.00  0.00    -0.099 A  
HETATM    5  C   UNL     1      -8.071   9.853  66.270  1.00  0.00    -0.114 A  
HETATM    6  C   UNL     1      -7.422   9.871  63.941  1.00  0.00    -0.134 A  
HETATM    7  C   UNL     1      -8.363   9.590  64.929  1.00  0.00    -0.151 A  
HETATM    8  C   UNL     1      -6.192  10.423  64.291  1.00  0.00    -0.063 A  
HETATM    9  C   UNL     1      -5.901  10.691  65.631  1.00  0.00    -0.133 A  
ENDBRANCH   3   4
ENDBRANCH   2   3
BRANCH   2  10
HETATM   10  N   UNL     1      -7.225   8.998  69.761  1.00  0.00    -0.054 N  
HETATM   11  H   UNL     1      -7.910   9.680  70.086  1.00  0.00     0.000 HD 
HETATM   12  C   UNL     1      -7.399   7.679  70.120  1.00  0.00    -0.076 C  
HETATM   13  O   UNL     1      -6.690   6.761  69.718  1.00  0.00    -0.047 OA 
BRANCH  12  14
HETATM   14  C   UNL     1      -8.615   7.452  71.050  1.00  0.00    -0.134 C  
HETATM   15  N   UNL     1      -8.503   8.367  72.219  1.00  0.00    -0.223 NA 
HETATM   16  H2  UNL     1      -8.404   9.344  71.941  1.00  0.00     0.000 HD 
HETATM   17  H1  UNL     1      -9.304   8.217  72.832  1.00  0.00     0.000 HD 
BRANCH  14  18
HETATM   18  C   UNL     1      -9.944   7.728  70.333  1.00  0.00    -0.188 C  
BRANCH  18  19
HETATM   19  C   UNL     1     -10.625   9.011  70.821  1.00  0.00    -0.300 C  
BRANCH  19  20
HETATM   20  C   UNL     1     -12.134   8.986  70.552  1.00  0.00     0.028 C  
BRANCH  20  21
HETATM   21  C   UNL     1     -12.869   8.191  71.631  1.00  0.00    -0.326 C  
HETATM   22  N   UNL     1     -12.126   8.232  72.886  1.00  0.00    -0.582 NA 
HETATM   23  H1  UNL     1     -12.616   7.701  73.605  1.00  0.00     0.000 HD 
HETATM   24  H2  UNL     1     -11.934   9.188  73.183  1.00  0.00     0.000 HD 
ENDBRANCH  20  21
ENDBRANCH  19  20
ENDBRANCH  18  19
ENDBRANCH  14  18
ENDBRANCH  12  14
ENDBRANCH   2  10
TORSDOF 8
ENDMDL
MODEL      345
REMARK 921   NORMALIZED FREE ENERGY PREDICTED BY IDOCK:   -0.25 KCAL/MOL
REMARK 922        TOTAL FREE ENERGY PREDICTED BY IDOCK:   -1.15 KCAL/MOL
REMARK 923 INTER-LIGAND FREE ENERGY PREDICTED BY IDOCK:   -2.22 KCAL/MOL
REMARK 924 INTRA-LIGAND FREE ENERGY PREDICTED BY IDOCK:    1.06 KCAL/MOL
REMARK 927      BINDING AFFINITY PREDICTED BY RF-SCORE:    0.00 PKD
ROOT
HETATM    1  C   UNL     1      -6.330   8.232  68.641  1.00  0.00    -0.053 C  
HETATM    2  C   UNL     1      -7.753   8.763  68.469  1.00  0.00    -0.099 C  
ENDROOT
BRANCH   2   3
HETATM    3  C   UNL     1      -8.289   8.538  67.035  1.00  0.00    -0.110 C  
BRANCH   3   4
HETATM    4  C   UNL     1      -7.473   7.582  66.189  1.00  0.00    -0.083 A  
HETATM    5  C   UNL     1      -7.950   6.292  65.913  1.00  0.00    -0.116 A  
HETATM    6  C   UNL     1      -5.981   5.814  64.592  1.00  0.00    -0.025 A  
HETATM    7  C   UNL     1      -7.206   5.413  65.119  1.00  0.00    -0.067 A  
HETATM    8  C   UNL     1      -5.501   7.097  64.849  1.00  0.00    -0.032 A  
HETATM    9  C   UNL     1      -6.246   7.978  65.639  1.00  0.00    -0.038 A  
ENDBRANCH   3   4
ENDBRANCH   2   3
BRANCH   2  10
HETATM   10  N   UNL     1      -8.611   8.125  69.464  1.00  0.00    -0.133 N  
HETATM   11  H   UNL     1      -9.616   8.291  69.411  1.00  0.00     0.000 HD 
HETATM   12  C   UNL     1      -8.137   7.311  70.470  1.00  0.00    -0.109 C  
HETATM   13  O   UNL     1      -6.962   6.973  70.580  1.00  0.00    -0.060 OA 
BRANCH  12  14
HETATM   14  C   UNL     1      -9.244   6.817  71.432  1.00  0.00    -0.153 C  
HETATM   15  N   UNL     1     -10.340   6.206  70.631  1.00  0.00    -0.205 NA 
HETATM   16  H2  UNL     1     -10.005   5.468  70.011  1.00  0.00     0.000 HD 
HETATM   17  H1  UNL     1     -11.070   5.881  71.264  1.00  0.00     0.000 HD 
BRANCH  14  18
HETATM   18  C   UNL     1      -8.715   5.770  72.423  1.00  0.00    -0.128 C  
BRANCH  18  19
HETATM   19  C   UNL     1      -9.420   4.416  72.284  1.00  0.00    -0.183 C  
BRANCH  19  20
HETATM   20  C   UNL     1      -9.470   3.668  73.621  1.00  0.00    -0.122 C  
BRANCH  20  21
HETATM   21  C   UNL     1     -10.525   4.273  74.548  1.00  0.00    -0.236 C  
HETATM   22  N   UNL     1     -11.734   4.594  73.798  1.00  0.00    -0.265 NA 
HETATM   23  H1  UNL     1     -12.437   4.999  74.416  1.00  0.00     0.000 HD 
HETATM   24  H2  UNL     1     -12.093   3.786  73.291  1.00  0.00     0.000 HD 
ENDBRANCH  20  21
ENDBRANCH  19  20
ENDBRANCH  18  19
ENDBRANCH  14  18
ENDBRANCH  12  14
ENDBRANCH   2  10
TORSDOF 8
ENDMDL
MODEL      346
REMARK 921   NORMALIZED FREE ENERGY PREDICTED BY IDOCK:    4.31 KCAL/MOL
REMARK 922        TOTAL FREE ENERGY PREDICTED BY IDOCK:    5.54 KCAL/MOL
REMARK 923 INTER-LIGAND FREE ENERGY PREDICTED BY IDOCK:    4.26 KCAL/MOL
REMARK 924 INTRA-LIGAND FREE ENERGY PREDICTED BY IDOCK:    1.28 KCAL/MOL
REMARK 927      BINDING AFFINITY PREDICTED BY RF-SCORE:    0.00 PKD
ROOT
HETATM    1  C   UNL     1     -12.204  13.864  66.580  1.00  0.00    -0.482 C  
HETATM    2  C   UNL     1     -12.210  14.011  68.101  1.00  0.00    -0.156 C  
ENDROOT
BRANCH   2   3
HETATM    3  C   UNL     1     -11.412  12.882  68.798  1.00  0.00    -0.345 C  
BRANCH   3   4
HETATM    4  C   UNL     1     -10.034  12.623  68.224  1.00  0.00    -0.229 A  
HETATM    5  C   UNL     1      -8.902  12.649  69.052  1.00  0.00     0.503 A  
HETATM    6  C   UNL     1      -7.478  12.111  67.173  1.00  0.00    -0.129 A  
HETATM    7  C   UNL     1      -7.631  12.395  68.528  1.00  0.00    -0.122 A  
HETATM    8  C   UNL     1      -8.595  12.072  66.342  1.00  0.00    -0.037 A  
HETATM    9  C   UNL     1      -9.867  12.321  66.865  1.00  0.00    -0.216 A  
ENDBRANCH   3   4
ENDBRANCH   2   3
BRANCH   2  10
HETATM   10  N   UNL     1     -11.677  15.327  68.443  1.00  0.00    -0.429 N  
HETATM   11  H   UNL     1     -11.828  16.094  67.787  1.00  0.00     0.000 HD 
HETATM   12  C   UNL     1     -10.982  15.591  69.604  1.00  0.00    -0.286 C  
HETATM   13  O   UNL     1     -10.815  14.771  70.502  1.00  0.00    -0.104 OA 
BRANCH  12  14
HETATM   14  C   UNL     1     -10.467  17.047  69.693  1.00  0.00    -0.099 C  
HETATM   15  N   UNL     1      -9.621  17.183  70.910  1.00  0.00     3.686 NA 
HETATM   16  H2  UNL     1      -8.863  16.500  70.937  1.00  0.00     0.000 HD 
HETATM   17  H1  UNL     1      -9.281  18.143  70.970  1.00  0.00     0.000 HD 
BRANCH  14  18
HETATM   18  C   UNL     1      -9.630  17.434  68.465  1.00  0.00    -0.298 C  
BRANCH  18  19
HETATM   19  C   UNL     1      -9.200  18.905  68.483  1.00  0.00    -0.404 C  
BRANCH  19  20
HETATM   20  C   UNL     1     -10.256  19.809  67.837  1.00  0.00    -0.576 C  
BRANCH  20  21
HETATM   21  C   UNL     1     -10.118  21.250  68.327  1.00  0.00     0.984 C  
HETATM   22  N   UNL     1      -9.093  21.337  69.360  1.00  0.00     3.000 NA 
HETATM   23  H1  UNL     1      -9.001  22.299  69.688  1.00  0.00     0.000 HD 
HETATM   24  H2  UNL     1      -8.201  20.956  69.045  1.00  0.00     0.000 HD 
ENDBRANCH  20  21
ENDBRANCH  19  20
ENDBRANCH  18  19
ENDBRANCH  14  18
ENDBRANCH  12  14
ENDBRANCH   2  10
TORSDOF 8
ENDMDL
